MODEL 1
REMARK VINA RESULT:    -7.034      0.000      0.000
REMARK INTER + INTRA:         -10.028
REMARK INTER:                  -9.501
REMARK INTRA:                  -0.527
REMARK UNBOUND:                -0.527
REMARK  Name = 
REMARK  9 active torsions:
REMARK  status: ('A' for Active; 'I' for Inactive)
REMARK    1  A    between atoms: C_1  and  C_2
REMARK    2  A    between atoms: C_2  and  C_3
REMARK    3  A    between atoms: C_3  and  N_4
REMARK    4  A    between atoms: C_5  and  C_7
REMARK    5  A    between atoms: N_11  and  C_12
REMARK    6  A    between atoms: C_12  and  C_13
REMARK    7  A    between atoms: C_13  and  C_14
REMARK    8  A    between atoms: C_13  and  C_15
REMARK    9  A    between atoms: C_13  and  C_16
REMARK                            x       y       z     vdW  Elec       q    Type
REMARK                         _______ _______ _______ _____ _____    ______ ____
ROOT
ATOM      1  C   UNL     1      45.357   4.231  11.390  0.00  0.00    +0.000 A 
ATOM      2  C   UNL     1      45.793   5.541  11.550  0.00  0.00    +0.000 A 
ATOM      3  C   UNL     1      46.323   5.931  12.783  0.00  0.00    +0.000 A 
ATOM      4  C   UNL     1      46.441   5.003  13.820  0.00  0.00    +0.000 A 
ATOM      5  N   UNL     1      47.054   5.430  15.005  0.00  0.00    +0.000 N 
ATOM      6  N   UNL     1      46.007   3.737  13.682  0.00  0.00    +0.000 NA
ATOM      7  C   UNL     1      45.453   3.382  12.485  0.00  0.00    +0.000 A 
ATOM      8  H   UNL     1      46.509   6.179  15.418  0.00  0.00    +0.000 HD
ENDROOT
BRANCH   1  10
ATOM      9  N   UNL     1      45.459   3.998   8.970  0.00  0.00    +0.000 N 
ATOM     10  C   UNL     1      44.772   3.715  10.131  0.00  0.00    +0.000 C 
ATOM     11  O   UNL     1      43.741   3.058  10.166  0.00  0.00    +0.000 OA
ATOM     12  H   UNL     1      46.355   4.466   9.005  0.00  0.00    +0.000 HD
BRANCH   9  13
ATOM     13  C   UNL     1      44.962   3.588   7.668  0.00  0.00    +0.000 C 
BRANCH  13  15
ATOM     14  C   UNL     1      46.978   2.089   7.312  0.00  0.00    +0.000 C 
ATOM     15  C   UNL     1      46.086   3.173   6.724  0.00  0.00    +0.000 C 
ENDBRANCH  13  15
ENDBRANCH   9  13
ENDBRANCH   1  10
BRANCH   5  16
ATOM     16  C   UNL     1      47.477   4.380  15.943  0.00  0.00    +0.000 C 
BRANCH  16  17
ATOM     17  C   UNL     1      48.399   4.933  17.087  0.00  0.00    +0.000 C 
ATOM     18  C   UNL     1      48.841   6.375  16.731  0.00  0.00    +0.000 C 
ATOM     19  C   UNL     1      47.609   5.002  18.416  0.00  0.00    +0.000 C 
BRANCH  17  20
ATOM     20  C   UNL     1      49.613   3.991  17.288  0.00  0.00    +0.000 A 
ATOM     21  C   UNL     1      49.543   2.608  17.059  0.00  0.00    +0.000 A 
ATOM     22  C   UNL     1      50.667   1.817  17.252  0.00  0.00    +0.000 A 
ATOM     23  N   UNL     1      51.863   2.292  17.649  0.00  0.00    +0.000 NA
ATOM     24  C   UNL     1      51.929   3.620  17.864  0.00  0.00    +0.000 A 
ATOM     25  C   UNL     1      50.857   4.493  17.702  0.00  0.00    +0.000 A 
ENDBRANCH  17  20
ENDBRANCH  16  17
ENDBRANCH   5  16
TORSDOF 6
ENDMDL
MODEL 2
REMARK VINA RESULT:    -6.303      2.940      8.887
REMARK INTER + INTRA:          -9.040
REMARK INTER:                  -8.447
REMARK INTRA:                  -0.593
REMARK UNBOUND:                -0.527
REMARK  Name = 
REMARK  9 active torsions:
REMARK  status: ('A' for Active; 'I' for Inactive)
REMARK    1  A    between atoms: C_1  and  C_2
REMARK    2  A    between atoms: C_2  and  C_3
REMARK    3  A    between atoms: C_3  and  N_4
REMARK    4  A    between atoms: C_5  and  C_7
REMARK    5  A    between atoms: N_11  and  C_12
REMARK    6  A    between atoms: C_12  and  C_13
REMARK    7  A    between atoms: C_13  and  C_14
REMARK    8  A    between atoms: C_13  and  C_15
REMARK    9  A    between atoms: C_13  and  C_16
REMARK                            x       y       z     vdW  Elec       q    Type
REMARK                         _______ _______ _______ _____ _____    ______ ____
ROOT
ATOM      1  C   UNL     1      48.218   5.104  16.662  0.00  0.00    +0.000 A 
ATOM      2  C   UNL     1      48.555   6.124  15.781  0.00  0.00    +0.000 A 
ATOM      3  C   UNL     1      47.990   6.128  14.503  0.00  0.00    +0.000 A 
ATOM      4  C   UNL     1      47.074   5.138  14.139  0.00  0.00    +0.000 A 
ATOM      5  N   UNL     1      46.478   5.239  12.875  0.00  0.00    +0.000 N 
ATOM      6  N   UNL     1      46.753   4.136  14.978  0.00  0.00    +0.000 NA
ATOM      7  C   UNL     1      47.345   4.122  16.208  0.00  0.00    +0.000 A 
ATOM      8  H   UNL     1      47.193   5.176  12.158  0.00  0.00    +0.000 HD
ENDROOT
BRANCH   1  10
ATOM      9  N   UNL     1      47.983   5.505  19.051  0.00  0.00    +0.000 N 
ATOM     10  C   UNL     1      48.765   4.999  18.035  0.00  0.00    +0.000 C 
ATOM     11  O   UNL     1      49.850   4.464  18.215  0.00  0.00    +0.000 OA
ATOM     12  H   UNL     1      47.054   5.853  18.858  0.00  0.00    +0.000 HD
BRANCH   9  13
ATOM     13  C   UNL     1      48.431   5.503  20.433  0.00  0.00    +0.000 C 
BRANCH  13  15
ATOM     14  C   UNL     1      47.609   7.891  20.179  0.00  0.00    +0.000 C 
ATOM     15  C   UNL     1      48.223   6.855  21.110  0.00  0.00    +0.000 C 
ENDBRANCH  13  15
ENDBRANCH   9  13
ENDBRANCH   1  10
BRANCH   5  16
ATOM     16  C   UNL     1      45.287   4.410  12.640  0.00  0.00    +0.000 C 
BRANCH  16  17
ATOM     17  C   UNL     1      44.460   4.887  11.395  0.00  0.00    +0.000 C 
ATOM     18  C   UNL     1      42.949   4.701  11.686  0.00  0.00    +0.000 C 
ATOM     19  C   UNL     1      44.703   6.395  11.144  0.00  0.00    +0.000 C 
BRANCH  17  20
ATOM     20  C   UNL     1      44.905   4.103  10.134  0.00  0.00    +0.000 A 
ATOM     21  C   UNL     1      45.496   4.729   9.025  0.00  0.00    +0.000 A 
ATOM     22  C   UNL     1      45.878   3.970   7.927  0.00  0.00    +0.000 A 
ATOM     23  N   UNL     1      45.725   2.635   7.843  0.00  0.00    +0.000 NA
ATOM     24  C   UNL     1      45.161   2.037   8.910  0.00  0.00    +0.000 A 
ATOM     25  C   UNL     1      44.743   2.711  10.053  0.00  0.00    +0.000 A 
ENDBRANCH  17  20
ENDBRANCH  16  17
ENDBRANCH   5  16
TORSDOF 6
ENDMDL
MODEL 3
REMARK VINA RESULT:    -6.013      5.078      7.737
REMARK INTER + INTRA:          -8.648
REMARK INTER:                  -7.898
REMARK INTRA:                  -0.750
REMARK UNBOUND:                -0.527
REMARK  Name = 
REMARK  9 active torsions:
REMARK  status: ('A' for Active; 'I' for Inactive)
REMARK    1  A    between atoms: C_1  and  C_2
REMARK    2  A    between atoms: C_2  and  C_3
REMARK    3  A    between atoms: C_3  and  N_4
REMARK    4  A    between atoms: C_5  and  C_7
REMARK    5  A    between atoms: N_11  and  C_12
REMARK    6  A    between atoms: C_12  and  C_13
REMARK    7  A    between atoms: C_13  and  C_14
REMARK    8  A    between atoms: C_13  and  C_15
REMARK    9  A    between atoms: C_13  and  C_16
REMARK                            x       y       z     vdW  Elec       q    Type
REMARK                         _______ _______ _______ _____ _____    ______ ____
ROOT
ATOM      1  C   UNL     1      48.272   8.745  12.152  0.00  0.00    +0.000 A 
ATOM      2  C   UNL     1      47.140   9.295  12.739  0.00  0.00    +0.000 A 
ATOM      3  C   UNL     1      46.007   8.495  12.907  0.00  0.00    +0.000 A 
ATOM      4  C   UNL     1      46.034   7.153  12.519  0.00  0.00    +0.000 A 
ATOM      5  N   UNL     1      44.899   6.378  12.785  0.00  0.00    +0.000 N 
ATOM      6  N   UNL     1      47.120   6.614  11.935  0.00  0.00    +0.000 NA
ATOM      7  C   UNL     1      48.204   7.419  11.740  0.00  0.00    +0.000 A 
ATOM      8  H   UNL     1      44.105   6.755  12.279  0.00  0.00    +0.000 HD
ENDROOT
BRANCH   1  10
ATOM      9  N   UNL     1      50.562   8.820  11.331  0.00  0.00    +0.000 N 
ATOM     10  C   UNL     1      49.522   9.506  11.920  0.00  0.00    +0.000 C 
ATOM     11  O   UNL     1      49.578  10.687  12.232  0.00  0.00    +0.000 OA
ATOM     12  H   UNL     1      50.433   7.870  11.010  0.00  0.00    +0.000 HD
BRANCH   9  13
ATOM     13  C   UNL     1      51.852   9.443  11.096  0.00  0.00    +0.000 C 
BRANCH  13  15
ATOM     14  C   UNL     1      52.251   7.253   9.879  0.00  0.00    +0.000 C 
ATOM     15  C   UNL     1      52.665   8.709  10.034  0.00  0.00    +0.000 C 
ENDBRANCH  13  15
ENDBRANCH   9  13
ENDBRANCH   1  10
BRANCH   5  16
ATOM     16  C   UNL     1      45.059   4.920  12.693  0.00  0.00    +0.000 C 
BRANCH  16  17
ATOM     17  C   UNL     1      43.990   4.256  11.755  0.00  0.00    +0.000 C 
ATOM     18  C   UNL     1      43.382   3.023  12.470  0.00  0.00    +0.000 C 
ATOM     19  C   UNL     1      42.837   5.251  11.480  0.00  0.00    +0.000 C 
BRANCH  17  20
ATOM     20  C   UNL     1      44.640   3.874  10.401  0.00  0.00    +0.000 A 
ATOM     21  C   UNL     1      45.228   4.824   9.550  0.00  0.00    +0.000 A 
ATOM     22  C   UNL     1      45.800   4.419   8.352  0.00  0.00    +0.000 A 
ATOM     23  N   UNL     1      45.840   3.141   7.931  0.00  0.00    +0.000 NA
ATOM     24  C   UNL     1      45.279   2.231   8.751  0.00  0.00    +0.000 A 
ATOM     25  C   UNL     1      44.680   2.540   9.968  0.00  0.00    +0.000 A 
ENDBRANCH  17  20
ENDBRANCH  16  17
ENDBRANCH   5  16
TORSDOF 6
ENDMDL
MODEL 4
REMARK VINA RESULT:    -5.982      1.916      2.889
REMARK INTER + INTRA:          -8.607
REMARK INTER:                  -8.056
REMARK INTRA:                  -0.551
REMARK UNBOUND:                -0.527
REMARK  Name = 
REMARK  9 active torsions:
REMARK  status: ('A' for Active; 'I' for Inactive)
REMARK    1  A    between atoms: C_1  and  C_2
REMARK    2  A    between atoms: C_2  and  C_3
REMARK    3  A    between atoms: C_3  and  N_4
REMARK    4  A    between atoms: C_5  and  C_7
REMARK    5  A    between atoms: N_11  and  C_12
REMARK    6  A    between atoms: C_12  and  C_13
REMARK    7  A    between atoms: C_13  and  C_14
REMARK    8  A    between atoms: C_13  and  C_15
REMARK    9  A    between atoms: C_13  and  C_16
REMARK                            x       y       z     vdW  Elec       q    Type
REMARK                         _______ _______ _______ _____ _____    ______ ____
ROOT
ATOM      1  C   UNL     1      45.568   4.814  12.012  0.00  0.00    +0.000 A 
ATOM      2  C   UNL     1      46.370   5.948  11.983  0.00  0.00    +0.000 A 
ATOM      3  C   UNL     1      47.096   6.292  13.127  0.00  0.00    +0.000 A 
ATOM      4  C   UNL     1      47.037   5.483  14.264  0.00  0.00    +0.000 A 
ATOM      5  N   UNL     1      47.847   5.831  15.351  0.00  0.00    +0.000 N 
ATOM      6  N   UNL     1      46.250   4.392  14.308  0.00  0.00    +0.000 NA
ATOM      7  C   UNL     1      45.515   4.092  13.197  0.00  0.00    +0.000 A 
ATOM      8  H   UNL     1      47.576   6.746  15.697  0.00  0.00    +0.000 HD
ENDROOT
BRANCH   1  10
ATOM      9  N   UNL     1      45.279   3.353  10.087  0.00  0.00    +0.000 N 
ATOM     10  C   UNL     1      44.752   4.364  10.860  0.00  0.00    +0.000 C 
ATOM     11  O   UNL     1      43.661   4.877  10.654  0.00  0.00    +0.000 OA
ATOM     12  H   UNL     1      46.143   2.900  10.355  0.00  0.00    +0.000 HD
BRANCH   9  13
ATOM     13  C   UNL     1      44.596   2.859   8.904  0.00  0.00    +0.000 C 
BRANCH  13  15
ATOM     14  C   UNL     1      46.474   3.369   7.276  0.00  0.00    +0.000 C 
ATOM     15  C   UNL     1      45.015   3.604   7.640  0.00  0.00    +0.000 C 
ENDBRANCH  13  15
ENDBRANCH   9  13
ENDBRANCH   1  10
BRANCH   5  16
ATOM     16  C   UNL     1      48.037   4.807  16.388  0.00  0.00    +0.000 C 
BRANCH  16  17
ATOM     17  C   UNL     1      49.261   5.114  17.320  0.00  0.00    +0.000 C 
ATOM     18  C   UNL     1      50.092   3.820  17.511  0.00  0.00    +0.000 C 
ATOM     19  C   UNL     1      50.182   6.165  16.654  0.00  0.00    +0.000 C 
BRANCH  17  20
ATOM     20  C   UNL     1      48.764   5.685  18.672  0.00  0.00    +0.000 A 
ATOM     21  C   UNL     1      48.903   4.989  19.883  0.00  0.00    +0.000 A 
ATOM     22  C   UNL     1      48.443   5.557  21.063  0.00  0.00    +0.000 A 
ATOM     23  N   UNL     1      47.858   6.768  21.139  0.00  0.00    +0.000 NA
ATOM     24  C   UNL     1      47.729   7.435  19.976  0.00  0.00    +0.000 A 
ATOM     25  C   UNL     1      48.156   6.948  18.744  0.00  0.00    +0.000 A 
ENDBRANCH  17  20
ENDBRANCH  16  17
ENDBRANCH   5  16
TORSDOF 6
ENDMDL
MODEL 5
REMARK VINA RESULT:    -5.933      1.621      2.386
REMARK INTER + INTRA:          -8.540
REMARK INTER:                  -7.878
REMARK INTRA:                  -0.662
REMARK UNBOUND:                -0.527
REMARK  Name = 
REMARK  9 active torsions:
REMARK  status: ('A' for Active; 'I' for Inactive)
REMARK    1  A    between atoms: C_1  and  C_2
REMARK    2  A    between atoms: C_2  and  C_3
REMARK    3  A    between atoms: C_3  and  N_4
REMARK    4  A    between atoms: C_5  and  C_7
REMARK    5  A    between atoms: N_11  and  C_12
REMARK    6  A    between atoms: C_12  and  C_13
REMARK    7  A    between atoms: C_13  and  C_14
REMARK    8  A    between atoms: C_13  and  C_15
REMARK    9  A    between atoms: C_13  and  C_16
REMARK                            x       y       z     vdW  Elec       q    Type
REMARK                         _______ _______ _______ _____ _____    ______ ____
ROOT
ATOM      1  C   UNL     1      45.415   5.912  11.614  0.00  0.00    +0.000 A 
ATOM      2  C   UNL     1      45.222   7.242  11.969  0.00  0.00    +0.000 A 
ATOM      3  C   UNL     1      46.043   7.806  12.949  0.00  0.00    +0.000 A 
ATOM      4  C   UNL     1      47.062   7.049  13.531  0.00  0.00    +0.000 A 
ATOM      5  N   UNL     1      47.904   7.690  14.448  0.00  0.00    +0.000 N 
ATOM      6  N   UNL     1      47.247   5.756  13.207  0.00  0.00    +0.000 NA
ATOM      7  C   UNL     1      46.411   5.206  12.279  0.00  0.00    +0.000 A 
ATOM      8  H   UNL     1      47.361   8.008  15.243  0.00  0.00    +0.000 HD
ENDROOT
BRANCH   1  10
ATOM      9  N   UNL     1      45.267   4.729   9.493  0.00  0.00    +0.000 N 
ATOM     10  C   UNL     1      44.598   5.214  10.595  0.00  0.00    +0.000 C 
ATOM     11  O   UNL     1      43.395   5.078  10.773  0.00  0.00    +0.000 OA
ATOM     12  H   UNL     1      46.275   4.787   9.439  0.00  0.00    +0.000 HD
BRANCH   9  13
ATOM     13  C   UNL     1      44.569   4.068   8.404  0.00  0.00    +0.000 C 
BRANCH  13  15
ATOM     14  C   UNL     1      46.087   2.052   8.138  0.00  0.00    +0.000 C 
ATOM     15  C   UNL     1      45.519   3.305   7.486  0.00  0.00    +0.000 C 
ENDBRANCH  13  15
ENDBRANCH   9  13
ENDBRANCH   1  10
BRANCH   5  16
ATOM     16  C   UNL     1      49.157   7.000  14.787  0.00  0.00    +0.000 C 
BRANCH  16  17
ATOM     17  C   UNL     1      49.374   6.877  16.337  0.00  0.00    +0.000 C 
ATOM     18  C   UNL     1      50.848   7.222  16.671  0.00  0.00    +0.000 C 
ATOM     19  C   UNL     1      48.477   7.897  17.079  0.00  0.00    +0.000 C 
BRANCH  17  20
ATOM     20  C   UNL     1      48.993   5.452  16.812  0.00  0.00    +0.000 A 
ATOM     21  C   UNL     1      49.914   4.590  17.427  0.00  0.00    +0.000 A 
ATOM     22  C   UNL     1      49.510   3.326  17.837  0.00  0.00    +0.000 A 
ATOM     23  N   UNL     1      48.259   2.850  17.688  0.00  0.00    +0.000 NA
ATOM     24  C   UNL     1      47.377   3.682  17.101  0.00  0.00    +0.000 A 
ATOM     25  C   UNL     1      47.687   4.962  16.655  0.00  0.00    +0.000 A 
ENDBRANCH  17  20
ENDBRANCH  16  17
ENDBRANCH   5  16
TORSDOF 6
ENDMDL
MODEL 6
REMARK VINA RESULT:    -5.922      1.729      2.666
REMARK INTER + INTRA:          -8.526
REMARK INTER:                  -7.766
REMARK INTRA:                  -0.760
REMARK UNBOUND:                -0.527
REMARK  Name = 
REMARK  9 active torsions:
REMARK  status: ('A' for Active; 'I' for Inactive)
REMARK    1  A    between atoms: C_1  and  C_2
REMARK    2  A    between atoms: C_2  and  C_3
REMARK    3  A    between atoms: C_3  and  N_4
REMARK    4  A    between atoms: C_5  and  C_7
REMARK    5  A    between atoms: N_11  and  C_12
REMARK    6  A    between atoms: C_12  and  C_13
REMARK    7  A    between atoms: C_13  and  C_14
REMARK    8  A    between atoms: C_13  and  C_15
REMARK    9  A    between atoms: C_13  and  C_16
REMARK                            x       y       z     vdW  Elec       q    Type
REMARK                         _______ _______ _______ _____ _____    ______ ____
ROOT
ATOM      1  C   UNL     1      45.868   4.903  12.715  0.00  0.00    +0.000 A 
ATOM      2  C   UNL     1      45.754   6.248  12.385  0.00  0.00    +0.000 A 
ATOM      3  C   UNL     1      46.627   7.166  12.974  0.00  0.00    +0.000 A 
ATOM      4  C   UNL     1      47.620   6.724  13.852  0.00  0.00    +0.000 A 
ATOM      5  N   UNL     1      48.517   7.678  14.348  0.00  0.00    +0.000 N 
ATOM      6  N   UNL     1      47.729   5.427  14.191  0.00  0.00    +0.000 NA
ATOM      7  C   UNL     1      46.842   4.547  13.640  0.00  0.00    +0.000 A 
ATOM      8  H   UNL     1      48.011   8.369  14.891  0.00  0.00    +0.000 HD
ENDROOT
BRANCH   1  10
ATOM      9  N   UNL     1      45.056   3.648  10.795  0.00  0.00    +0.000 N 
ATOM     10  C   UNL     1      44.990   3.849  12.156  0.00  0.00    +0.000 C 
ATOM     11  O   UNL     1      44.272   3.199  12.905  0.00  0.00    +0.000 OA
ATOM     12  H   UNL     1      45.732   4.149  10.235  0.00  0.00    +0.000 HD
BRANCH   9  13
ATOM     13  C   UNL     1      44.210   2.677  10.124  0.00  0.00    +0.000 C 
BRANCH  13  15
ATOM     14  C   UNL     1      45.482   3.202   7.992  0.00  0.00    +0.000 C 
ATOM     15  C   UNL     1      44.858   2.119   8.860  0.00  0.00    +0.000 C 
ENDBRANCH  13  15
ENDBRANCH   9  13
ENDBRANCH   1  10
BRANCH   5  16
ATOM     16  C   UNL     1      49.740   7.164  14.982  0.00  0.00    +0.000 C 
BRANCH  16  17
ATOM     17  C   UNL     1      49.766   7.418  16.531  0.00  0.00    +0.000 C 
ATOM     18  C   UNL     1      51.154   7.980  16.930  0.00  0.00    +0.000 C 
ATOM     19  C   UNL     1      48.707   8.480  16.910  0.00  0.00    +0.000 C 
BRANCH  17  20
ATOM     20  C   UNL     1      49.436   6.105  17.286  0.00  0.00    +0.000 A 
ATOM     21  C   UNL     1      50.327   5.022  17.343  0.00  0.00    +0.000 A 
ATOM     22  C   UNL     1      49.976   3.875  18.041  0.00  0.00    +0.000 A 
ATOM     23  N   UNL     1      48.809   3.717  18.693  0.00  0.00    +0.000 NA
ATOM     24  C   UNL     1      47.957   4.759  18.639  0.00  0.00    +0.000 A 
ATOM     25  C   UNL     1      48.217   5.948  17.964  0.00  0.00    +0.000 A 
ENDBRANCH  17  20
ENDBRANCH  16  17
ENDBRANCH   5  16
TORSDOF 6
ENDMDL
MODEL 7
REMARK VINA RESULT:    -5.868      2.759      8.667
REMARK INTER + INTRA:          -8.452
REMARK INTER:                  -7.880
REMARK INTRA:                  -0.573
REMARK UNBOUND:                -0.527
REMARK  Name = 
REMARK  9 active torsions:
REMARK  status: ('A' for Active; 'I' for Inactive)
REMARK    1  A    between atoms: C_1  and  C_2
REMARK    2  A    between atoms: C_2  and  C_3
REMARK    3  A    between atoms: C_3  and  N_4
REMARK    4  A    between atoms: C_5  and  C_7
REMARK    5  A    between atoms: N_11  and  C_12
REMARK    6  A    between atoms: C_12  and  C_13
REMARK    7  A    between atoms: C_13  and  C_14
REMARK    8  A    between atoms: C_13  and  C_15
REMARK    9  A    between atoms: C_13  and  C_16
REMARK                            x       y       z     vdW  Elec       q    Type
REMARK                         _______ _______ _______ _____ _____    ______ ____
ROOT
ATOM      1  C   UNL     1      49.000   4.792  17.118  0.00  0.00    +0.000 A 
ATOM      2  C   UNL     1      48.088   3.744  17.140  0.00  0.00    +0.000 A 
ATOM      3  C   UNL     1      47.120   3.669  16.135  0.00  0.00    +0.000 A 
ATOM      4  C   UNL     1      47.099   4.618  15.110  0.00  0.00    +0.000 A 
ATOM      5  N   UNL     1      46.159   4.447  14.086  0.00  0.00    +0.000 N 
ATOM      6  N   UNL     1      47.968   5.646  15.088  0.00  0.00    +0.000 NA
ATOM      7  C   UNL     1      48.881   5.729  16.100  0.00  0.00    +0.000 A 
ATOM      8  H   UNL     1      45.223   4.497  14.474  0.00  0.00    +0.000 HD
ENDROOT
BRANCH   1  10
ATOM      9  N   UNL     1      51.361   4.975  17.682  0.00  0.00    +0.000 N 
ATOM     10  C   UNL     1      50.060   4.970  18.138  0.00  0.00    +0.000 C 
ATOM     11  O   UNL     1      49.752   5.123  19.311  0.00  0.00    +0.000 OA
ATOM     12  H   UNL     1      51.556   4.937  16.690  0.00  0.00    +0.000 HD
BRANCH   9  13
ATOM     13  C   UNL     1      52.488   5.094  18.589  0.00  0.00    +0.000 C 
BRANCH  13  15
ATOM     14  C   UNL     1      52.887   2.634  18.113  0.00  0.00    +0.000 C 
ATOM     15  C   UNL     1      53.522   3.992  18.376  0.00  0.00    +0.000 C 
ENDBRANCH  13  15
ENDBRANCH   9  13
ENDBRANCH   1  10
BRANCH   5  16
ATOM     16  C   UNL     1      46.367   5.233  12.862  0.00  0.00    +0.000 C 
BRANCH  16  17
ATOM     17  C   UNL     1      45.033   5.476  12.070  0.00  0.00    +0.000 C 
ATOM     18  C   UNL     1      43.830   5.235  13.017  0.00  0.00    +0.000 C 
ATOM     19  C   UNL     1      44.963   6.946  11.592  0.00  0.00    +0.000 C 
BRANCH  17  20
ATOM     20  C   UNL     1      44.982   4.553  10.827  0.00  0.00    +0.000 A 
ATOM     21  C   UNL     1      44.470   3.247  10.875  0.00  0.00    +0.000 A 
ATOM     22  C   UNL     1      44.446   2.471   9.725  0.00  0.00    +0.000 A 
ATOM     23  N   UNL     1      44.887   2.890   8.524  0.00  0.00    +0.000 NA
ATOM     24  C   UNL     1      45.375   4.145   8.479  0.00  0.00    +0.000 A 
ATOM     25  C   UNL     1      45.443   4.997   9.577  0.00  0.00    +0.000 A 
ENDBRANCH  17  20
ENDBRANCH  16  17
ENDBRANCH   5  16
TORSDOF 6
ENDMDL
MODEL 8
REMARK VINA RESULT:    -5.792      1.681      2.624
REMARK INTER + INTRA:          -8.350
REMARK INTER:                  -7.896
REMARK INTRA:                  -0.454
REMARK UNBOUND:                -0.527
REMARK  Name = 
REMARK  9 active torsions:
REMARK  status: ('A' for Active; 'I' for Inactive)
REMARK    1  A    between atoms: C_1  and  C_2
REMARK    2  A    between atoms: C_2  and  C_3
REMARK    3  A    between atoms: C_3  and  N_4
REMARK    4  A    between atoms: C_5  and  C_7
REMARK    5  A    between atoms: N_11  and  C_12
REMARK    6  A    between atoms: C_12  and  C_13
REMARK    7  A    between atoms: C_13  and  C_14
REMARK    8  A    between atoms: C_13  and  C_15
REMARK    9  A    between atoms: C_13  and  C_16
REMARK                            x       y       z     vdW  Elec       q    Type
REMARK                         _______ _______ _______ _____ _____    ______ ____
ROOT
ATOM      1  C   UNL     1      45.332   4.399  11.324  0.00  0.00    +0.000 A 
ATOM      2  C   UNL     1      45.453   5.713  11.758  0.00  0.00    +0.000 A 
ATOM      3  C   UNL     1      45.928   5.958  13.049  0.00  0.00    +0.000 A 
ATOM      4  C   UNL     1      46.307   4.893  13.870  0.00  0.00    +0.000 A 
ATOM      5  N   UNL     1      46.852   5.202  15.123  0.00  0.00    +0.000 N 
ATOM      6  N   UNL     1      46.178   3.616  13.466  0.00  0.00    +0.000 NA
ATOM      7  C   UNL     1      45.673   3.391  12.217  0.00  0.00    +0.000 A 
ATOM      8  H   UNL     1      46.163   5.697  15.679  0.00  0.00    +0.000 HD
ENDROOT
BRANCH   1  10
ATOM      9  N   UNL     1      45.632   3.189   9.233  0.00  0.00    +0.000 N 
ATOM     10  C   UNL     1      44.832   4.028   9.979  0.00  0.00    +0.000 C 
ATOM     11  O   UNL     1      43.749   4.450   9.598  0.00  0.00    +0.000 OA
ATOM     12  H   UNL     1      46.474   2.796   9.631  0.00  0.00    +0.000 HD
BRANCH   9  13
ATOM     13  C   UNL     1      45.273   2.793   7.883  0.00  0.00    +0.000 C 
BRANCH  13  15
ATOM     14  C   UNL     1      46.945   2.389   6.017  0.00  0.00    +0.000 C 
ATOM     15  C   UNL     1      46.182   3.424   6.833  0.00  0.00    +0.000 C 
ENDBRANCH  13  15
ENDBRANCH   9  13
ENDBRANCH   1  10
BRANCH   5  16
ATOM     16  C   UNL     1      47.551   4.115  15.823  0.00  0.00    +0.000 C 
BRANCH  16  17
ATOM     17  C   UNL     1      48.186   4.585  17.179  0.00  0.00    +0.000 C 
ATOM     18  C   UNL     1      47.085   4.622  18.269  0.00  0.00    +0.000 C 
ATOM     19  C   UNL     1      49.262   3.573  17.638  0.00  0.00    +0.000 C 
BRANCH  17  20
ATOM     20  C   UNL     1      48.861   5.968  16.995  0.00  0.00    +0.000 A 
ATOM     21  C   UNL     1      49.886   6.190  16.062  0.00  0.00    +0.000 A 
ATOM     22  C   UNL     1      50.448   7.453  15.940  0.00  0.00    +0.000 A 
ATOM     23  N   UNL     1      50.068   8.520  16.668  0.00  0.00    +0.000 NA
ATOM     24  C   UNL     1      49.082   8.306  17.560  0.00  0.00    +0.000 A 
ATOM     25  C   UNL     1      48.460   7.077  17.757  0.00  0.00    +0.000 A 
ENDBRANCH  17  20
ENDBRANCH  16  17
ENDBRANCH   5  16
TORSDOF 6
ENDMDL
MODEL 9
REMARK VINA RESULT:    -5.750      1.519      1.864
REMARK INTER + INTRA:          -8.294
REMARK INTER:                  -7.693
REMARK INTRA:                  -0.601
REMARK UNBOUND:                -0.527
REMARK  Name = 
REMARK  9 active torsions:
REMARK  status: ('A' for Active; 'I' for Inactive)
REMARK    1  A    between atoms: C_1  and  C_2
REMARK    2  A    between atoms: C_2  and  C_3
REMARK    3  A    between atoms: C_3  and  N_4
REMARK    4  A    between atoms: C_5  and  C_7
REMARK    5  A    between atoms: N_11  and  C_12
REMARK    6  A    between atoms: C_12  and  C_13
REMARK    7  A    between atoms: C_13  and  C_14
REMARK    8  A    between atoms: C_13  and  C_15
REMARK    9  A    between atoms: C_13  and  C_16
REMARK                            x       y       z     vdW  Elec       q    Type
REMARK                         _______ _______ _______ _____ _____    ______ ____
ROOT
ATOM      1  C   UNL     1      45.868   4.974  12.363  0.00  0.00    +0.000 A 
ATOM      2  C   UNL     1      46.651   6.120  12.406  0.00  0.00    +0.000 A 
ATOM      3  C   UNL     1      47.371   6.404  13.570  0.00  0.00    +0.000 A 
ATOM      4  C   UNL     1      47.326   5.523  14.653  0.00  0.00    +0.000 A 
ATOM      5  N   UNL     1      48.131   5.816  15.761  0.00  0.00    +0.000 N 
ATOM      6  N   UNL     1      46.558   4.419  14.628  0.00  0.00    +0.000 NA
ATOM      7  C   UNL     1      45.827   4.177  13.500  0.00  0.00    +0.000 A 
ATOM      8  H   UNL     1      47.844   6.702  16.164  0.00  0.00    +0.000 HD
ENDROOT
BRANCH   1  10
ATOM      9  N   UNL     1      45.020   3.241  10.879  0.00  0.00    +0.000 N 
ATOM     10  C   UNL     1      45.059   4.584  11.184  0.00  0.00    +0.000 C 
ATOM     11  O   UNL     1      44.455   5.441  10.554  0.00  0.00    +0.000 OA
ATOM     12  H   UNL     1      45.462   2.564  11.487  0.00  0.00    +0.000 HD
BRANCH   9  13
ATOM     13  C   UNL     1      44.300   2.741   9.721  0.00  0.00    +0.000 C 
BRANCH  13  15
ATOM     14  C   UNL     1      45.823   3.228   7.750  0.00  0.00    +0.000 C 
ATOM     15  C   UNL     1      45.236   2.162   8.664  0.00  0.00    +0.000 C 
ENDBRANCH  13  15
ENDBRANCH   9  13
ENDBRANCH   1  10
BRANCH   5  16
ATOM     16  C   UNL     1      48.338   4.731  16.731  0.00  0.00    +0.000 C 
BRANCH  16  17
ATOM     17  C   UNL     1      49.118   5.207  18.007  0.00  0.00    +0.000 C 
ATOM     18  C   UNL     1      48.767   6.689  18.294  0.00  0.00    +0.000 C 
ATOM     19  C   UNL     1      48.676   4.378  19.237  0.00  0.00    +0.000 C 
BRANCH  17  20
ATOM     20  C   UNL     1      50.640   5.005  17.801  0.00  0.00    +0.000 A 
ATOM     21  C   UNL     1      51.299   3.817  18.154  0.00  0.00    +0.000 A 
ATOM     22  C   UNL     1      52.665   3.694  17.939  0.00  0.00    +0.000 A 
ATOM     23  N   UNL     1      53.432   4.658  17.395  0.00  0.00    +0.000 NA
ATOM     24  C   UNL     1      52.796   5.795  17.053  0.00  0.00    +0.000 A 
ATOM     25  C   UNL     1      51.434   6.014  17.232  0.00  0.00    +0.000 A 
ENDBRANCH  17  20
ENDBRANCH  16  17
ENDBRANCH   5  16
TORSDOF 6
ENDMDL
