MODEL 1
REMARK VINA RESULT:    -7.865      0.000      0.000
REMARK INTER + INTRA:         -10.646
REMARK INTER:                 -10.163
REMARK INTRA:                  -0.482
REMARK UNBOUND:                -0.482
REMARK  Name = 
REMARK  6 active torsions:
REMARK  status: ('A' for Active; 'I' for Inactive)
REMARK    1  A    between atoms: N_1  and  C_2
REMARK    2  A    between atoms: C_2  and  C_3
REMARK    3  A    between atoms: C_3  and  C_4
REMARK    4  A    between atoms: C_7  and  C_8
REMARK    5  A    between atoms: C_8  and  N_9
REMARK    6  A    between atoms: C_15  and  O_16
REMARK                            x       y       z     vdW  Elec       q    Type
REMARK                         _______ _______ _______ _____ _____    ______ ____
ROOT
ATOM      1  C   UNL     1      43.709   4.579  10.625  0.00  0.00    +0.000 C 
ENDROOT
BRANCH   1   2
ATOM      2  N   UNL     1      44.511   5.616  11.261  0.00  0.00    +0.000 N 
ATOM      3  C   UNL     1      44.412   6.965  11.004  0.00  0.00    +0.000 A 
ATOM      4  C   UNL     1      45.304   7.622  11.824  0.00  0.00    +0.000 A 
ATOM      5  C   UNL     1      45.985   6.640  12.592  0.00  0.00    +0.000 A 
ATOM      6  C   UNL     1      46.967   6.663  13.594  0.00  0.00    +0.000 A 
ATOM      7  C   UNL     1      47.384   5.440  14.121  0.00  0.00    +0.000 A 
ATOM      8  C   UNL     1      46.830   4.271  13.615  0.00  0.00    +0.000 A 
ATOM      9  N   UNL     1      45.898   4.192  12.650  0.00  0.00    +0.000 NA
ATOM     10  C   UNL     1      45.499   5.397  12.192  0.00  0.00    +0.000 A 
BRANCH   8  11
ATOM     11  O   UNL     1      47.223   3.060  14.119  0.00  0.00    +0.000 OA
ATOM     12  H   UNL     1      48.056   2.817  13.697  0.00  0.00    +0.000 HD
ENDBRANCH   8  11
ENDBRANCH   1   2
BRANCH   1  16
ATOM     13  C   UNL     1      46.137   2.288   7.854  0.00  0.00    +0.000 A 
ATOM     14  C   UNL     1      45.353   1.638   8.814  0.00  0.00    +0.000 A 
ATOM     15  C   UNL     1      44.554   2.370   9.700  0.00  0.00    +0.000 A 
ATOM     16  C   UNL     1      44.517   3.770   9.638  0.00  0.00    +0.000 A 
ATOM     17  C   UNL     1      45.279   4.416   8.653  0.00  0.00    +0.000 A 
ATOM     18  C   UNL     1      46.076   3.683   7.768  0.00  0.00    +0.000 A 
BRANCH  13  19
ATOM     19  C   UNL     1      47.069   1.499   6.961  0.00  0.00    +0.000 C 
BRANCH  19  20
ATOM     20  C   UNL     1      48.293   2.292   6.497  0.00  0.00    +0.000 C 
BRANCH  20  21
ATOM     21  N   UNL     1      48.275   2.470   5.042  0.00  0.00    +0.000 NA
ATOM     22  H   UNL     1      47.687   3.269   4.806  0.00  0.00    +0.000 HD
ATOM     23  H   UNL     1      47.843   1.658   4.603  0.00  0.00    +0.000 HD
ENDBRANCH  20  21
ENDBRANCH  19  20
ENDBRANCH  13  19
ENDBRANCH   1  16
TORSDOF 6
ENDMDL
MODEL 2
REMARK VINA RESULT:    -7.562      2.039      2.817
REMARK INTER + INTRA:         -10.255
REMARK INTER:                  -9.691
REMARK INTRA:                  -0.564
REMARK UNBOUND:                -0.482
REMARK  Name = 
REMARK  6 active torsions:
REMARK  status: ('A' for Active; 'I' for Inactive)
REMARK    1  A    between atoms: N_1  and  C_2
REMARK    2  A    between atoms: C_2  and  C_3
REMARK    3  A    between atoms: C_3  and  C_4
REMARK    4  A    between atoms: C_7  and  C_8
REMARK    5  A    between atoms: C_8  and  N_9
REMARK    6  A    between atoms: C_15  and  O_16
REMARK                            x       y       z     vdW  Elec       q    Type
REMARK                         _______ _______ _______ _____ _____    ______ ____
ROOT
ATOM      1  C   UNL     1      43.744   4.597  10.638  0.00  0.00    +0.000 C 
ENDROOT
BRANCH   1   2
ATOM      2  N   UNL     1      44.608   5.238  11.621  0.00  0.00    +0.000 N 
ATOM      3  C   UNL     1      45.398   4.575  12.534  0.00  0.00    +0.000 A 
ATOM      4  C   UNL     1      46.092   5.519  13.262  0.00  0.00    +0.000 A 
ATOM      5  C   UNL     1      45.697   6.799  12.790  0.00  0.00    +0.000 A 
ATOM      6  C   UNL     1      46.045   8.124  13.095  0.00  0.00    +0.000 A 
ATOM      7  C   UNL     1      45.414   9.142  12.378  0.00  0.00    +0.000 A 
ATOM      8  C   UNL     1      44.463   8.797  11.426  0.00  0.00    +0.000 A 
ATOM      9  N   UNL     1      44.084   7.548  11.104  0.00  0.00    +0.000 NA
ATOM     10  C   UNL     1      44.742   6.595  11.797  0.00  0.00    +0.000 A 
BRANCH   8  11
ATOM     11  O   UNL     1      43.833   9.779  10.709  0.00  0.00    +0.000 OA
ATOM     12  H   UNL     1      43.968  10.617  11.167  0.00  0.00    +0.000 HD
ENDBRANCH   8  11
ENDBRANCH   1   2
BRANCH   1  16
ATOM     13  C   UNL     1      46.125   2.279   7.847  0.00  0.00    +0.000 A 
ATOM     14  C   UNL     1      45.322   1.638   8.797  0.00  0.00    +0.000 A 
ATOM     15  C   UNL     1      44.538   2.379   9.690  0.00  0.00    +0.000 A 
ATOM     16  C   UNL     1      44.535   3.780   9.643  0.00  0.00    +0.000 A 
ATOM     17  C   UNL     1      45.316   4.419   8.669  0.00  0.00    +0.000 A 
ATOM     18  C   UNL     1      46.097   3.677   7.777  0.00  0.00    +0.000 A 
BRANCH  13  19
ATOM     19  C   UNL     1      47.039   1.478   6.948  0.00  0.00    +0.000 C 
BRANCH  19  20
ATOM     20  C   UNL     1      48.296   2.239   6.516  0.00  0.00    +0.000 C 
BRANCH  20  21
ATOM     21  N   UNL     1      48.275   2.499   5.074  0.00  0.00    +0.000 NA
ATOM     22  H   UNL     1      48.896   3.279   4.861  0.00  0.00    +0.000 HD
ATOM     23  H   UNL     1      47.340   2.794   4.792  0.00  0.00    +0.000 HD
ENDBRANCH  20  21
ENDBRANCH  19  20
ENDBRANCH  13  19
ENDBRANCH   1  16
TORSDOF 6
ENDMDL
MODEL 3
REMARK VINA RESULT:    -6.558      2.430      6.585
REMARK INTER + INTRA:          -8.957
REMARK INTER:                  -8.600
REMARK INTRA:                  -0.357
REMARK UNBOUND:                -0.482
REMARK  Name = 
REMARK  6 active torsions:
REMARK  status: ('A' for Active; 'I' for Inactive)
REMARK    1  A    between atoms: N_1  and  C_2
REMARK    2  A    between atoms: C_2  and  C_3
REMARK    3  A    between atoms: C_3  and  C_4
REMARK    4  A    between atoms: C_7  and  C_8
REMARK    5  A    between atoms: C_8  and  N_9
REMARK    6  A    between atoms: C_15  and  O_16
REMARK                            x       y       z     vdW  Elec       q    Type
REMARK                         _______ _______ _______ _____ _____    ______ ____
ROOT
ATOM      1  C   UNL     1      44.357   6.456  11.017  0.00  0.00    +0.000 C 
ENDROOT
BRANCH   1   2
ATOM      2  N   UNL     1      44.257   5.014  10.832  0.00  0.00    +0.000 N 
ATOM      3  C   UNL     1      43.562   4.155  11.656  0.00  0.00    +0.000 A 
ATOM      4  C   UNL     1      43.672   2.884  11.135  0.00  0.00    +0.000 A 
ATOM      5  C   UNL     1      44.476   2.966   9.967  0.00  0.00    +0.000 A 
ATOM      6  C   UNL     1      44.926   2.053   9.001  0.00  0.00    +0.000 A 
ATOM      7  C   UNL     1      45.722   2.544   7.965  0.00  0.00    +0.000 A 
ATOM      8  C   UNL     1      46.046   3.895   7.956  0.00  0.00    +0.000 A 
ATOM      9  N   UNL     1      45.653   4.808   8.861  0.00  0.00    +0.000 NA
ATOM     10  C   UNL     1      44.859   4.297   9.826  0.00  0.00    +0.000 A 
BRANCH   8  11
ATOM     11  O   UNL     1      46.824   4.400   6.948  0.00  0.00    +0.000 OA
ATOM     12  H   UNL     1      47.746   4.350   7.229  0.00  0.00    +0.000 HD
ENDBRANCH   8  11
ENDBRANCH   1   2
BRANCH   1  16
ATOM     13  C   UNL     1      47.653   7.530  13.626  0.00  0.00    +0.000 A 
ATOM     14  C   UNL     1      46.619   8.440  13.379  0.00  0.00    +0.000 A 
ATOM     15  C   UNL     1      45.544   8.095  12.551  0.00  0.00    +0.000 A 
ATOM     16  C   UNL     1      45.477   6.825  11.960  0.00  0.00    +0.000 A 
ATOM     17  C   UNL     1      46.499   5.904  12.237  0.00  0.00    +0.000 A 
ATOM     18  C   UNL     1      47.571   6.251  13.064  0.00  0.00    +0.000 A 
BRANCH  13  19
ATOM     19  C   UNL     1      48.857   7.940  14.444  0.00  0.00    +0.000 C 
BRANCH  19  20
ATOM     20  C   UNL     1      49.235   6.929  15.530  0.00  0.00    +0.000 C 
BRANCH  20  21
ATOM     21  N   UNL     1      48.254   6.945  16.618  0.00  0.00    +0.000 NA
ATOM     22  H   UNL     1      48.740   7.019  17.511  0.00  0.00    +0.000 HD
ATOM     23  H   UNL     1      47.751   6.058  16.639  0.00  0.00    +0.000 HD
ENDBRANCH  20  21
ENDBRANCH  19  20
ENDBRANCH  13  19
ENDBRANCH   1  16
TORSDOF 6
ENDMDL
MODEL 4
REMARK VINA RESULT:    -6.342      1.703      1.958
REMARK INTER + INTRA:          -8.678
REMARK INTER:                  -8.397
REMARK INTRA:                  -0.281
REMARK UNBOUND:                -0.482
REMARK  Name = 
REMARK  6 active torsions:
REMARK  status: ('A' for Active; 'I' for Inactive)
REMARK    1  A    between atoms: N_1  and  C_2
REMARK    2  A    between atoms: C_2  and  C_3
REMARK    3  A    between atoms: C_3  and  C_4
REMARK    4  A    between atoms: C_7  and  C_8
REMARK    5  A    between atoms: C_8  and  N_9
REMARK    6  A    between atoms: C_15  and  O_16
REMARK                            x       y       z     vdW  Elec       q    Type
REMARK                         _______ _______ _______ _____ _____    ______ ____
ROOT
ATOM      1  C   UNL     1      44.891   4.742  11.474  0.00  0.00    +0.000 C 
ENDROOT
BRANCH   1   2
ATOM      2  N   UNL     1      45.057   6.186  11.575  0.00  0.00    +0.000 N 
ATOM      3  C   UNL     1      44.099   7.120  11.249  0.00  0.00    +0.000 A 
ATOM      4  C   UNL     1      44.615   8.371  11.514  0.00  0.00    +0.000 A 
ATOM      5  C   UNL     1      45.938   8.195  11.999  0.00  0.00    +0.000 A 
ATOM      6  C   UNL     1      46.954   9.050  12.454  0.00  0.00    +0.000 A 
ATOM      7  C   UNL     1      48.154   8.468  12.866  0.00  0.00    +0.000 A 
ATOM      8  C   UNL     1      48.290   7.088  12.784  0.00  0.00    +0.000 A 
ATOM      9  N   UNL     1      47.355   6.226  12.347  0.00  0.00    +0.000 NA
ATOM     10  C   UNL     1      46.201   6.827  11.989  0.00  0.00    +0.000 A 
BRANCH   8  11
ATOM     11  O   UNL     1      49.458   6.495  13.186  0.00  0.00    +0.000 OA
ATOM     12  H   UNL     1      50.152   7.165  13.173  0.00  0.00    +0.000 HD
ENDBRANCH   8  11
ENDBRANCH   1   2
BRANCH   1  16
ATOM     13  C   UNL     1      45.852   3.284   7.502  0.00  0.00    +0.000 A 
ATOM     14  C   UNL     1      45.149   2.475   8.403  0.00  0.00    +0.000 A 
ATOM     15  C   UNL     1      44.821   2.945   9.681  0.00  0.00    +0.000 A 
ATOM     16  C   UNL     1      45.182   4.240  10.079  0.00  0.00    +0.000 A 
ATOM     17  C   UNL     1      45.857   5.059   9.162  0.00  0.00    +0.000 A 
ATOM     18  C   UNL     1      46.183   4.588   7.886  0.00  0.00    +0.000 A 
BRANCH  13  19
ATOM     19  C   UNL     1      46.285   2.740   6.159  0.00  0.00    +0.000 C 
BRANCH  19  20
ATOM     20  C   UNL     1      47.758   2.327   6.110  0.00  0.00    +0.000 C 
BRANCH  20  21
ATOM     21  N   UNL     1      48.011   1.197   7.008  0.00  0.00    +0.000 NA
ATOM     22  H   UNL     1      47.636   1.408   7.933  0.00  0.00    +0.000 HD
ATOM     23  H   UNL     1      49.016   1.072   7.128  0.00  0.00    +0.000 HD
ENDBRANCH  20  21
ENDBRANCH  19  20
ENDBRANCH  13  19
ENDBRANCH   1  16
TORSDOF 6
ENDMDL
MODEL 5
REMARK VINA RESULT:    -6.187      2.760      5.855
REMARK INTER + INTRA:          -8.478
REMARK INTER:                  -8.287
REMARK INTRA:                  -0.190
REMARK UNBOUND:                -0.482
REMARK  Name = 
REMARK  6 active torsions:
REMARK  status: ('A' for Active; 'I' for Inactive)
REMARK    1  A    between atoms: N_1  and  C_2
REMARK    2  A    between atoms: C_2  and  C_3
REMARK    3  A    between atoms: C_3  and  C_4
REMARK    4  A    between atoms: C_7  and  C_8
REMARK    5  A    between atoms: C_8  and  N_9
REMARK    6  A    between atoms: C_15  and  O_16
REMARK                            x       y       z     vdW  Elec       q    Type
REMARK                         _______ _______ _______ _____ _____    ______ ____
ROOT
ATOM      1  C   UNL     1      44.165   6.349  11.879  0.00  0.00    +0.000 C 
ENDROOT
BRANCH   1   2
ATOM      2  N   UNL     1      44.015   4.933  11.569  0.00  0.00    +0.000 N 
ATOM      3  C   UNL     1      43.342   4.018  12.348  0.00  0.00    +0.000 A 
ATOM      4  C   UNL     1      43.387   2.798  11.707  0.00  0.00    +0.000 A 
ATOM      5  C   UNL     1      44.129   2.970  10.508  0.00  0.00    +0.000 A 
ATOM      6  C   UNL     1      44.500   2.141   9.439  0.00  0.00    +0.000 A 
ATOM      7  C   UNL     1      45.253   2.708   8.409  0.00  0.00    +0.000 A 
ATOM      8  C   UNL     1      45.614   4.046   8.506  0.00  0.00    +0.000 A 
ATOM      9  N   UNL     1      45.296   4.880   9.511  0.00  0.00    +0.000 NA
ATOM     10  C   UNL     1      44.541   4.300  10.468  0.00  0.00    +0.000 A 
BRANCH   8  11
ATOM     11  O   UNL     1      46.351   4.625   7.506  0.00  0.00    +0.000 OA
ATOM     12  H   UNL     1      45.783   5.251   7.041  0.00  0.00    +0.000 HD
ENDBRANCH   8  11
ENDBRANCH   1   2
BRANCH   1  16
ATOM     13  C   UNL     1      48.329   7.315  12.627  0.00  0.00    +0.000 A 
ATOM     14  C   UNL     1      47.461   8.279  12.100  0.00  0.00    +0.000 A 
ATOM     15  C   UNL     1      46.112   7.979  11.871  0.00  0.00    +0.000 A 
ATOM     16  C   UNL     1      45.602   6.709  12.175  0.00  0.00    +0.000 A 
ATOM     17  C   UNL     1      46.467   5.757  12.734  0.00  0.00    +0.000 A 
ATOM     18  C   UNL     1      47.813   6.058  12.963  0.00  0.00    +0.000 A 
BRANCH  13  19
ATOM     19  C   UNL     1      49.803   7.613  12.784  0.00  0.00    +0.000 C 
BRANCH  19  20
ATOM     20  C   UNL     1      50.503   7.961  11.468  0.00  0.00    +0.000 C 
BRANCH  20  21
ATOM     21  N   UNL     1      51.862   7.413  11.443  0.00  0.00    +0.000 NA
ATOM     22  H   UNL     1      52.450   7.992  10.845  0.00  0.00    +0.000 HD
ATOM     23  H   UNL     1      51.850   6.485  11.021  0.00  0.00    +0.000 HD
ENDBRANCH  20  21
ENDBRANCH  19  20
ENDBRANCH  13  19
ENDBRANCH   1  16
TORSDOF 6
ENDMDL
MODEL 6
REMARK VINA RESULT:    -6.084      3.146      4.248
REMARK INTER + INTRA:          -8.345
REMARK INTER:                  -7.837
REMARK INTRA:                  -0.508
REMARK UNBOUND:                -0.482
REMARK  Name = 
REMARK  6 active torsions:
REMARK  status: ('A' for Active; 'I' for Inactive)
REMARK    1  A    between atoms: N_1  and  C_2
REMARK    2  A    between atoms: C_2  and  C_3
REMARK    3  A    between atoms: C_3  and  C_4
REMARK    4  A    between atoms: C_7  and  C_8
REMARK    5  A    between atoms: C_8  and  N_9
REMARK    6  A    between atoms: C_15  and  O_16
REMARK                            x       y       z     vdW  Elec       q    Type
REMARK                         _______ _______ _______ _____ _____    ______ ____
ROOT
ATOM      1  C   UNL     1      45.715   6.389  13.016  0.00  0.00    +0.000 C 
ENDROOT
BRANCH   1   2
ATOM      2  N   UNL     1      46.897   7.152  12.635  0.00  0.00    +0.000 N 
ATOM      3  C   UNL     1      48.168   6.637  12.511  0.00  0.00    +0.000 A 
ATOM      4  C   UNL     1      49.003   7.654  12.100  0.00  0.00    +0.000 A 
ATOM      5  C   UNL     1      48.219   8.833  11.989  0.00  0.00    +0.000 A 
ATOM      6  C   UNL     1      48.465  10.161  11.605  0.00  0.00    +0.000 A 
ATOM      7  C   UNL     1      47.390  11.051  11.625  0.00  0.00    +0.000 A 
ATOM      8  C   UNL     1      46.148  10.590  12.043  0.00  0.00    +0.000 A 
ATOM      9  N   UNL     1      45.862   9.335  12.432  0.00  0.00    +0.000 NA
ATOM     10  C   UNL     1      46.920   8.500  12.367  0.00  0.00    +0.000 A 
BRANCH   8  11
ATOM     11  O   UNL     1      45.079  11.445  12.069  0.00  0.00    +0.000 OA
ATOM     12  H   UNL     1      45.248  12.154  11.436  0.00  0.00    +0.000 HD
ENDBRANCH   8  11
ENDBRANCH   1   2
BRANCH   1  16
ATOM     13  C   UNL     1      44.933   3.276  10.096  0.00  0.00    +0.000 A 
ATOM     14  C   UNL     1      45.001   2.968  11.460  0.00  0.00    +0.000 A 
ATOM     15  C   UNL     1      45.236   3.970  12.409  0.00  0.00    +0.000 A 
ATOM     16  C   UNL     1      45.400   5.305  12.012  0.00  0.00    +0.000 A 
ATOM     17  C   UNL     1      45.299   5.615  10.648  0.00  0.00    +0.000 A 
ATOM     18  C   UNL     1      45.062   4.613   9.702  0.00  0.00    +0.000 A 
BRANCH  13  19
ATOM     19  C   UNL     1      44.772   2.179   9.068  0.00  0.00    +0.000 C 
BRANCH  19  20
ATOM     20  C   UNL     1      45.992   2.004   8.160  0.00  0.00    +0.000 C 
BRANCH  20  21
ATOM     21  N   UNL     1      46.386   0.594   8.087  0.00  0.00    +0.000 NA
ATOM     22  H   UNL     1      47.014   0.459   7.295  0.00  0.00    +0.000 HD
ATOM     23  H   UNL     1      45.566   0.018   7.904  0.00  0.00    +0.000 HD
ENDBRANCH  20  21
ENDBRANCH  19  20
ENDBRANCH  13  19
ENDBRANCH   1  16
TORSDOF 6
ENDMDL
MODEL 7
REMARK VINA RESULT:    -5.858      3.994      7.764
REMARK INTER + INTRA:          -8.053
REMARK INTER:                  -7.537
REMARK INTRA:                  -0.516
REMARK UNBOUND:                -0.482
REMARK  Name = 
REMARK  6 active torsions:
REMARK  status: ('A' for Active; 'I' for Inactive)
REMARK    1  A    between atoms: N_1  and  C_2
REMARK    2  A    between atoms: C_2  and  C_3
REMARK    3  A    between atoms: C_3  and  C_4
REMARK    4  A    between atoms: C_7  and  C_8
REMARK    5  A    between atoms: C_8  and  N_9
REMARK    6  A    between atoms: C_15  and  O_16
REMARK                            x       y       z     vdW  Elec       q    Type
REMARK                         _______ _______ _______ _____ _____    ______ ____
ROOT
ATOM      1  C   UNL     1      47.668   5.031  13.738  0.00  0.00    +0.000 C 
ENDROOT
BRANCH   1   2
ATOM      2  N   UNL     1      46.497   5.720  13.211  0.00  0.00    +0.000 N 
ATOM      3  C   UNL     1      46.400   7.080  13.010  0.00  0.00    +0.000 A 
ATOM      4  C   UNL     1      45.161   7.343  12.468  0.00  0.00    +0.000 A 
ATOM      5  C   UNL     1      44.471   6.107  12.354  0.00  0.00    +0.000 A 
ATOM      6  C   UNL     1      43.215   5.708  11.870  0.00  0.00    +0.000 A 
ATOM      7  C   UNL     1      42.900   4.350  11.928  0.00  0.00    +0.000 A 
ATOM      8  C   UNL     1      43.826   3.473  12.479  0.00  0.00    +0.000 A 
ATOM      9  N   UNL     1      45.034   3.803  12.966  0.00  0.00    +0.000 NA
ATOM     10  C   UNL     1      45.311   5.119  12.861  0.00  0.00    +0.000 A 
BRANCH   8  11
ATOM     11  O   UNL     1      43.538   2.135  12.544  0.00  0.00    +0.000 OA
ATOM     12  H   UNL     1      44.085   1.746  13.237  0.00  0.00    +0.000 HD
ENDBRANCH   8  11
ENDBRANCH   1   2
BRANCH   1  16
ATOM     13  C   UNL     1      47.878   5.511  18.045  0.00  0.00    +0.000 A 
ATOM     14  C   UNL     1      47.165   4.444  17.484  0.00  0.00    +0.000 A 
ATOM     15  C   UNL     1      47.107   4.274  16.095  0.00  0.00    +0.000 A 
ATOM     16  C   UNL     1      47.770   5.164  15.239  0.00  0.00    +0.000 A 
ATOM     17  C   UNL     1      48.510   6.212  15.806  0.00  0.00    +0.000 A 
ATOM     18  C   UNL     1      48.567   6.380  17.192  0.00  0.00    +0.000 A 
BRANCH  13  19
ATOM     19  C   UNL     1      47.860   5.745  19.539  0.00  0.00    +0.000 C 
BRANCH  19  20
ATOM     20  C   UNL     1      48.961   4.993  20.292  0.00  0.00    +0.000 C 
BRANCH  20  21
ATOM     21  N   UNL     1      48.490   3.671  20.714  0.00  0.00    +0.000 NA
ATOM     22  H   UNL     1      48.200   3.137  19.896  0.00  0.00    +0.000 HD
ATOM     23  H   UNL     1      47.660   3.773  21.298  0.00  0.00    +0.000 HD
ENDBRANCH  20  21
ENDBRANCH  19  20
ENDBRANCH  13  19
ENDBRANCH   1  16
TORSDOF 6
ENDMDL
MODEL 8
REMARK VINA RESULT:    -5.736      4.579      7.938
REMARK INTER + INTRA:          -7.894
REMARK INTER:                  -7.669
REMARK INTRA:                  -0.226
REMARK UNBOUND:                -0.482
REMARK  Name = 
REMARK  6 active torsions:
REMARK  status: ('A' for Active; 'I' for Inactive)
REMARK    1  A    between atoms: N_1  and  C_2
REMARK    2  A    between atoms: C_2  and  C_3
REMARK    3  A    between atoms: C_3  and  C_4
REMARK    4  A    between atoms: C_7  and  C_8
REMARK    5  A    between atoms: C_8  and  N_9
REMARK    6  A    between atoms: C_15  and  O_16
REMARK                            x       y       z     vdW  Elec       q    Type
REMARK                         _______ _______ _______ _____ _____    ______ ____
ROOT
ATOM      1  C   UNL     1      47.563   4.241  16.592  0.00  0.00    +0.000 C 
ENDROOT
BRANCH   1   2
ATOM      2  N   UNL     1      47.601   5.114  15.426  0.00  0.00    +0.000 N 
ATOM      3  C   UNL     1      48.347   6.267  15.322  0.00  0.00    +0.000 A 
ATOM      4  C   UNL     1      48.148   6.791  14.062  0.00  0.00    +0.000 A 
ATOM      5  C   UNL     1      47.235   5.941  13.383  0.00  0.00    +0.000 A 
ATOM      6  C   UNL     1      46.665   5.914  12.101  0.00  0.00    +0.000 A 
ATOM      7  C   UNL     1      45.785   4.871  11.805  0.00  0.00    +0.000 A 
ATOM      8  C   UNL     1      45.503   3.936  12.792  0.00  0.00    +0.000 A 
ATOM      9  N   UNL     1      46.011   3.921  14.037  0.00  0.00    +0.000 NA
ATOM     10  C   UNL     1      46.880   4.927  14.270  0.00  0.00    +0.000 A 
BRANCH   8  11
ATOM     11  O   UNL     1      44.645   2.902  12.523  0.00  0.00    +0.000 OA
ATOM     12  H   UNL     1      43.785   3.122  12.902  0.00  0.00    +0.000 HD
ENDBRANCH   8  11
ENDBRANCH   1   2
BRANCH   1  16
ATOM     13  C   UNL     1      51.442   2.596  17.630  0.00  0.00    +0.000 A 
ATOM     14  C   UNL     1      50.488   1.806  16.978  0.00  0.00    +0.000 A 
ATOM     15  C   UNL     1      49.241   2.335  16.626  0.00  0.00    +0.000 A 
ATOM     16  C   UNL     1      48.926   3.670  16.910  0.00  0.00    +0.000 A 
ATOM     17  C   UNL     1      49.896   4.468  17.535  0.00  0.00    +0.000 A 
ATOM     18  C   UNL     1      51.141   3.939  17.885  0.00  0.00    +0.000 A 
BRANCH  13  19
ATOM     19  C   UNL     1      52.750   1.995  18.093  0.00  0.00    +0.000 C 
BRANCH  19  20
ATOM     20  C   UNL     1      53.083   0.659  17.424  0.00  0.00    +0.000 C 
BRANCH  20  21
ATOM     21  N   UNL     1      53.160  -0.414  18.419  0.00  0.00    +0.000 NA
ATOM     22  H   UNL     1      54.138  -0.636  18.603  0.00  0.00    +0.000 HD
ATOM     23  H   UNL     1      52.741  -1.263  18.040  0.00  0.00    +0.000 HD
ENDBRANCH  20  21
ENDBRANCH  19  20
ENDBRANCH  13  19
ENDBRANCH   1  16
TORSDOF 6
ENDMDL
MODEL 9
REMARK VINA RESULT:    -5.549      3.561      5.388
REMARK INTER + INTRA:          -7.654
REMARK INTER:                  -7.119
REMARK INTRA:                  -0.534
REMARK UNBOUND:                -0.482
REMARK  Name = 
REMARK  6 active torsions:
REMARK  status: ('A' for Active; 'I' for Inactive)
REMARK    1  A    between atoms: N_1  and  C_2
REMARK    2  A    between atoms: C_2  and  C_3
REMARK    3  A    between atoms: C_3  and  C_4
REMARK    4  A    between atoms: C_7  and  C_8
REMARK    5  A    between atoms: C_8  and  N_9
REMARK    6  A    between atoms: C_15  and  O_16
REMARK                            x       y       z     vdW  Elec       q    Type
REMARK                         _______ _______ _______ _____ _____    ______ ____
ROOT
ATOM      1  C   UNL     1      48.706   6.715  13.163  0.00  0.00    +0.000 C 
ENDROOT
BRANCH   1   2
ATOM      2  N   UNL     1      48.635   7.486  14.398  0.00  0.00    +0.000 N 
ATOM      3  C   UNL     1      48.255   8.807  14.487  0.00  0.00    +0.000 A 
ATOM      4  C   UNL     1      48.277   9.167  15.818  0.00  0.00    +0.000 A 
ATOM      5  C   UNL     1      48.704   8.036  16.562  0.00  0.00    +0.000 A 
ATOM      6  C   UNL     1      48.905   7.756  17.923  0.00  0.00    +0.000 A 
ATOM      7  C   UNL     1      49.341   6.475  18.264  0.00  0.00    +0.000 A 
ATOM      8  C   UNL     1      49.576   5.557  17.247  0.00  0.00    +0.000 A 
ATOM      9  N   UNL     1      49.412   5.776  15.931  0.00  0.00    +0.000 NA
ATOM     10  C   UNL     1      48.959   7.015  15.648  0.00  0.00    +0.000 A 
BRANCH   8  11
ATOM     11  O   UNL     1      50.002   4.293  17.559  0.00  0.00    +0.000 OA
ATOM     12  H   UNL     1      50.342   4.307  18.461  0.00  0.00    +0.000 HD
ENDBRANCH   8  11
ENDBRANCH   1   2
BRANCH   1  16
ATOM     13  C   UNL     1      44.873   5.130  11.890  0.00  0.00    +0.000 A 
ATOM     14  C   UNL     1      45.443   4.721  13.102  0.00  0.00    +0.000 A 
ATOM     15  C   UNL     1      46.671   5.240  13.527  0.00  0.00    +0.000 A 
ATOM     16  C   UNL     1      47.352   6.189  12.751  0.00  0.00    +0.000 A 
ATOM     17  C   UNL     1      46.762   6.621  11.553  0.00  0.00    +0.000 A 
ATOM     18  C   UNL     1      45.535   6.102  11.131  0.00  0.00    +0.000 A 
BRANCH  13  19
ATOM     19  C   UNL     1      43.594   4.497  11.391  0.00  0.00    +0.000 C 
BRANCH  19  20
ATOM     20  C   UNL     1      43.777   3.070  10.868  0.00  0.00    +0.000 C 
BRANCH  20  21
ATOM     21  N   UNL     1      43.023   2.117  11.685  0.00  0.00    +0.000 NA
ATOM     22  H   UNL     1      42.077   2.469  11.831  0.00  0.00    +0.000 HD
ATOM     23  H   UNL     1      43.447   2.047  12.610  0.00  0.00    +0.000 HD
ENDBRANCH  20  21
ENDBRANCH  19  20
ENDBRANCH  13  19
ENDBRANCH   1  16
TORSDOF 6
ENDMDL
