MODEL 1
REMARK VINA RESULT:    -8.450      0.000      0.000
REMARK INTER + INTRA:         -11.025
REMARK INTER:                 -10.426
REMARK INTRA:                  -0.599
REMARK UNBOUND:                -0.599
REMARK  Name = 
REMARK  6 active torsions:
REMARK  status: ('A' for Active; 'I' for Inactive)
REMARK    1  A    between atoms: C_1  and  C_2
REMARK    2  A    between atoms: C_5  and  C_6
REMARK    3  A    between atoms: C_6  and  C_7
REMARK    4  A    between atoms: C_6  and  N_8
REMARK    5  A    between atoms: N_8  and  C_9
REMARK    6  A    between atoms: C_12  and  C_13
REMARK                            x       y       z     vdW  Elec       q    Type
REMARK                         _______ _______ _______ _____ _____    ______ ____
ROOT
ATOM      1  N   UNL     1      43.757   4.746   9.935  0.00  0.00    +0.000 N 
ATOM      2  H   UNL     1      43.915   5.716   9.660  0.00  0.00    +0.000 HD
ENDROOT
BRANCH   1   3
ATOM      3  C   UNL     1      44.675   3.914   9.275  0.00  0.00    +0.000 A 
ATOM      4  C   UNL     1      44.664   2.519   9.343  0.00  0.00    +0.000 A 
ATOM      5  C   UNL     1      45.554   1.740   8.591  0.00  0.00    +0.000 A 
ATOM      6  C   UNL     1      46.468   2.342   7.724  0.00  0.00    +0.000 A 
ATOM      7  C   UNL     1      46.482   3.734   7.620  0.00  0.00    +0.000 A 
ATOM      8  C   UNL     1      45.582   4.503   8.374  0.00  0.00    +0.000 A 
BRANCH   6   9
ATOM      9  C   UNL     1      47.394   1.464   6.959  0.00  0.00    +0.000 C 
ATOM     10  N   UNL     1      48.474   2.050   6.361  0.00  0.00    +0.000 N 
ATOM     11  O   UNL     1      47.184   0.264   6.828  0.00  0.00    +0.000 OA
ATOM     12  H   UNL     1      48.547   3.047   6.227  0.00  0.00    +0.000 HD
ATOM     13  H   UNL     1      49.019   1.453   5.751  0.00  0.00    +0.000 HD
ENDBRANCH   6   9
ENDBRANCH   1   3
BRANCH   1  14
ATOM     14  C   UNL     1      43.566   4.656  11.398  0.00  0.00    +0.000 C 
ATOM     15  C   UNL     1      42.404   5.539  11.869  0.00  0.00    +0.000 C 
BRANCH  14  20
ATOM     16  C   UNL     1      48.216   6.273  14.454  0.00  0.00    +0.000 C 
ATOM     17  C   UNL     1      47.056   5.876  13.598  0.00  0.00    +0.000 A 
ATOM     18  C   UNL     1      46.653   6.634  12.500  0.00  0.00    +0.000 A 
ATOM     19  C   UNL     1      45.544   6.236  11.754  0.00  0.00    +0.000 A 
ATOM     20  C   UNL     1      44.844   5.087  12.131  0.00  0.00    +0.000 A 
ATOM     21  N   UNL     1      45.236   4.327  13.185  0.00  0.00    +0.000 NA
ATOM     22  C   UNL     1      46.319   4.734  13.887  0.00  0.00    +0.000 A 
ENDBRANCH  14  20
ENDBRANCH   1  14
TORSDOF 4
ENDMDL
MODEL 2
REMARK VINA RESULT:    -8.109      1.190      1.987
REMARK INTER + INTRA:         -10.604
REMARK INTER:                  -9.948
REMARK INTRA:                  -0.655
REMARK UNBOUND:                -0.599
REMARK  Name = 
REMARK  6 active torsions:
REMARK  status: ('A' for Active; 'I' for Inactive)
REMARK    1  A    between atoms: C_1  and  C_2
REMARK    2  A    between atoms: C_5  and  C_6
REMARK    3  A    between atoms: C_6  and  C_7
REMARK    4  A    between atoms: C_6  and  N_8
REMARK    5  A    between atoms: N_8  and  C_9
REMARK    6  A    between atoms: C_12  and  C_13
REMARK                            x       y       z     vdW  Elec       q    Type
REMARK                         _______ _______ _______ _____ _____    ______ ____
ROOT
ATOM      1  N   UNL     1      43.711   4.814  10.029  0.00  0.00    +0.000 N 
ATOM      2  H   UNL     1      43.622   5.735   9.599  0.00  0.00    +0.000 HD
ENDROOT
BRANCH   1   3
ATOM      3  C   UNL     1      44.554   4.009   9.249  0.00  0.00    +0.000 A 
ATOM      4  C   UNL     1      45.526   4.502   8.374  0.00  0.00    +0.000 A 
ATOM      5  C   UNL     1      46.398   3.646   7.686  0.00  0.00    +0.000 A 
ATOM      6  C   UNL     1      46.335   2.265   7.878  0.00  0.00    +0.000 A 
ATOM      7  C   UNL     1      45.389   1.750   8.765  0.00  0.00    +0.000 A 
ATOM      8  C   UNL     1      44.526   2.617   9.453  0.00  0.00    +0.000 A 
BRANCH   6   9
ATOM      9  C   UNL     1      47.280   1.407   7.114  0.00  0.00    +0.000 C 
ATOM     10  N   UNL     1      48.369   2.010   6.548  0.00  0.00    +0.000 N 
ATOM     11  O   UNL     1      47.080   0.209   6.954  0.00  0.00    +0.000 OA
ATOM     12  H   UNL     1      48.439   3.010   6.436  0.00  0.00    +0.000 HD
ATOM     13  H   UNL     1      48.929   1.429   5.937  0.00  0.00    +0.000 HD
ENDBRANCH   6   9
ENDBRANCH   1   3
BRANCH   1  14
ATOM     14  C   UNL     1      43.926   4.952  11.486  0.00  0.00    +0.000 C 
ATOM     15  C   UNL     1      42.631   5.339  12.211  0.00  0.00    +0.000 C 
BRANCH  14  20
ATOM     16  C   UNL     1      47.864   9.133  12.257  0.00  0.00    +0.000 C 
ATOM     17  C   UNL     1      46.881   8.014  12.120  0.00  0.00    +0.000 A 
ATOM     18  C   UNL     1      47.260   6.678  12.239  0.00  0.00    +0.000 A 
ATOM     19  C   UNL     1      46.308   5.671  12.070  0.00  0.00    +0.000 A 
ATOM     20  C   UNL     1      44.990   6.021  11.769  0.00  0.00    +0.000 A 
ATOM     21  N   UNL     1      44.601   7.318  11.670  0.00  0.00    +0.000 NA
ATOM     22  C   UNL     1      45.544   8.273  11.844  0.00  0.00    +0.000 A 
ENDBRANCH  14  20
ENDBRANCH   1  14
TORSDOF 4
ENDMDL
MODEL 3
REMARK VINA RESULT:    -7.275      2.747      6.160
REMARK INTER + INTRA:          -9.575
REMARK INTER:                  -9.645
REMARK INTRA:                   0.070
REMARK UNBOUND:                -0.599
REMARK  Name = 
REMARK  6 active torsions:
REMARK  status: ('A' for Active; 'I' for Inactive)
REMARK    1  A    between atoms: C_1  and  C_2
REMARK    2  A    between atoms: C_5  and  C_6
REMARK    3  A    between atoms: C_6  and  C_7
REMARK    4  A    between atoms: C_6  and  N_8
REMARK    5  A    between atoms: N_8  and  C_9
REMARK    6  A    between atoms: C_12  and  C_13
REMARK                            x       y       z     vdW  Elec       q    Type
REMARK                         _______ _______ _______ _____ _____    ______ ____
ROOT
ATOM      1  N   UNL     1      44.091   5.390  10.446  0.00  0.00    +0.000 N 
ATOM      2  H   UNL     1      43.231   5.895  10.662  0.00  0.00    +0.000 HD
ENDROOT
BRANCH   1   3
ATOM      3  C   UNL     1      45.039   5.618  11.455  0.00  0.00    +0.000 A 
ATOM      4  C   UNL     1      45.004   5.020  12.717  0.00  0.00    +0.000 A 
ATOM      5  C   UNL     1      46.029   5.221  13.653  0.00  0.00    +0.000 A 
ATOM      6  C   UNL     1      47.135   6.012  13.337  0.00  0.00    +0.000 A 
ATOM      7  C   UNL     1      47.204   6.600  12.073  0.00  0.00    +0.000 A 
ATOM      8  C   UNL     1      46.175   6.387  11.142  0.00  0.00    +0.000 A 
BRANCH   6   9
ATOM      9  C   UNL     1      48.186   6.196  14.374  0.00  0.00    +0.000 C 
ATOM     10  N   UNL     1      47.860   5.891  15.667  0.00  0.00    +0.000 N 
ATOM     11  O   UNL     1      49.292   6.643  14.100  0.00  0.00    +0.000 OA
ATOM     12  H   UNL     1      46.907   5.769  15.973  0.00  0.00    +0.000 HD
ATOM     13  H   UNL     1      48.550   6.137  16.366  0.00  0.00    +0.000 HD
ENDBRANCH   6   9
ENDBRANCH   1   3
BRANCH   1  14
ATOM     14  C   UNL     1      43.775   4.017   9.996  0.00  0.00    +0.000 C 
ATOM     15  C   UNL     1      43.624   3.057  11.183  0.00  0.00    +0.000 C 
BRANCH  14  20
ATOM     16  C   UNL     1      47.781   2.163   6.242  0.00  0.00    +0.000 C 
ATOM     17  C   UNL     1      46.781   2.594   7.267  0.00  0.00    +0.000 A 
ATOM     18  C   UNL     1      46.204   1.695   8.163  0.00  0.00    +0.000 A 
ATOM     19  C   UNL     1      45.253   2.144   9.078  0.00  0.00    +0.000 A 
ATOM     20  C   UNL     1      44.881   3.490   9.071  0.00  0.00    +0.000 A 
ATOM     21  N   UNL     1      45.447   4.383   8.219  0.00  0.00    +0.000 NA
ATOM     22  C   UNL     1      46.372   3.920   7.346  0.00  0.00    +0.000 A 
ENDBRANCH  14  20
ENDBRANCH   1  14
TORSDOF 4
ENDMDL
MODEL 4
REMARK VINA RESULT:    -6.814      3.391      6.585
REMARK INTER + INTRA:          -9.006
REMARK INTER:                  -8.465
REMARK INTRA:                  -0.541
REMARK UNBOUND:                -0.599
REMARK  Name = 
REMARK  6 active torsions:
REMARK  status: ('A' for Active; 'I' for Inactive)
REMARK    1  A    between atoms: C_1  and  C_2
REMARK    2  A    between atoms: C_5  and  C_6
REMARK    3  A    between atoms: C_6  and  C_7
REMARK    4  A    between atoms: C_6  and  N_8
REMARK    5  A    between atoms: N_8  and  C_9
REMARK    6  A    between atoms: C_12  and  C_13
REMARK                            x       y       z     vdW  Elec       q    Type
REMARK                         _______ _______ _______ _____ _____    ______ ____
ROOT
ATOM      1  N   UNL     1      45.159   4.506  11.850  0.00  0.00    +0.000 N 
ATOM      2  H   UNL     1      46.023   3.963  11.854  0.00  0.00    +0.000 HD
ENDROOT
BRANCH   1   3
ATOM      3  C   UNL     1      45.463   5.875  11.844  0.00  0.00    +0.000 A 
ATOM      4  C   UNL     1      44.548   6.883  11.527  0.00  0.00    +0.000 A 
ATOM      5  C   UNL     1      44.888   8.240  11.623  0.00  0.00    +0.000 A 
ATOM      6  C   UNL     1      46.154   8.626  12.068  0.00  0.00    +0.000 A 
ATOM      7  C   UNL     1      47.077   7.637  12.414  0.00  0.00    +0.000 A 
ATOM      8  C   UNL     1      46.723   6.283  12.319  0.00  0.00    +0.000 A 
BRANCH   6   9
ATOM      9  C   UNL     1      46.460  10.080  12.141  0.00  0.00    +0.000 C 
ATOM     10  N   UNL     1      45.405  10.945  12.235  0.00  0.00    +0.000 N 
ATOM     11  O   UNL     1      47.607  10.502  12.077  0.00  0.00    +0.000 OA
ATOM     12  H   UNL     1      44.456  10.669  12.035  0.00  0.00    +0.000 HD
ATOM     13  H   UNL     1      45.633  11.929  12.163  0.00  0.00    +0.000 HD
ENDBRANCH   6   9
ENDBRANCH   1   3
BRANCH   1  14
ATOM     14  C   UNL     1      44.204   3.934  10.876  0.00  0.00    +0.000 C 
ATOM     15  C   UNL     1      43.433   2.750  11.473  0.00  0.00    +0.000 C 
BRANCH  14  20
ATOM     16  C   UNL     1      47.212   1.972   6.329  0.00  0.00    +0.000 C 
ATOM     17  C   UNL     1      46.399   2.530   7.453  0.00  0.00    +0.000 A 
ATOM     18  C   UNL     1      46.165   3.898   7.589  0.00  0.00    +0.000 A 
ATOM     19  C   UNL     1      45.426   4.369   8.674  0.00  0.00    +0.000 A 
ATOM     20  C   UNL     1      44.944   3.460   9.618  0.00  0.00    +0.000 A 
ATOM     21  N   UNL     1      45.146   2.124   9.490  0.00  0.00    +0.000 NA
ATOM     22  C   UNL     1      45.861   1.695   8.424  0.00  0.00    +0.000 A 
ENDBRANCH  14  20
ENDBRANCH   1  14
TORSDOF 4
ENDMDL
MODEL 5
REMARK VINA RESULT:    -6.789      3.306      6.515
REMARK INTER + INTRA:          -8.976
REMARK INTER:                  -8.362
REMARK INTRA:                  -0.613
REMARK UNBOUND:                -0.599
REMARK  Name = 
REMARK  6 active torsions:
REMARK  status: ('A' for Active; 'I' for Inactive)
REMARK    1  A    between atoms: C_1  and  C_2
REMARK    2  A    between atoms: C_5  and  C_6
REMARK    3  A    between atoms: C_6  and  C_7
REMARK    4  A    between atoms: C_6  and  N_8
REMARK    5  A    between atoms: N_8  and  C_9
REMARK    6  A    between atoms: C_12  and  C_13
REMARK                            x       y       z     vdW  Elec       q    Type
REMARK                         _______ _______ _______ _____ _____    ______ ____
ROOT
ATOM      1  N   UNL     1      45.162   4.271  11.964  0.00  0.00    +0.000 N 
ATOM      2  H   UNL     1      46.009   3.702  11.924  0.00  0.00    +0.000 HD
ENDROOT
BRANCH   1   3
ATOM      3  C   UNL     1      45.509   5.623  12.099  0.00  0.00    +0.000 A 
ATOM      4  C   UNL     1      46.790   6.079  12.422  0.00  0.00    +0.000 A 
ATOM      5  C   UNL     1      47.096   7.447  12.456  0.00  0.00    +0.000 A 
ATOM      6  C   UNL     1      46.126   8.400  12.140  0.00  0.00    +0.000 A 
ATOM      7  C   UNL     1      44.846   7.968  11.790  0.00  0.00    +0.000 A 
ATOM      8  C   UNL     1      44.553   6.596  11.754  0.00  0.00    +0.000 A 
BRANCH   6   9
ATOM      9  C   UNL     1      46.507   9.837  12.203  0.00  0.00    +0.000 C 
ATOM     10  N   UNL     1      45.498  10.757  12.280  0.00  0.00    +0.000 N 
ATOM     11  O   UNL     1      47.676  10.198  12.147  0.00  0.00    +0.000 OA
ATOM     12  H   UNL     1      44.538  10.530  12.073  0.00  0.00    +0.000 HD
ATOM     13  H   UNL     1      45.779  11.727  12.201  0.00  0.00    +0.000 HD
ENDBRANCH   6   9
ENDBRANCH   1   3
BRANCH   1  14
ATOM     14  C   UNL     1      44.203   3.831  10.928  0.00  0.00    +0.000 C 
ATOM     15  C   UNL     1      43.352   2.652  11.413  0.00  0.00    +0.000 C 
BRANCH  14  20
ATOM     16  C   UNL     1      47.241   2.071   6.317  0.00  0.00    +0.000 C 
ATOM     17  C   UNL     1      46.419   2.578   7.459  0.00  0.00    +0.000 A 
ATOM     18  C   UNL     1      46.158   3.936   7.637  0.00  0.00    +0.000 A 
ATOM     19  C   UNL     1      45.412   4.358   8.738  0.00  0.00    +0.000 A 
ATOM     20  C   UNL     1      44.951   3.411   9.654  0.00  0.00    +0.000 A 
ATOM     21  N   UNL     1      45.180   2.083   9.484  0.00  0.00    +0.000 NA
ATOM     22  C   UNL     1      45.901   1.702   8.404  0.00  0.00    +0.000 A 
ENDBRANCH  14  20
ENDBRANCH   1  14
TORSDOF 4
ENDMDL
MODEL 6
REMARK VINA RESULT:    -5.846      3.960      6.307
REMARK INTER + INTRA:          -7.812
REMARK INTER:                  -7.332
REMARK INTRA:                  -0.480
REMARK UNBOUND:                -0.599
REMARK  Name = 
REMARK  6 active torsions:
REMARK  status: ('A' for Active; 'I' for Inactive)
REMARK    1  A    between atoms: C_1  and  C_2
REMARK    2  A    between atoms: C_5  and  C_6
REMARK    3  A    between atoms: C_6  and  C_7
REMARK    4  A    between atoms: C_6  and  N_8
REMARK    5  A    between atoms: N_8  and  C_9
REMARK    6  A    between atoms: C_12  and  C_13
REMARK                            x       y       z     vdW  Elec       q    Type
REMARK                         _______ _______ _______ _____ _____    ______ ____
ROOT
ATOM      1  N   UNL     1      47.850   5.523  15.606  0.00  0.00    +0.000 N 
ATOM      2  H   UNL     1      48.844   5.699  15.455  0.00  0.00    +0.000 HD
ENDROOT
BRANCH   1   3
ATOM      3  C   UNL     1      47.202   5.385  14.369  0.00  0.00    +0.000 A 
ATOM      4  C   UNL     1      46.361   4.320  14.036  0.00  0.00    +0.000 A 
ATOM      5  C   UNL     1      45.673   4.283  12.814  0.00  0.00    +0.000 A 
ATOM      6  C   UNL     1      45.790   5.332  11.900  0.00  0.00    +0.000 A 
ATOM      7  C   UNL     1      46.605   6.418  12.222  0.00  0.00    +0.000 A 
ATOM      8  C   UNL     1      47.284   6.447  13.450  0.00  0.00    +0.000 A 
BRANCH   6   9
ATOM      9  C   UNL     1      45.043   5.231  10.618  0.00  0.00    +0.000 C 
ATOM     10  N   UNL     1      45.725   5.501   9.464  0.00  0.00    +0.000 N 
ATOM     11  O   UNL     1      43.849   4.958  10.585  0.00  0.00    +0.000 OA
ATOM     12  H   UNL     1      46.618   5.970   9.458  0.00  0.00    +0.000 HD
ATOM     13  H   UNL     1      45.168   5.542   8.620  0.00  0.00    +0.000 HD
ENDBRANCH   6   9
ENDBRANCH   1   3
BRANCH   1  14
ATOM     14  C   UNL     1      47.669   4.518  16.676  0.00  0.00    +0.000 C 
ATOM     15  C   UNL     1      47.225   5.169  17.991  0.00  0.00    +0.000 C 
BRANCH  14  20
ATOM     16  C   UNL     1      52.432   1.394  17.738  0.00  0.00    +0.000 C 
ATOM     17  C   UNL     1      51.251   2.262  17.445  0.00  0.00    +0.000 A 
ATOM     18  C   UNL     1      51.193   3.594  17.853  0.00  0.00    +0.000 A 
ATOM     19  C   UNL     1      50.053   4.352  17.582  0.00  0.00    +0.000 A 
ATOM     20  C   UNL     1      48.979   3.755  16.918  0.00  0.00    +0.000 A 
ATOM     21  N   UNL     1      49.027   2.465  16.497  0.00  0.00    +0.000 NA
ATOM     22  C   UNL     1      50.148   1.757  16.768  0.00  0.00    +0.000 A 
ENDBRANCH  14  20
ENDBRANCH   1  14
TORSDOF 4
ENDMDL
MODEL 7
REMARK VINA RESULT:    -5.628      2.964      4.950
REMARK INTER + INTRA:          -7.544
REMARK INTER:                  -7.095
REMARK INTRA:                  -0.449
REMARK UNBOUND:                -0.599
REMARK  Name = 
REMARK  6 active torsions:
REMARK  status: ('A' for Active; 'I' for Inactive)
REMARK    1  A    between atoms: C_1  and  C_2
REMARK    2  A    between atoms: C_5  and  C_6
REMARK    3  A    between atoms: C_6  and  C_7
REMARK    4  A    between atoms: C_6  and  N_8
REMARK    5  A    between atoms: N_8  and  C_9
REMARK    6  A    between atoms: C_12  and  C_13
REMARK                            x       y       z     vdW  Elec       q    Type
REMARK                         _______ _______ _______ _____ _____    ______ ____
ROOT
ATOM      1  N   UNL     1      46.795   6.342  13.954  0.00  0.00    +0.000 N 
ATOM      2  H   UNL     1      46.254   7.199  14.074  0.00  0.00    +0.000 HD
ENDROOT
BRANCH   1   3
ATOM      3  C   UNL     1      46.250   5.583  12.907  0.00  0.00    +0.000 A 
ATOM      4  C   UNL     1      45.726   4.297  13.057  0.00  0.00    +0.000 A 
ATOM      5  C   UNL     1      45.115   3.624  11.989  0.00  0.00    +0.000 A 
ATOM      6  C   UNL     1      44.990   4.237  10.741  0.00  0.00    +0.000 A 
ATOM      7  C   UNL     1      45.484   5.531  10.574  0.00  0.00    +0.000 A 
ATOM      8  C   UNL     1      46.088   6.197  11.651  0.00  0.00    +0.000 A 
BRANCH   6   9
ATOM      9  C   UNL     1      44.341   3.470   9.644  0.00  0.00    +0.000 C 
ATOM     10  N   UNL     1      44.161   4.105   8.446  0.00  0.00    +0.000 N 
ATOM     11  O   UNL     1      43.941   2.324   9.807  0.00  0.00    +0.000 OA
ATOM     12  H   UNL     1      44.237   5.105   8.345  0.00  0.00    +0.000 HD
ATOM     13  H   UNL     1      43.613   3.603   7.758  0.00  0.00    +0.000 HD
ENDBRANCH   6   9
ENDBRANCH   1   3
BRANCH   1  14
ATOM     14  C   UNL     1      48.242   6.643  14.002  0.00  0.00    +0.000 C 
ATOM     15  C   UNL     1      48.722   6.874  15.440  0.00  0.00    +0.000 C 
BRANCH  14  20
ATOM     16  C   UNL     1      49.093  11.370  10.760  0.00  0.00    +0.000 C 
ATOM     17  C   UNL     1      48.953  10.143  11.604  0.00  0.00    +0.000 A 
ATOM     18  C   UNL     1      49.783   9.035  11.440  0.00  0.00    +0.000 A 
ATOM     19  C   UNL     1      49.590   7.903  12.233  0.00  0.00    +0.000 A 
ATOM     20  C   UNL     1      48.554   7.894  13.169  0.00  0.00    +0.000 A 
ATOM     21  N   UNL     1      47.750   8.973  13.354  0.00  0.00    +0.000 NA
ATOM     22  C   UNL     1      47.965  10.059  12.576  0.00  0.00    +0.000 A 
ENDBRANCH  14  20
ENDBRANCH   1  14
TORSDOF 4
ENDMDL
MODEL 8
REMARK VINA RESULT:    -5.557      3.119      5.169
REMARK INTER + INTRA:          -7.456
REMARK INTER:                  -7.033
REMARK INTRA:                  -0.423
REMARK UNBOUND:                -0.599
REMARK  Name = 
REMARK  6 active torsions:
REMARK  status: ('A' for Active; 'I' for Inactive)
REMARK    1  A    between atoms: C_1  and  C_2
REMARK    2  A    between atoms: C_5  and  C_6
REMARK    3  A    between atoms: C_6  and  C_7
REMARK    4  A    between atoms: C_6  and  N_8
REMARK    5  A    between atoms: N_8  and  C_9
REMARK    6  A    between atoms: C_12  and  C_13
REMARK                            x       y       z     vdW  Elec       q    Type
REMARK                         _______ _______ _______ _____ _____    ______ ____
ROOT
ATOM      1  N   UNL     1      46.757   7.523  13.555  0.00  0.00    +0.000 N 
ATOM      2  H   UNL     1      46.370   8.371  13.139  0.00  0.00    +0.000 HD
ENDROOT
BRANCH   1   3
ATOM      3  C   UNL     1      46.205   6.397  12.927  0.00  0.00    +0.000 A 
ATOM      4  C   UNL     1      45.906   5.198  13.580  0.00  0.00    +0.000 A 
ATOM      5  C   UNL     1      45.274   4.137  12.916  0.00  0.00    +0.000 A 
ATOM      6  C   UNL     1      44.900   4.260  11.577  0.00  0.00    +0.000 A 
ATOM      7  C   UNL     1      45.166   5.456  10.909  0.00  0.00    +0.000 A 
ATOM      8  C   UNL     1      45.793   6.514  11.586  0.00  0.00    +0.000 A 
BRANCH   6   9
ATOM      9  C   UNL     1      44.241   3.097  10.923  0.00  0.00    +0.000 C 
ATOM     10  N   UNL     1      44.943   2.432   9.956  0.00  0.00    +0.000 N 
ATOM     11  O   UNL     1      43.097   2.762  11.202  0.00  0.00    +0.000 OA
ATOM     12  H   UNL     1      45.767   2.818   9.520  0.00  0.00    +0.000 HD
ATOM     13  H   UNL     1      44.431   1.723   9.446  0.00  0.00    +0.000 HD
ENDBRANCH   6   9
ENDBRANCH   1   3
BRANCH   1  14
ATOM     14  C   UNL     1      48.220   7.661  13.722  0.00  0.00    +0.000 C 
ATOM     15  C   UNL     1      48.985   6.773  12.733  0.00  0.00    +0.000 C 
BRANCH  14  20
ATOM     16  C   UNL     1      49.521   5.988  19.116  0.00  0.00    +0.000 C 
ATOM     17  C   UNL     1      49.234   6.483  17.734  0.00  0.00    +0.000 A 
ATOM     18  C   UNL     1      49.032   7.835  17.460  0.00  0.00    +0.000 A 
ATOM     19  C   UNL     1      48.736   8.240  16.158  0.00  0.00    +0.000 A 
ATOM     20  C   UNL     1      48.631   7.278  15.151  0.00  0.00    +0.000 A 
ATOM     21  N   UNL     1      48.845   5.960  15.398  0.00  0.00    +0.000 NA
ATOM     22  C   UNL     1      49.137   5.597  16.669  0.00  0.00    +0.000 A 
ENDBRANCH  14  20
ENDBRANCH   1  14
TORSDOF 4
ENDMDL
