MODEL 1
REMARK VINA RESULT:    -9.226      0.000      0.000
REMARK INTER + INTRA:         -12.501
REMARK INTER:                 -11.384
REMARK INTRA:                  -1.117
REMARK UNBOUND:                -1.117
REMARK  Name = 
REMARK  4 active torsions:
REMARK  status: ('A' for Active; 'I' for Inactive)
REMARK    1  A    between atoms: C_2  and  C_4
REMARK    2  A    between atoms: N_8  and  C_9
REMARK    3  A    between atoms: C_9  and  C_10
REMARK    4  A    between atoms: C_14  and  C_15
REMARK                            x       y       z     vdW  Elec       q    Type
REMARK                         _______ _______ _______ _____ _____    ______ ____
ROOT
ATOM      1  C   UNL     1      43.858   4.872  11.437  0.00  0.00    +0.000 C 
ATOM      2  C   UNL     1      42.558   5.115  12.188  0.00  0.00    +0.000 C 
ATOM      3  C   UNL     1      42.964   6.054  11.104  0.00  0.00    +0.000 C 
ENDROOT
BRANCH   1   8
ATOM      4  C   UNL     1      46.515   2.774   7.475  0.00  0.00    +0.000 A 
ATOM      5  C   UNL     1      46.217   4.113   7.714  0.00  0.00    +0.000 A 
ATOM      6  C   UNL     1      45.385   4.450   8.786  0.00  0.00    +0.000 A 
ATOM      7  C   UNL     1      44.854   3.445   9.587  0.00  0.00    +0.000 A 
ATOM      8  N   UNL     1      43.896   3.677  10.578  0.00  0.00    +0.000 N 
ATOM      9  N   UNL     1      45.152   2.145   9.376  0.00  0.00    +0.000 NA
ATOM     10  C   UNL     1      45.965   1.835   8.332  0.00  0.00    +0.000 A 
ATOM     11  H   UNL     1      43.764   2.781  11.042  0.00  0.00    +0.000 HD
BRANCH   4  13
ATOM     12  N   UNL     1      47.303   3.078   5.191  0.00  0.00    +0.000 N 
ATOM     13  C   UNL     1      47.321   2.315   6.323  0.00  0.00    +0.000 C 
ATOM     14  O   UNL     1      48.001   1.297   6.387  0.00  0.00    +0.000 OA
ATOM     15  H   UNL     1      47.910   2.782   4.438  0.00  0.00    +0.000 HD
ATOM     16  H   UNL     1      46.959   4.026   5.173  0.00  0.00    +0.000 HD
ENDBRANCH   4  13
ENDBRANCH   1   8
BRANCH   1  17
ATOM     17  C   UNL     1      45.149   5.095  12.217  0.00  0.00    +0.000 A 
ATOM     18  C   UNL     1      45.639   4.130  13.110  0.00  0.00    +0.000 A 
ATOM     19  C   UNL     1      46.866   4.293  13.750  0.00  0.00    +0.000 A 
ATOM     20  C   UNL     1      47.643   5.425  13.500  0.00  0.00    +0.000 A 
ATOM     21  C   UNL     1      47.207   6.411  12.601  0.00  0.00    +0.000 A 
ATOM     22  C   UNL     1      45.948   6.227  11.995  0.00  0.00    +0.000 A 
BRANCH  21  23
ATOM     23  C   UNL     1      48.067   7.539  12.185  0.00  0.00    +0.000 A 
ATOM     24  C   UNL     1      47.511   8.795  11.888  0.00  0.00    +0.000 A 
ATOM     25  C   UNL     1      48.324   9.909  11.675  0.00  0.00    +0.000 A 
ATOM     26 CL   UNL     1      47.603  11.439  11.364  0.00  0.00    +0.000 Cl
ATOM     27  C   UNL     1      49.710   9.803  11.741  0.00  0.00    +0.000 A 
ATOM     28  C   UNL     1      50.277   8.560  11.995  0.00  0.00    +0.000 A 
ATOM     29 CL   UNL     1      51.986   8.415  12.125  0.00  0.00    +0.000 Cl
ATOM     30  C   UNL     1      49.472   7.436  12.196  0.00  0.00    +0.000 A 
ENDBRANCH  21  23
ENDBRANCH   1  17
TORSDOF 4
ENDMDL
MODEL 2
REMARK VINA RESULT:    -8.907      2.602      3.841
REMARK INTER + INTRA:         -12.108
REMARK INTER:                 -11.737
REMARK INTRA:                  -0.370
REMARK UNBOUND:                -1.117
REMARK  Name = 
REMARK  4 active torsions:
REMARK  status: ('A' for Active; 'I' for Inactive)
REMARK    1  A    between atoms: C_2  and  C_4
REMARK    2  A    between atoms: N_8  and  C_9
REMARK    3  A    between atoms: C_9  and  C_10
REMARK    4  A    between atoms: C_14  and  C_15
REMARK                            x       y       z     vdW  Elec       q    Type
REMARK                         _______ _______ _______ _____ _____    ______ ____
ROOT
ATOM      1  C   UNL     1      43.877   4.840  11.515  0.00  0.00    +0.000 C 
ATOM      2  C   UNL     1      42.810   4.872  12.598  0.00  0.00    +0.000 C 
ATOM      3  C   UNL     1      42.675   5.763  11.411  0.00  0.00    +0.000 C 
ENDROOT
BRANCH   1   8
ATOM      4  C   UNL     1      46.446   2.720   7.507  0.00  0.00    +0.000 A 
ATOM      5  C   UNL     1      46.054   4.044   7.690  0.00  0.00    +0.000 A 
ATOM      6  C   UNL     1      45.265   4.379   8.795  0.00  0.00    +0.000 A 
ATOM      7  C   UNL     1      44.870   3.386   9.685  0.00  0.00    +0.000 A 
ATOM      8  N   UNL     1      43.960   3.601  10.724  0.00  0.00    +0.000 N 
ATOM      9  N   UNL     1      45.262   2.103   9.527  0.00  0.00    +0.000 NA
ATOM     10  C   UNL     1      46.030   1.794   8.450  0.00  0.00    +0.000 A 
ATOM     11  H   UNL     1      43.933   2.728  11.245  0.00  0.00    +0.000 HD
BRANCH   4  13
ATOM     12  N   UNL     1      47.147   3.008   5.192  0.00  0.00    +0.000 N 
ATOM     13  C   UNL     1      47.214   2.256   6.331  0.00  0.00    +0.000 C 
ATOM     14  O   UNL     1      47.905   1.246   6.380  0.00  0.00    +0.000 OA
ATOM     15  H   UNL     1      47.729   2.710   4.421  0.00  0.00    +0.000 HD
ATOM     16  H   UNL     1      46.794   3.953   5.177  0.00  0.00    +0.000 HD
ENDBRANCH   4  13
ENDBRANCH   1   8
BRANCH   1  17
ATOM     17  C   UNL     1      45.241   5.412  11.884  0.00  0.00    +0.000 A 
ATOM     18  C   UNL     1      45.840   6.425  11.118  0.00  0.00    +0.000 A 
ATOM     19  C   UNL     1      47.041   7.014  11.508  0.00  0.00    +0.000 A 
ATOM     20  C   UNL     1      47.669   6.612  12.687  0.00  0.00    +0.000 A 
ATOM     21  C   UNL     1      47.103   5.616  13.499  0.00  0.00    +0.000 A 
ATOM     22  C   UNL     1      45.903   5.023  13.058  0.00  0.00    +0.000 A 
BRANCH  21  23
ATOM     23  C   UNL     1      47.646   5.278  14.832  0.00  0.00    +0.000 A 
ATOM     24  C   UNL     1      48.495   6.168  15.510  0.00  0.00    +0.000 A 
ATOM     25  C   UNL     1      48.863   5.944  16.837  0.00  0.00    +0.000 A 
ATOM     26 CL   UNL     1      49.864   7.084  17.645  0.00  0.00    +0.000 Cl
ATOM     27  C   UNL     1      48.403   4.824  17.523  0.00  0.00    +0.000 A 
ATOM     28  C   UNL     1      47.593   3.913  16.856  0.00  0.00    +0.000 A 
ATOM     29 CL   UNL     1      46.978   2.545  17.699  0.00  0.00    +0.000 Cl
ATOM     30  C   UNL     1      47.232   4.122  15.523  0.00  0.00    +0.000 A 
ENDBRANCH  21  23
ENDBRANCH   1  17
TORSDOF 4
ENDMDL
MODEL 3
REMARK VINA RESULT:    -7.390      5.218      8.430
REMARK INTER + INTRA:         -10.235
REMARK INTER:                  -9.186
REMARK INTRA:                  -1.050
REMARK UNBOUND:                -1.117
REMARK  Name = 
REMARK  4 active torsions:
REMARK  status: ('A' for Active; 'I' for Inactive)
REMARK    1  A    between atoms: C_2  and  C_4
REMARK    2  A    between atoms: N_8  and  C_9
REMARK    3  A    between atoms: C_9  and  C_10
REMARK    4  A    between atoms: C_14  and  C_15
REMARK                            x       y       z     vdW  Elec       q    Type
REMARK                         _______ _______ _______ _____ _____    ______ ____
ROOT
ATOM      1  C   UNL     1      49.203   7.947  12.630  0.00  0.00    +0.000 C 
ATOM      2  C   UNL     1      50.151   8.081  11.449  0.00  0.00    +0.000 C 
ATOM      3  C   UNL     1      49.991   9.224  12.392  0.00  0.00    +0.000 C 
ENDROOT
BRANCH   1   8
ATOM      4  C   UNL     1      48.430   6.836  17.663  0.00  0.00    +0.000 A 
ATOM      5  C   UNL     1      48.491   8.082  17.044  0.00  0.00    +0.000 A 
ATOM      6  C   UNL     1      48.827   8.158  15.689  0.00  0.00    +0.000 A 
ATOM      7  C   UNL     1      49.109   6.994  14.983  0.00  0.00    +0.000 A 
ATOM      8  N   UNL     1      49.601   6.988  13.674  0.00  0.00    +0.000 N 
ATOM      9  N   UNL     1      49.033   5.780  15.569  0.00  0.00    +0.000 NA
ATOM     10  C   UNL     1      48.704   5.722  16.886  0.00  0.00    +0.000 A 
ATOM     11  H   UNL     1      49.631   6.008  13.401  0.00  0.00    +0.000 HD
BRANCH   4  13
ATOM     12  N   UNL     1      47.239   5.718  19.470  0.00  0.00    +0.000 N 
ATOM     13  C   UNL     1      48.160   6.659  19.106  0.00  0.00    +0.000 C 
ATOM     14  O   UNL     1      48.756   7.317  19.951  0.00  0.00    +0.000 OA
ATOM     15  H   UNL     1      47.116   5.568  20.462  0.00  0.00    +0.000 HD
ATOM     16  H   UNL     1      46.907   5.002  18.841  0.00  0.00    +0.000 HD
ENDBRANCH   4  13
ENDBRANCH   1   8
BRANCH   1  17
ATOM     17  C   UNL     1      47.714   7.907  12.309  0.00  0.00    +0.000 A 
ATOM     18  C   UNL     1      46.913   9.056  12.409  0.00  0.00    +0.000 A 
ATOM     19  C   UNL     1      45.574   9.041  12.025  0.00  0.00    +0.000 A 
ATOM     20  C   UNL     1      45.003   7.874  11.517  0.00  0.00    +0.000 A 
ATOM     21  C   UNL     1      45.764   6.702  11.379  0.00  0.00    +0.000 A 
ATOM     22  C   UNL     1      47.107   6.746  11.805  0.00  0.00    +0.000 A 
BRANCH  21  23
ATOM     23  C   UNL     1      45.248   5.497  10.696  0.00  0.00    +0.000 A 
ATOM     24  C   UNL     1      45.656   5.181   9.389  0.00  0.00    +0.000 A 
ATOM     25  C   UNL     1      45.322   3.958   8.807  0.00  0.00    +0.000 A 
ATOM     26 CL   UNL     1      45.883   3.590   7.224  0.00  0.00    +0.000 Cl
ATOM     27  C   UNL     1      44.566   3.020   9.504  0.00  0.00    +0.000 A 
ATOM     28  C   UNL     1      44.122   3.332  10.783  0.00  0.00    +0.000 A 
ATOM     29 CL   UNL     1      43.224   2.170  11.679  0.00  0.00    +0.000 Cl
ATOM     30  C   UNL     1      44.439   4.560  11.369  0.00  0.00    +0.000 A 
ENDBRANCH  21  23
ENDBRANCH   1  17
TORSDOF 4
ENDMDL
MODEL 4
REMARK VINA RESULT:    -6.932      5.327      8.528
REMARK INTER + INTRA:          -9.671
REMARK INTER:                  -8.679
REMARK INTRA:                  -0.992
REMARK UNBOUND:                -1.117
REMARK  Name = 
REMARK  4 active torsions:
REMARK  status: ('A' for Active; 'I' for Inactive)
REMARK    1  A    between atoms: C_2  and  C_4
REMARK    2  A    between atoms: N_8  and  C_9
REMARK    3  A    between atoms: C_9  and  C_10
REMARK    4  A    between atoms: C_14  and  C_15
REMARK                            x       y       z     vdW  Elec       q    Type
REMARK                         _______ _______ _______ _____ _____    ______ ____
ROOT
ATOM      1  C   UNL     1      49.192   8.051  13.028  0.00  0.00    +0.000 C 
ATOM      2  C   UNL     1      50.196   8.344  11.924  0.00  0.00    +0.000 C 
ATOM      3  C   UNL     1      49.884   9.400  12.928  0.00  0.00    +0.000 C 
ENDROOT
BRANCH   1   8
ATOM      4  C   UNL     1      48.437   6.717  18.009  0.00  0.00    +0.000 A 
ATOM      5  C   UNL     1      48.483   7.989  17.443  0.00  0.00    +0.000 A 
ATOM      6  C   UNL     1      48.816   8.127  16.092  0.00  0.00    +0.000 A 
ATOM      7  C   UNL     1      49.112   6.998  15.338  0.00  0.00    +0.000 A 
ATOM      8  N   UNL     1      49.602   7.053  14.029  0.00  0.00    +0.000 N 
ATOM      9  N   UNL     1      49.052   5.759  15.871  0.00  0.00    +0.000 NA
ATOM     10  C   UNL     1      48.724   5.641  17.184  0.00  0.00    +0.000 A 
ATOM     11  H   UNL     1      49.644   6.087  13.715  0.00  0.00    +0.000 HD
BRANCH   4  13
ATOM     12  N   UNL     1      47.165   5.610  19.766  0.00  0.00    +0.000 N 
ATOM     13  C   UNL     1      48.171   6.476  19.443  0.00  0.00    +0.000 C 
ATOM     14  O   UNL     1      48.842   7.016  20.315  0.00  0.00    +0.000 OA
ATOM     15  H   UNL     1      47.041   5.409  20.749  0.00  0.00    +0.000 HD
ATOM     16  H   UNL     1      46.755   4.972  19.101  0.00  0.00    +0.000 HD
ENDBRANCH   4  13
ENDBRANCH   1   8
BRANCH   1  17
ATOM     17  C   UNL     1      47.733   7.917  12.605  0.00  0.00    +0.000 A 
ATOM     18  C   UNL     1      46.872   9.026  12.590  0.00  0.00    +0.000 A 
ATOM     19  C   UNL     1      45.566   8.922  12.113  0.00  0.00    +0.000 A 
ATOM     20  C   UNL     1      45.092   7.704  11.626  0.00  0.00    +0.000 A 
ATOM     21  C   UNL     1      45.918   6.569  11.602  0.00  0.00    +0.000 A 
ATOM     22  C   UNL     1      47.223   6.704  12.119  0.00  0.00    +0.000 A 
BRANCH  21  23
ATOM     23  C   UNL     1      45.513   5.308  10.947  0.00  0.00    +0.000 A 
ATOM     24  C   UNL     1      44.698   4.379  11.616  0.00  0.00    +0.000 A 
ATOM     25  C   UNL     1      44.160   3.279  10.947  0.00  0.00    +0.000 A 
ATOM     26 CL   UNL     1      43.127   2.194  11.791  0.00  0.00    +0.000 Cl
ATOM     27  C   UNL     1      44.425   3.068   9.597  0.00  0.00    +0.000 A 
ATOM     28  C   UNL     1      45.259   3.955   8.929  0.00  0.00    +0.000 A 
ATOM     29 CL   UNL     1      45.564   3.737   7.250  0.00  0.00    +0.000 Cl
ATOM     30  C   UNL     1      45.815   5.051   9.595  0.00  0.00    +0.000 A 
ENDBRANCH  21  23
ENDBRANCH   1  17
TORSDOF 4
ENDMDL
MODEL 5
REMARK VINA RESULT:    -6.692      4.492      6.829
REMARK INTER + INTRA:          -9.374
REMARK INTER:                  -8.395
REMARK INTRA:                  -0.979
REMARK UNBOUND:                -1.117
REMARK  Name = 
REMARK  4 active torsions:
REMARK  status: ('A' for Active; 'I' for Inactive)
REMARK    1  A    between atoms: C_2  and  C_4
REMARK    2  A    between atoms: N_8  and  C_9
REMARK    3  A    between atoms: C_9  and  C_10
REMARK    4  A    between atoms: C_14  and  C_15
REMARK                            x       y       z     vdW  Elec       q    Type
REMARK                         _______ _______ _______ _____ _____    ______ ____
ROOT
ATOM      1  C   UNL     1      48.971   8.353  12.532  0.00  0.00    +0.000 C 
ATOM      2  C   UNL     1      49.852   9.348  11.793  0.00  0.00    +0.000 C 
ATOM      3  C   UNL     1      50.165   7.893  11.713  0.00  0.00    +0.000 C 
ENDROOT
BRANCH   1   8
ATOM      4  C   UNL     1      44.827   5.207  12.830  0.00  0.00    +0.000 A 
ATOM      5  C   UNL     1      46.179   4.873  12.844  0.00  0.00    +0.000 A 
ATOM      6  C   UNL     1      47.134   5.872  12.634  0.00  0.00    +0.000 A 
ATOM      7  C   UNL     1      46.723   7.179  12.398  0.00  0.00    +0.000 A 
ATOM      8  N   UNL     1      47.596   8.206  12.028  0.00  0.00    +0.000 N 
ATOM      9  N   UNL     1      45.415   7.517  12.403  0.00  0.00    +0.000 NA
ATOM     10  C   UNL     1      44.500   6.535  12.611  0.00  0.00    +0.000 A 
ATOM     11  H   UNL     1      47.028   9.050  12.007  0.00  0.00    +0.000 HD
BRANCH   4  13
ATOM     12  N   UNL     1      44.026   2.915  12.633  0.00  0.00    +0.000 N 
ATOM     13  C   UNL     1      43.743   4.209  12.966  0.00  0.00    +0.000 C 
ATOM     14  O   UNL     1      42.635   4.526  13.382  0.00  0.00    +0.000 OA
ATOM     15  H   UNL     1      43.293   2.238  12.793  0.00  0.00    +0.000 HD
ATOM     16  H   UNL     1      44.968   2.570  12.518  0.00  0.00    +0.000 HD
ENDBRANCH   4  13
ENDBRANCH   1   8
BRANCH   1  17
ATOM     17  C   UNL     1      49.057   8.365  14.054  0.00  0.00    +0.000 A 
ATOM     18  C   UNL     1      48.723   9.509  14.796  0.00  0.00    +0.000 A 
ATOM     19  C   UNL     1      48.710   9.490  16.190  0.00  0.00    +0.000 A 
ATOM     20  C   UNL     1      49.019   8.317  16.878  0.00  0.00    +0.000 A 
ATOM     21  C   UNL     1      49.342   7.140  16.184  0.00  0.00    +0.000 A 
ATOM     22  C   UNL     1      49.374   7.204  14.776  0.00  0.00    +0.000 A 
BRANCH  21  23
ATOM     23  C   UNL     1      49.514   5.840  16.866  0.00  0.00    +0.000 A 
ATOM     24  C   UNL     1      48.419   4.983  17.066  0.00  0.00    +0.000 A 
ATOM     25  C   UNL     1      48.600   3.682  17.539  0.00  0.00    +0.000 A 
ATOM     26 CL   UNL     1      47.238   2.649  17.723  0.00  0.00    +0.000 Cl
ATOM     27  C   UNL     1      49.873   3.202  17.834  0.00  0.00    +0.000 A 
ATOM     28  C   UNL     1      50.963   4.049  17.678  0.00  0.00    +0.000 A 
ATOM     29 CL   UNL     1      52.549   3.463  17.995  0.00  0.00    +0.000 Cl
ATOM     30  C   UNL     1      50.790   5.358  17.219  0.00  0.00    +0.000 A 
ENDBRANCH  21  23
ENDBRANCH   1  17
TORSDOF 4
ENDMDL
MODEL 6
REMARK VINA RESULT:    -6.269      4.148      6.363
REMARK INTER + INTRA:          -8.852
REMARK INTER:                  -8.603
REMARK INTRA:                  -0.249
REMARK UNBOUND:                -1.117
REMARK  Name = 
REMARK  4 active torsions:
REMARK  status: ('A' for Active; 'I' for Inactive)
REMARK    1  A    between atoms: C_2  and  C_4
REMARK    2  A    between atoms: N_8  and  C_9
REMARK    3  A    between atoms: C_9  and  C_10
REMARK    4  A    between atoms: C_14  and  C_15
REMARK                            x       y       z     vdW  Elec       q    Type
REMARK                         _______ _______ _______ _____ _____    ______ ____
ROOT
ATOM      1  C   UNL     1      47.367   8.594  13.126  0.00  0.00    +0.000 C 
ATOM      2  C   UNL     1      47.442   9.935  12.413  0.00  0.00    +0.000 C 
ATOM      3  C   UNL     1      48.063   8.735  11.784  0.00  0.00    +0.000 C 
ENDROOT
BRANCH   1   8
ATOM      4  C   UNL     1      44.540   4.588  11.358  0.00  0.00    +0.000 A 
ATOM      5  C   UNL     1      45.508   5.336  10.691  0.00  0.00    +0.000 A 
ATOM      6  C   UNL     1      46.066   6.452  11.320  0.00  0.00    +0.000 A 
ATOM      7  C   UNL     1      45.639   6.809  12.594  0.00  0.00    +0.000 A 
ATOM      8  N   UNL     1      46.028   7.990  13.233  0.00  0.00    +0.000 N 
ATOM      9  N   UNL     1      44.716   6.080  13.258  0.00  0.00    +0.000 NA
ATOM     10  C   UNL     1      44.185   4.997  12.633  0.00  0.00    +0.000 A 
ATOM     11  H   UNL     1      45.629   7.937  14.167  0.00  0.00    +0.000 HD
BRANCH   4  13
ATOM     12  N   UNL     1      44.149   3.119   9.456  0.00  0.00    +0.000 N 
ATOM     13  C   UNL     1      43.837   3.440  10.746  0.00  0.00    +0.000 C 
ATOM     14  O   UNL     1      43.019   2.783  11.379  0.00  0.00    +0.000 OA
ATOM     15  H   UNL     1      43.705   2.293   9.077  0.00  0.00    +0.000 HD
ATOM     16  H   UNL     1      44.969   3.470   8.984  0.00  0.00    +0.000 HD
ENDBRANCH   4  13
ENDBRANCH   1   8
BRANCH   1  17
ATOM     17  C   UNL     1      48.196   8.449  14.397  0.00  0.00    +0.000 A 
ATOM     18  C   UNL     1      48.539   9.565  15.177  0.00  0.00    +0.000 A 
ATOM     19  C   UNL     1      49.215   9.423  16.387  0.00  0.00    +0.000 A 
ATOM     20  C   UNL     1      49.555   8.154  16.855  0.00  0.00    +0.000 A 
ATOM     21  C   UNL     1      49.220   7.004  16.123  0.00  0.00    +0.000 A 
ATOM     22  C   UNL     1      48.562   7.188  14.890  0.00  0.00    +0.000 A 
BRANCH  21  23
ATOM     23  C   UNL     1      49.414   5.639  16.658  0.00  0.00    +0.000 A 
ATOM     24  C   UNL     1      50.664   5.232  17.152  0.00  0.00    +0.000 A 
ATOM     25  C   UNL     1      50.812   4.018  17.825  0.00  0.00    +0.000 A 
ATOM     26 CL   UNL     1      52.349   3.580  18.458  0.00  0.00    +0.000 Cl
ATOM     27  C   UNL     1      49.723   3.173  18.016  0.00  0.00    +0.000 A 
ATOM     28  C   UNL     1      48.487   3.543  17.500  0.00  0.00    +0.000 A 
ATOM     29 CL   UNL     1      47.119   2.534  17.763  0.00  0.00    +0.000 Cl
ATOM     30  C   UNL     1      48.333   4.749  16.813  0.00  0.00    +0.000 A 
ENDBRANCH  21  23
ENDBRANCH   1  17
TORSDOF 4
ENDMDL
MODEL 7
REMARK VINA RESULT:    -6.231      4.012      6.175
REMARK INTER + INTRA:          -8.805
REMARK INTER:                  -8.687
REMARK INTRA:                  -0.118
REMARK UNBOUND:                -1.117
REMARK  Name = 
REMARK  4 active torsions:
REMARK  status: ('A' for Active; 'I' for Inactive)
REMARK    1  A    between atoms: C_2  and  C_4
REMARK    2  A    between atoms: N_8  and  C_9
REMARK    3  A    between atoms: C_9  and  C_10
REMARK    4  A    between atoms: C_14  and  C_15
REMARK                            x       y       z     vdW  Elec       q    Type
REMARK                         _______ _______ _______ _____ _____    ______ ____
ROOT
ATOM      1  C   UNL     1      47.528   8.422  13.142  0.00  0.00    +0.000 C 
ATOM      2  C   UNL     1      47.407   9.776  12.461  0.00  0.00    +0.000 C 
ATOM      3  C   UNL     1      48.080   8.655  11.746  0.00  0.00    +0.000 C 
ENDROOT
BRANCH   1   8
ATOM      4  C   UNL     1      44.828   4.341  11.348  0.00  0.00    +0.000 A 
ATOM      5  C   UNL     1      45.634   5.233  10.644  0.00  0.00    +0.000 A 
ATOM      6  C   UNL     1      46.179   6.337  11.307  0.00  0.00    +0.000 A 
ATOM      7  C   UNL     1      45.897   6.538  12.654  0.00  0.00    +0.000 A 
ATOM      8  N   UNL     1      46.269   7.689  13.354  0.00  0.00    +0.000 N 
ATOM      9  N   UNL     1      45.134   5.668  13.351  0.00  0.00    +0.000 NA
ATOM     10  C   UNL     1      44.614   4.600  12.692  0.00  0.00    +0.000 A 
ATOM     11  H   UNL     1      46.004   7.515  14.321  0.00  0.00    +0.000 HD
BRANCH   4  13
ATOM     12  N   UNL     1      43.426   2.358  11.525  0.00  0.00    +0.000 N 
ATOM     13  C   UNL     1      44.147   3.191  10.717  0.00  0.00    +0.000 C 
ATOM     14  O   UNL     1      44.206   3.000   9.508  0.00  0.00    +0.000 OA
ATOM     15  H   UNL     1      42.916   1.616  11.067  0.00  0.00    +0.000 HD
ATOM     16  H   UNL     1      43.155   2.604  12.466  0.00  0.00    +0.000 HD
ENDBRANCH   4  13
ENDBRANCH   1   8
BRANCH   1  17
ATOM     17  C   UNL     1      48.483   8.338  14.328  0.00  0.00    +0.000 A 
ATOM     18  C   UNL     1      49.034   9.492  14.905  0.00  0.00    +0.000 A 
ATOM     19  C   UNL     1      49.830   9.421  16.047  0.00  0.00    +0.000 A 
ATOM     20  C   UNL     1      50.084   8.189  16.650  0.00  0.00    +0.000 A 
ATOM     21  C   UNL     1      49.541   7.006  16.123  0.00  0.00    +0.000 A 
ATOM     22  C   UNL     1      48.765   7.113  14.951  0.00  0.00    +0.000 A 
BRANCH  21  23
ATOM     23  C   UNL     1      49.648   5.706  16.820  0.00  0.00    +0.000 A 
ATOM     24  C   UNL     1      48.512   4.905  17.022  0.00  0.00    +0.000 A 
ATOM     25  C   UNL     1      48.628   3.602  17.510  0.00  0.00    +0.000 A 
ATOM     26 CL   UNL     1      47.218   2.637  17.697  0.00  0.00    +0.000 Cl
ATOM     27  C   UNL     1      49.875   3.066  17.817  0.00  0.00    +0.000 A 
ATOM     28  C   UNL     1      51.005   3.858  17.658  0.00  0.00    +0.000 A 
ATOM     29 CL   UNL     1      52.559   3.200  17.991  0.00  0.00    +0.000 Cl
ATOM     30  C   UNL     1      50.897   5.168  17.185  0.00  0.00    +0.000 A 
ENDBRANCH  21  23
ENDBRANCH   1  17
TORSDOF 4
ENDMDL
