MODEL 1
REMARK VINA RESULT:    -7.902      0.000      0.000
REMARK INTER + INTRA:         -11.063
REMARK INTER:                 -10.212
REMARK INTRA:                  -0.851
REMARK UNBOUND:                -0.851
REMARK  Name = 
REMARK  6 active torsions:
REMARK  status: ('A' for Active; 'I' for Inactive)
REMARK    1  A    between atoms: C_1  and  C_2
REMARK    2  A    between atoms: C_4  and  C_5
REMARK    3  A    between atoms: C_10  and  N_11
REMARK    4  A    between atoms: N_11  and  C_12
REMARK    5  A    between atoms: C_12  and  C_13
REMARK    6  A    between atoms: C_17  and  C_18
REMARK                            x       y       z     vdW  Elec       q    Type
REMARK                         _______ _______ _______ _____ _____    ______ ____
ROOT
ATOM      1  N   UNL     1      44.459   5.021  10.337  0.00  0.00    +0.000 N 
ATOM      2  H   UNL     1      43.726   5.646  10.016  0.00  0.00    +0.000 HD
ENDROOT
BRANCH   1   9
ATOM      3  C   UNL     1      44.111   2.135  10.043  0.00  0.00    +0.000 C 
ATOM      4  C   UNL     1      45.040   2.947   9.187  0.00  0.00    +0.000 A 
ATOM      5  C   UNL     1      45.847   2.266   8.264  0.00  0.00    +0.000 A 
ATOM      6  C   UNL     1      46.701   2.987   7.444  0.00  0.00    +0.000 A 
ATOM      7  N   UNL     1      46.791   4.342   7.467  0.00  0.00    +0.000 NA
ATOM      8  C   UNL     1      46.008   4.974   8.390  0.00  0.00    +0.000 A 
ATOM      9  C   UNL     1      45.125   4.354   9.283  0.00  0.00    +0.000 A 
BRANCH   6  10
ATOM     10  C   UNL     1      47.581   2.233   6.491  0.00  0.00    +0.000 C 
ATOM     11  N   UNL     1      47.999   2.917   5.383  0.00  0.00    +0.000 N 
ATOM     12  O   UNL     1      47.927   1.074   6.689  0.00  0.00    +0.000 OA
ATOM     13  H   UNL     1      47.717   3.882   5.246  0.00  0.00    +0.000 HD
ATOM     14  H   UNL     1      48.608   2.457   4.724  0.00  0.00    +0.000 HD
ENDBRANCH   6  10
ENDBRANCH   1   9
BRANCH   1  15
ATOM     15  C   UNL     1      44.990   5.277  11.691  0.00  0.00    +0.000 C 
ATOM     16  C   UNL     1      45.324   4.121  12.618  0.00  0.00    +0.000 C 
ATOM     17  C   UNL     1      44.089   4.917  12.870  0.00  0.00    +0.000 C 
BRANCH  15  18
ATOM     18  C   UNL     1      45.719   6.616  11.818  0.00  0.00    +0.000 A 
ATOM     19  C   UNL     1      45.019   7.829  11.905  0.00  0.00    +0.000 A 
ATOM     20  C   UNL     1      45.683   9.047  12.057  0.00  0.00    +0.000 A 
ATOM     21  C   UNL     1      47.073   9.083  12.148  0.00  0.00    +0.000 A 
ATOM     22  C   UNL     1      47.815   7.900  12.071  0.00  0.00    +0.000 A 
ATOM     23  C   UNL     1      47.128   6.683  11.881  0.00  0.00    +0.000 A 
BRANCH  22  24
ATOM     24  C   UNL     1      49.319   7.917  12.218  0.00  0.00    +0.000 C 
ATOM     25  F   UNL     1      49.984   7.560  11.083  0.00  0.00    +0.000 F 
ATOM     26  F   UNL     1      49.791   9.153  12.550  0.00  0.00    +0.000 F 
ATOM     27  F   UNL     1      49.765   7.077  13.191  0.00  0.00    +0.000 F 
ENDBRANCH  22  24
ENDBRANCH  15  18
ENDBRANCH   1  15
TORSDOF 5
ENDMDL
MODEL 2
REMARK VINA RESULT:    -7.661      2.122      2.778
REMARK INTER + INTRA:         -10.752
REMARK INTER:                 -10.804
REMARK INTRA:                   0.053
REMARK UNBOUND:                -0.851
REMARK  Name = 
REMARK  6 active torsions:
REMARK  status: ('A' for Active; 'I' for Inactive)
REMARK    1  A    between atoms: C_1  and  C_2
REMARK    2  A    between atoms: C_4  and  C_5
REMARK    3  A    between atoms: C_10  and  N_11
REMARK    4  A    between atoms: N_11  and  C_12
REMARK    5  A    between atoms: C_12  and  C_13
REMARK    6  A    between atoms: C_17  and  C_18
REMARK                            x       y       z     vdW  Elec       q    Type
REMARK                         _______ _______ _______ _____ _____    ______ ____
ROOT
ATOM      1  N   UNL     1      44.123   4.975   9.992  0.00  0.00    +0.000 N 
ATOM      2  H   UNL     1      43.795   5.877   9.661  0.00  0.00    +0.000 HD
ENDROOT
BRANCH   1   9
ATOM      3  C   UNL     1      43.996   2.060   9.843  0.00  0.00    +0.000 C 
ATOM      4  C   UNL     1      44.958   2.887   9.041  0.00  0.00    +0.000 A 
ATOM      5  C   UNL     1      45.902   2.215   8.251  0.00  0.00    +0.000 A 
ATOM      6  C   UNL     1      46.793   2.948   7.483  0.00  0.00    +0.000 A 
ATOM      7  N   UNL     1      46.793   4.305   7.430  0.00  0.00    +0.000 NA
ATOM      8  C   UNL     1      45.875   4.931   8.225  0.00  0.00    +0.000 A 
ATOM      9  C   UNL     1      44.942   4.300   9.058  0.00  0.00    +0.000 A 
BRANCH   6  10
ATOM     10  C   UNL     1      47.818   2.207   6.676  0.00  0.00    +0.000 C 
ATOM     11  N   UNL     1      48.231   2.811   5.520  0.00  0.00    +0.000 N 
ATOM     12  O   UNL     1      48.280   1.128   7.028  0.00  0.00    +0.000 OA
ATOM     13  H   UNL     1      47.851   3.713   5.255  0.00  0.00    +0.000 HD
ATOM     14  H   UNL     1      48.933   2.359   4.956  0.00  0.00    +0.000 HD
ENDBRANCH   6  10
ENDBRANCH   1   9
BRANCH   1  15
ATOM     15  C   UNL     1      44.105   4.770  11.454  0.00  0.00    +0.000 C 
ATOM     16  C   UNL     1      43.200   3.719  12.074  0.00  0.00    +0.000 C 
ATOM     17  C   UNL     1      42.826   5.157  12.195  0.00  0.00    +0.000 C 
BRANCH  15  18
ATOM     18  C   UNL     1      45.404   5.186  12.147  0.00  0.00    +0.000 A 
ATOM     19  C   UNL     1      46.200   6.230  11.650  0.00  0.00    +0.000 A 
ATOM     20  C   UNL     1      47.367   6.633  12.301  0.00  0.00    +0.000 A 
ATOM     21  C   UNL     1      47.761   6.013  13.485  0.00  0.00    +0.000 A 
ATOM     22  C   UNL     1      46.998   4.970  14.022  0.00  0.00    +0.000 A 
ATOM     23  C   UNL     1      45.842   4.553  13.330  0.00  0.00    +0.000 A 
BRANCH  22  24
ATOM     24  C   UNL     1      47.385   4.321  15.331  0.00  0.00    +0.000 C 
ATOM     25  F   UNL     1      47.760   3.017  15.206  0.00  0.00    +0.000 F 
ATOM     26  F   UNL     1      48.436   4.953  15.929  0.00  0.00    +0.000 F 
ATOM     27  F   UNL     1      46.377   4.332  16.245  0.00  0.00    +0.000 F 
ENDBRANCH  22  24
ENDBRANCH  15  18
ENDBRANCH   1  15
TORSDOF 5
ENDMDL
MODEL 3
REMARK VINA RESULT:    -7.566      2.610      3.132
REMARK INTER + INTRA:         -10.629
REMARK INTER:                  -9.785
REMARK INTRA:                  -0.844
REMARK UNBOUND:                -0.851
REMARK  Name = 
REMARK  6 active torsions:
REMARK  status: ('A' for Active; 'I' for Inactive)
REMARK    1  A    between atoms: C_1  and  C_2
REMARK    2  A    between atoms: C_4  and  C_5
REMARK    3  A    between atoms: C_10  and  N_11
REMARK    4  A    between atoms: N_11  and  C_12
REMARK    5  A    between atoms: C_12  and  C_13
REMARK    6  A    between atoms: C_17  and  C_18
REMARK                            x       y       z     vdW  Elec       q    Type
REMARK                         _______ _______ _______ _____ _____    ______ ____
ROOT
ATOM      1  N   UNL     1      44.091   4.753  10.202  0.00  0.00    +0.000 N 
ATOM      2  H   UNL     1      43.358   5.321   9.790  0.00  0.00    +0.000 HD
ENDROOT
BRANCH   1   9
ATOM      3  C   UNL     1      43.984   1.840  10.004  0.00  0.00    +0.000 C 
ATOM      4  C   UNL     1      44.925   2.689   9.199  0.00  0.00    +0.000 A 
ATOM      5  C   UNL     1      45.860   2.038   8.381  0.00  0.00    +0.000 A 
ATOM      6  C   UNL     1      46.731   2.792   7.610  0.00  0.00    +0.000 A 
ATOM      7  N   UNL     1      46.719   4.149   7.581  0.00  0.00    +0.000 NA
ATOM      8  C   UNL     1      45.812   4.753   8.403  0.00  0.00    +0.000 A 
ATOM      9  C   UNL     1      44.898   4.101   9.241  0.00  0.00    +0.000 A 
BRANCH   6  10
ATOM     10  C   UNL     1      47.747   2.073   6.772  0.00  0.00    +0.000 C 
ATOM     11  N   UNL     1      48.655   2.857   6.116  0.00  0.00    +0.000 N 
ATOM     12  O   UNL     1      47.783   0.851   6.683  0.00  0.00    +0.000 OA
ATOM     13  H   UNL     1      48.621   3.866   6.217  0.00  0.00    +0.000 HD
ATOM     14  H   UNL     1      49.369   2.417   5.556  0.00  0.00    +0.000 HD
ENDBRANCH   6  10
ENDBRANCH   1   9
BRANCH   1  15
ATOM     15  C   UNL     1      44.469   5.079  11.591  0.00  0.00    +0.000 C 
ATOM     16  C   UNL     1      45.020   4.004  12.512  0.00  0.00    +0.000 C 
ATOM     17  C   UNL     1      43.617   4.470  12.704  0.00  0.00    +0.000 C 
BRANCH  15  18
ATOM     18  C   UNL     1      44.845   6.549  11.794  0.00  0.00    +0.000 A 
ATOM     19  C   UNL     1      45.980   6.922  12.530  0.00  0.00    +0.000 A 
ATOM     20  C   UNL     1      46.343   8.261  12.685  0.00  0.00    +0.000 A 
ATOM     21  C   UNL     1      45.587   9.267  12.087  0.00  0.00    +0.000 A 
ATOM     22  C   UNL     1      44.449   8.945  11.341  0.00  0.00    +0.000 A 
ATOM     23  C   UNL     1      44.078   7.589  11.226  0.00  0.00    +0.000 A 
BRANCH  22  24
ATOM     24  C   UNL     1      43.647  10.021  10.646  0.00  0.00    +0.000 C 
ATOM     25  F   UNL     1      42.356   9.665  10.394  0.00  0.00    +0.000 F 
ATOM     26  F   UNL     1      43.578  11.168  11.379  0.00  0.00    +0.000 F 
ATOM     27  F   UNL     1      44.174  10.380   9.444  0.00  0.00    +0.000 F 
ENDBRANCH  22  24
ENDBRANCH  15  18
ENDBRANCH   1  15
TORSDOF 5
ENDMDL
MODEL 4
REMARK VINA RESULT:    -7.355      1.662      2.231
REMARK INTER + INTRA:         -10.356
REMARK INTER:                  -9.316
REMARK INTRA:                  -1.039
REMARK UNBOUND:                -0.851
REMARK  Name = 
REMARK  6 active torsions:
REMARK  status: ('A' for Active; 'I' for Inactive)
REMARK    1  A    between atoms: C_1  and  C_2
REMARK    2  A    between atoms: C_4  and  C_5
REMARK    3  A    between atoms: C_10  and  N_11
REMARK    4  A    between atoms: N_11  and  C_12
REMARK    5  A    between atoms: C_12  and  C_13
REMARK    6  A    between atoms: C_17  and  C_18
REMARK                            x       y       z     vdW  Elec       q    Type
REMARK                         _______ _______ _______ _____ _____    ______ ____
ROOT
ATOM      1  N   UNL     1      43.802   4.789  10.068  0.00  0.00    +0.000 N 
ATOM      2  H   UNL     1      43.475   5.461   9.381  0.00  0.00    +0.000 HD
ENDROOT
BRANCH   1   9
ATOM      3  C   UNL     1      46.249   5.576   8.679  0.00  0.00    +0.000 C 
ATOM      4  C   UNL     1      45.767   4.157   8.764  0.00  0.00    +0.000 A 
ATOM      5  C   UNL     1      46.482   3.177   8.060  0.00  0.00    +0.000 A 
ATOM      6  C   UNL     1      46.076   1.854   8.132  0.00  0.00    +0.000 A 
ATOM      7  N   UNL     1      45.018   1.437   8.875  0.00  0.00    +0.000 NA
ATOM      8  C   UNL     1      44.330   2.417   9.532  0.00  0.00    +0.000 A 
ATOM      9  C   UNL     1      44.631   3.785   9.517  0.00  0.00    +0.000 A 
BRANCH   6  10
ATOM     10  C   UNL     1      46.835   0.830   7.341  0.00  0.00    +0.000 C 
ATOM     11  N   UNL     1      46.697  -0.470   7.742  0.00  0.00    +0.000 N 
ATOM     12  O   UNL     1      47.530   1.125   6.376  0.00  0.00    +0.000 OA
ATOM     13  H   UNL     1      46.101  -0.696   8.532  0.00  0.00    +0.000 HD
ATOM     14  H   UNL     1      47.173  -1.195   7.228  0.00  0.00    +0.000 HD
ENDBRANCH   6  10
ENDBRANCH   1   9
BRANCH   1  15
ATOM     15  C   UNL     1      43.773   5.229  11.478  0.00  0.00    +0.000 C 
ATOM     16  C   UNL     1      43.320   4.277  12.572  0.00  0.00    +0.000 C 
ATOM     17  C   UNL     1      42.400   5.365  12.134  0.00  0.00    +0.000 C 
BRANCH  15  18
ATOM     18  C   UNL     1      44.753   6.362  11.786  0.00  0.00    +0.000 A 
ATOM     19  C   UNL     1      44.443   7.701  11.499  0.00  0.00    +0.000 A 
ATOM     20  C   UNL     1      45.322   8.738  11.812  0.00  0.00    +0.000 A 
ATOM     21  C   UNL     1      46.534   8.465  12.445  0.00  0.00    +0.000 A 
ATOM     22  C   UNL     1      46.886   7.148  12.754  0.00  0.00    +0.000 A 
ATOM     23  C   UNL     1      46.000   6.110  12.398  0.00  0.00    +0.000 A 
BRANCH  22  24
ATOM     24  C   UNL     1      48.173   6.841  13.484  0.00  0.00    +0.000 C 
ATOM     25  F   UNL     1      48.805   7.947  13.968  0.00  0.00    +0.000 F 
ATOM     26  F   UNL     1      47.975   6.027  14.561  0.00  0.00    +0.000 F 
ATOM     27  F   UNL     1      49.086   6.203  12.702  0.00  0.00    +0.000 F 
ENDBRANCH  22  24
ENDBRANCH  15  18
ENDBRANCH   1  15
TORSDOF 5
ENDMDL
MODEL 5
REMARK VINA RESULT:    -6.984      3.943      6.718
REMARK INTER + INTRA:          -9.877
REMARK INTER:                  -9.703
REMARK INTRA:                  -0.174
REMARK UNBOUND:                -0.851
REMARK  Name = 
REMARK  6 active torsions:
REMARK  status: ('A' for Active; 'I' for Inactive)
REMARK    1  A    between atoms: C_1  and  C_2
REMARK    2  A    between atoms: C_4  and  C_5
REMARK    3  A    between atoms: C_10  and  N_11
REMARK    4  A    between atoms: N_11  and  C_12
REMARK    5  A    between atoms: C_12  and  C_13
REMARK    6  A    between atoms: C_17  and  C_18
REMARK                            x       y       z     vdW  Elec       q    Type
REMARK                         _______ _______ _______ _____ _____    ______ ____
ROOT
ATOM      1  N   UNL     1      45.071   6.559  11.265  0.00  0.00    +0.000 N 
ATOM      2  H   UNL     1      44.841   7.431  10.800  0.00  0.00    +0.000 HD
ENDROOT
BRANCH   1   9
ATOM      3  C   UNL     1      45.420   9.127  12.613  0.00  0.00    +0.000 C 
ATOM      4  C   UNL     1      46.335   7.955  12.819  0.00  0.00    +0.000 A 
ATOM      5  C   UNL     1      47.465   8.138  13.629  0.00  0.00    +0.000 A 
ATOM      6  C   UNL     1      48.320   7.072  13.856  0.00  0.00    +0.000 A 
ATOM      7  N   UNL     1      48.115   5.829  13.349  0.00  0.00    +0.000 NA
ATOM      8  C   UNL     1      47.018   5.687  12.548  0.00  0.00    +0.000 A 
ATOM      9  C   UNL     1      46.097   6.693  12.229  0.00  0.00    +0.000 A 
BRANCH   6  10
ATOM     10  C   UNL     1      49.542   7.302  14.696  0.00  0.00    +0.000 C 
ATOM     11  N   UNL     1      50.687   7.629  14.023  0.00  0.00    +0.000 N 
ATOM     12  O   UNL     1      49.526   7.222  15.919  0.00  0.00    +0.000 OA
ATOM     13  H   UNL     1      50.676   7.709  13.012  0.00  0.00    +0.000 HD
ATOM     14  H   UNL     1      51.528   7.812  14.548  0.00  0.00    +0.000 HD
ENDBRANCH   6  10
ENDBRANCH   1   9
BRANCH   1  15
ATOM     15  C   UNL     1      44.041   5.502  11.221  0.00  0.00    +0.000 C 
ATOM     16  C   UNL     1      42.576   5.845  11.429  0.00  0.00    +0.000 C 
ATOM     17  C   UNL     1      43.324   5.174  12.530  0.00  0.00    +0.000 C 
BRANCH  15  18
ATOM     18  C   UNL     1      44.446   4.288  10.382  0.00  0.00    +0.000 A 
ATOM     19  C   UNL     1      43.883   3.021  10.604  0.00  0.00    +0.000 A 
ATOM     20  C   UNL     1      44.226   1.921   9.816  0.00  0.00    +0.000 A 
ATOM     21  C   UNL     1      45.131   2.064   8.766  0.00  0.00    +0.000 A 
ATOM     22  C   UNL     1      45.715   3.307   8.503  0.00  0.00    +0.000 A 
ATOM     23  C   UNL     1      45.383   4.398   9.332  0.00  0.00    +0.000 A 
BRANCH  22  24
ATOM     24  C   UNL     1      46.659   3.489   7.337  0.00  0.00    +0.000 C 
ATOM     25  F   UNL     1      47.262   4.711   7.306  0.00  0.00    +0.000 F 
ATOM     26  F   UNL     1      47.674   2.577   7.348  0.00  0.00    +0.000 F 
ATOM     27  F   UNL     1      46.045   3.346   6.131  0.00  0.00    +0.000 F 
ENDBRANCH  22  24
ENDBRANCH  15  18
ENDBRANCH   1  15
TORSDOF 5
ENDMDL
MODEL 6
REMARK VINA RESULT:    -6.738      4.608      7.074
REMARK INTER + INTRA:          -9.559
REMARK INTER:                  -9.270
REMARK INTRA:                  -0.289
REMARK UNBOUND:                -0.851
REMARK  Name = 
REMARK  6 active torsions:
REMARK  status: ('A' for Active; 'I' for Inactive)
REMARK    1  A    between atoms: C_1  and  C_2
REMARK    2  A    between atoms: C_4  and  C_5
REMARK    3  A    between atoms: C_10  and  N_11
REMARK    4  A    between atoms: N_11  and  C_12
REMARK    5  A    between atoms: C_12  and  C_13
REMARK    6  A    between atoms: C_17  and  C_18
REMARK                            x       y       z     vdW  Elec       q    Type
REMARK                         _______ _______ _______ _____ _____    ______ ____
ROOT
ATOM      1  N   UNL     1      47.510   6.628  12.876  0.00  0.00    +0.000 N 
ATOM      2  H   UNL     1      48.437   7.011  12.713  0.00  0.00    +0.000 HD
ENDROOT
BRANCH   1   9
ATOM      3  C   UNL     1      48.936   7.521  15.264  0.00  0.00    +0.000 C 
ATOM      4  C   UNL     1      48.184   6.224  15.187  0.00  0.00    +0.000 A 
ATOM      5  C   UNL     1      48.250   5.360  16.290  0.00  0.00    +0.000 A 
ATOM      6  C   UNL     1      47.552   4.163  16.259  0.00  0.00    +0.000 A 
ATOM      7  N   UNL     1      46.775   3.777  15.215  0.00  0.00    +0.000 NA
ATOM      8  C   UNL     1      46.747   4.630  14.149  0.00  0.00    +0.000 A 
ATOM      9  C   UNL     1      47.425   5.853  14.054  0.00  0.00    +0.000 A 
BRANCH   6  10
ATOM     10  C   UNL     1      47.669   3.238  17.435  0.00  0.00    +0.000 C 
ATOM     11  N   UNL     1      48.839   3.298  18.140  0.00  0.00    +0.000 N 
ATOM     12  O   UNL     1      46.767   2.478  17.768  0.00  0.00    +0.000 OA
ATOM     13  H   UNL     1      49.567   3.948  17.861  0.00  0.00    +0.000 HD
ATOM     14  H   UNL     1      48.954   2.709  18.950  0.00  0.00    +0.000 HD
ENDBRANCH   6  10
ENDBRANCH   1   9
BRANCH   1  15
ATOM     15  C   UNL     1      46.394   7.305  12.186  0.00  0.00    +0.000 C 
ATOM     16  C   UNL     1      46.537   8.742  11.715  0.00  0.00    +0.000 C 
ATOM     17  C   UNL     1      45.716   8.457  12.926  0.00  0.00    +0.000 C 
BRANCH  15  18
ATOM     18  C   UNL     1      45.440   6.342  11.475  0.00  0.00    +0.000 A 
ATOM     19  C   UNL     1      44.089   6.240  11.843  0.00  0.00    +0.000 A 
ATOM     20  C   UNL     1      43.212   5.387  11.172  0.00  0.00    +0.000 A 
ATOM     21  C   UNL     1      43.659   4.625  10.094  0.00  0.00    +0.000 A 
ATOM     22  C   UNL     1      44.995   4.695   9.688  0.00  0.00    +0.000 A 
ATOM     23  C   UNL     1      45.875   5.535  10.401  0.00  0.00    +0.000 A 
BRANCH  22  24
ATOM     24  C   UNL     1      45.483   3.913   8.491  0.00  0.00    +0.000 C 
ATOM     25  F   UNL     1      45.905   2.653   8.795  0.00  0.00    +0.000 F 
ATOM     26  F   UNL     1      44.514   3.760   7.544  0.00  0.00    +0.000 F 
ATOM     27  F   UNL     1      46.528   4.512   7.857  0.00  0.00    +0.000 F 
ENDBRANCH  22  24
ENDBRANCH  15  18
ENDBRANCH   1  15
TORSDOF 5
ENDMDL
MODEL 7
REMARK VINA RESULT:    -6.429      4.175      5.952
REMARK INTER + INTRA:          -9.160
REMARK INTER:                  -8.858
REMARK INTRA:                  -0.302
REMARK UNBOUND:                -0.851
REMARK  Name = 
REMARK  6 active torsions:
REMARK  status: ('A' for Active; 'I' for Inactive)
REMARK    1  A    between atoms: C_1  and  C_2
REMARK    2  A    between atoms: C_4  and  C_5
REMARK    3  A    between atoms: C_10  and  N_11
REMARK    4  A    between atoms: N_11  and  C_12
REMARK    5  A    between atoms: C_12  and  C_13
REMARK    6  A    between atoms: C_17  and  C_18
REMARK                            x       y       z     vdW  Elec       q    Type
REMARK                         _______ _______ _______ _____ _____    ______ ____
ROOT
ATOM      1  N   UNL     1      46.691   6.785  13.891  0.00  0.00    +0.000 N 
ATOM      2  H   UNL     1      46.070   7.580  14.003  0.00  0.00    +0.000 HD
ENDROOT
BRANCH   1   9
ATOM      3  C   UNL     1      45.108   7.466  11.532  0.00  0.00    +0.000 C 
ATOM      4  C   UNL     1      45.287   6.061  12.030  0.00  0.00    +0.000 A 
ATOM      5  C   UNL     1      44.580   5.038  11.379  0.00  0.00    +0.000 A 
ATOM      6  C   UNL     1      44.737   3.728  11.801  0.00  0.00    +0.000 A 
ATOM      7  N   UNL     1      45.566   3.363  12.813  0.00  0.00    +0.000 NA
ATOM      8  C   UNL     1      46.225   4.382  13.439  0.00  0.00    +0.000 A 
ATOM      9  C   UNL     1      46.131   5.742  13.118  0.00  0.00    +0.000 A 
BRANCH   6  10
ATOM     10  C   UNL     1      43.942   2.657  11.114  0.00  0.00    +0.000 C 
ATOM     11  N   UNL     1      44.459   2.175   9.943  0.00  0.00    +0.000 N 
ATOM     12  O   UNL     1      42.894   2.216  11.574  0.00  0.00    +0.000 OA
ATOM     13  H   UNL     1      45.337   2.539   9.589  0.00  0.00    +0.000 HD
ATOM     14  H   UNL     1      43.969   1.441   9.457  0.00  0.00    +0.000 HD
ENDBRANCH   6  10
ENDBRANCH   1   9
BRANCH   1  15
ATOM     15  C   UNL     1      48.129   7.042  14.107  0.00  0.00    +0.000 C 
ATOM     16  C   UNL     1      48.799   8.250  13.475  0.00  0.00    +0.000 C 
ATOM     17  C   UNL     1      49.051   6.899  12.897  0.00  0.00    +0.000 C 
BRANCH  15  18
ATOM     18  C   UNL     1      48.669   6.442  15.407  0.00  0.00    +0.000 A 
ATOM     19  C   UNL     1      49.602   7.127  16.201  0.00  0.00    +0.000 A 
ATOM     20  C   UNL     1      50.067   6.594  17.404  0.00  0.00    +0.000 A 
ATOM     21  C   UNL     1      49.594   5.365  17.859  0.00  0.00    +0.000 A 
ATOM     22  C   UNL     1      48.662   4.646  17.104  0.00  0.00    +0.000 A 
ATOM     23  C   UNL     1      48.230   5.184  15.874  0.00  0.00    +0.000 A 
BRANCH  22  24
ATOM     24  C   UNL     1      48.102   3.336  17.607  0.00  0.00    +0.000 C 
ATOM     25  F   UNL     1      48.340   3.111  18.930  0.00  0.00    +0.000 F 
ATOM     26  F   UNL     1      46.748   3.262  17.457  0.00  0.00    +0.000 F 
ATOM     27  F   UNL     1      48.607   2.257  16.949  0.00  0.00    +0.000 F 
ENDBRANCH  22  24
ENDBRANCH  15  18
ENDBRANCH   1  15
TORSDOF 5
ENDMDL
MODEL 8
REMARK VINA RESULT:    -6.301      4.771      6.564
REMARK INTER + INTRA:          -8.994
REMARK INTER:                  -8.103
REMARK INTRA:                  -0.891
REMARK UNBOUND:                -0.851
REMARK  Name = 
REMARK  6 active torsions:
REMARK  status: ('A' for Active; 'I' for Inactive)
REMARK    1  A    between atoms: C_1  and  C_2
REMARK    2  A    between atoms: C_4  and  C_5
REMARK    3  A    between atoms: C_10  and  N_11
REMARK    4  A    between atoms: N_11  and  C_12
REMARK    5  A    between atoms: C_12  and  C_13
REMARK    6  A    between atoms: C_17  and  C_18
REMARK                            x       y       z     vdW  Elec       q    Type
REMARK                         _______ _______ _______ _____ _____    ______ ____
ROOT
ATOM      1  N   UNL     1      48.267   6.254  13.680  0.00  0.00    +0.000 N 
ATOM      2  H   UNL     1      48.859   5.470  13.425  0.00  0.00    +0.000 HD
ENDROOT
BRANCH   1   9
ATOM      3  C   UNL     1      47.106   3.589  13.974  0.00  0.00    +0.000 C 
ATOM      4  C   UNL     1      46.359   4.757  13.396  0.00  0.00    +0.000 A 
ATOM      5  C   UNL     1      45.072   4.527  12.888  0.00  0.00    +0.000 A 
ATOM      6  C   UNL     1      44.348   5.587  12.366  0.00  0.00    +0.000 A 
ATOM      7  N   UNL     1      44.809   6.863  12.333  0.00  0.00    +0.000 NA
ATOM      8  C   UNL     1      46.073   7.051  12.816  0.00  0.00    +0.000 A 
ATOM      9  C   UNL     1      46.907   6.059  13.347  0.00  0.00    +0.000 A 
BRANCH   6  10
ATOM     10  C   UNL     1      42.988   5.310  11.795  0.00  0.00    +0.000 C 
ATOM     11  N   UNL     1      42.116   6.363  11.767  0.00  0.00    +0.000 N 
ATOM     12  O   UNL     1      42.668   4.210  11.359  0.00  0.00    +0.000 OA
ATOM     13  H   UNL     1      42.407   7.271  12.115  0.00  0.00    +0.000 HD
ATOM     14  H   UNL     1      41.198   6.228  11.374  0.00  0.00    +0.000 HD
ENDBRANCH   6  10
ENDBRANCH   1   9
BRANCH   1  15
ATOM     15  C   UNL     1      48.796   7.163  14.717  0.00  0.00    +0.000 C 
ATOM     16  C   UNL     1      48.881   8.657  14.460  0.00  0.00    +0.000 C 
ATOM     17  C   UNL     1      50.131   7.846  14.426  0.00  0.00    +0.000 C 
BRANCH  15  18
ATOM     18  C   UNL     1      48.640   6.624  16.140  0.00  0.00    +0.000 A 
ATOM     19  C   UNL     1      48.539   7.484  17.245  0.00  0.00    +0.000 A 
ATOM     20  C   UNL     1      48.361   6.992  18.539  0.00  0.00    +0.000 A 
ATOM     21  C   UNL     1      48.259   5.621  18.763  0.00  0.00    +0.000 A 
ATOM     22  C   UNL     1      48.351   4.724  17.693  0.00  0.00    +0.000 A 
ATOM     23  C   UNL     1      48.566   5.237  16.398  0.00  0.00    +0.000 A 
BRANCH  22  24
ATOM     24  C   UNL     1      48.193   3.237  17.913  0.00  0.00    +0.000 C 
ATOM     25  F   UNL     1      46.980   2.752  17.523  0.00  0.00    +0.000 F 
ATOM     26  F   UNL     1      49.120   2.512  17.223  0.00  0.00    +0.000 F 
ATOM     27  F   UNL     1      48.337   2.876  19.217  0.00  0.00    +0.000 F 
ENDBRANCH  22  24
ENDBRANCH  15  18
ENDBRANCH   1  15
TORSDOF 5
ENDMDL
MODEL 9
REMARK VINA RESULT:    -6.155      3.177      4.650
REMARK INTER + INTRA:          -8.805
REMARK INTER:                  -7.795
REMARK INTRA:                  -1.010
REMARK UNBOUND:                -0.851
REMARK  Name = 
REMARK  6 active torsions:
REMARK  status: ('A' for Active; 'I' for Inactive)
REMARK    1  A    between atoms: C_1  and  C_2
REMARK    2  A    between atoms: C_4  and  C_5
REMARK    3  A    between atoms: C_10  and  N_11
REMARK    4  A    between atoms: N_11  and  C_12
REMARK    5  A    between atoms: C_12  and  C_13
REMARK    6  A    between atoms: C_17  and  C_18
REMARK                            x       y       z     vdW  Elec       q    Type
REMARK                         _______ _______ _______ _____ _____    ______ ____
ROOT
ATOM      1  N   UNL     1      46.730   7.097  13.896  0.00  0.00    +0.000 N 
ATOM      2  H   UNL     1      46.094   7.883  13.993  0.00  0.00    +0.000 HD
ENDROOT
BRANCH   1   9
ATOM      3  C   UNL     1      45.189   7.698  11.488  0.00  0.00    +0.000 C 
ATOM      4  C   UNL     1      45.365   6.309  12.032  0.00  0.00    +0.000 A 
ATOM      5  C   UNL     1      44.675   5.264  11.401  0.00  0.00    +0.000 A 
ATOM      6  C   UNL     1      44.831   3.968  11.865  0.00  0.00    +0.000 A 
ATOM      7  N   UNL     1      45.643   3.638  12.902  0.00  0.00    +0.000 NA
ATOM      8  C   UNL     1      46.284   4.680  13.509  0.00  0.00    +0.000 A 
ATOM      9  C   UNL     1      46.189   6.029  13.145  0.00  0.00    +0.000 A 
BRANCH   6  10
ATOM     10  C   UNL     1      44.054   2.872  11.196  0.00  0.00    +0.000 C 
ATOM     11  N   UNL     1      44.619   2.324  10.077  0.00  0.00    +0.000 N 
ATOM     12  O   UNL     1      42.980   2.468  11.627  0.00  0.00    +0.000 OA
ATOM     13  H   UNL     1      45.518   2.659   9.748  0.00  0.00    +0.000 HD
ATOM     14  H   UNL     1      44.142   1.571   9.606  0.00  0.00    +0.000 HD
ENDBRANCH   6  10
ENDBRANCH   1   9
BRANCH   1  15
ATOM     15  C   UNL     1      48.163   7.387  14.106  0.00  0.00    +0.000 C 
ATOM     16  C   UNL     1      49.017   6.470  14.964  0.00  0.00    +0.000 C 
ATOM     17  C   UNL     1      48.592   7.787  15.517  0.00  0.00    +0.000 C 
BRANCH  15  18
ATOM     18  C   UNL     1      48.792   8.211  12.980  0.00  0.00    +0.000 A 
ATOM     19  C   UNL     1      48.266   9.455  12.597  0.00  0.00    +0.000 A 
ATOM     20  C   UNL     1      48.861  10.222  11.595  0.00  0.00    +0.000 A 
ATOM     21  C   UNL     1      50.016   9.774  10.959  0.00  0.00    +0.000 A 
ATOM     22  C   UNL     1      50.580   8.543  11.308  0.00  0.00    +0.000 A 
ATOM     23  C   UNL     1      49.945   7.765  12.298  0.00  0.00    +0.000 A 
BRANCH  22  24
ATOM     24  C   UNL     1      51.861   8.066  10.663  0.00  0.00    +0.000 C 
ATOM     25  F   UNL     1      52.928   8.050  11.510  0.00  0.00    +0.000 F 
ATOM     26  F   UNL     1      51.753   6.794  10.181  0.00  0.00    +0.000 F 
ATOM     27  F   UNL     1      52.238   8.833   9.604  0.00  0.00    +0.000 F 
ENDBRANCH  22  24
ENDBRANCH  15  18
ENDBRANCH   1  15
TORSDOF 5
ENDMDL
