MODEL 1
REMARK VINA RESULT:    -7.973      0.000      0.000
REMARK INTER + INTRA:         -11.668
REMARK INTER:                 -10.770
REMARK INTRA:                  -0.898
REMARK UNBOUND:                -0.898
REMARK  Name = 
REMARK  7 active torsions:
REMARK  status: ('A' for Active; 'I' for Inactive)
REMARK    1  A    between atoms: C_1  and  C_2
REMARK    2  A    between atoms: C_2  and  N_3
REMARK    3  A    between atoms: C_2  and  C_16
REMARK    4  A    between atoms: C_4  and  C_6
REMARK    5  A    between atoms: C_19  and  C_20
REMARK    6  A    between atoms: C_20  and  N_21
REMARK    7  A    between atoms: C_22  and  C_24
REMARK                            x       y       z     vdW  Elec       q    Type
REMARK                         _______ _______ _______ _____ _____    ______ ____
ROOT
ATOM      1  C   UNL     1      47.977   8.889  13.263  0.00  0.00    +0.000 C 
ATOM      2  C   UNL     1      48.106   7.432  13.707  0.00  0.00    +0.000 C 
ENDROOT
BRANCH   2   3
ATOM      3  C   UNL     1      47.059   6.602  12.975  0.00  0.00    +0.000 A 
ATOM      4  C   UNL     1      46.556   7.048  11.750  0.00  0.00    +0.000 A 
ATOM      5  C   UNL     1      45.699   6.248  10.986  0.00  0.00    +0.000 A 
ATOM      6  C   UNL     1      45.290   4.983  11.440  0.00  0.00    +0.000 A 
ATOM      7  C   UNL     1      45.762   4.558  12.690  0.00  0.00    +0.000 A 
ATOM      8  C   UNL     1      46.617   5.362  13.459  0.00  0.00    +0.000 A 
BRANCH   6   9
ATOM      9  C   UNL     1      44.352   4.102  10.638  0.00  0.00    +0.000 C 
BRANCH   9  10
ATOM     10  N   UNL     1      45.025   3.163   9.765  0.00  0.00    +0.000 N 
ATOM     11  C   UNL     1      45.529   3.531   8.532  0.00  0.00    +0.000 C 
ATOM     12  O   UNL     1      45.439   4.652   8.072  0.00  0.00    +0.000 OA
ATOM     13  H   UNL     1      45.299   2.265  10.132  0.00  0.00    +0.000 HD
BRANCH  11  14
ATOM     14  C   UNL     1      46.180   2.440   7.836  0.00  0.00    +0.000 A 
ATOM     15  C   UNL     1      46.905   2.371   6.662  0.00  0.00    +0.000 A 
ATOM     16  C   UNL     1      47.310   1.032   6.549  0.00  0.00    +0.000 A 
ATOM     17  N   UNL     1      46.855   0.283   7.553  0.00  0.00    +0.000 NA
ATOM     18  N   UNL     1      46.184   1.159   8.326  0.00  0.00    +0.000 N 
ATOM     19  H   UNL     1      45.753   0.827   9.183  0.00  0.00    +0.000 HD
ENDBRANCH  11  14
ENDBRANCH   9  10
ENDBRANCH   6   9
ENDBRANCH   2   3
BRANCH   2  20
ATOM     20  N   UNL     1      47.940   7.287  15.146  0.00  0.00    +0.000 N 
ATOM     21  C   UNL     1      48.958   6.881  15.973  0.00  0.00    +0.000 C 
ATOM     22  O   UNL     1      50.085   6.611  15.566  0.00  0.00    +0.000 OA
ATOM     23  H   UNL     1      46.989   7.170  15.483  0.00  0.00    +0.000 HD
BRANCH  21  24
ATOM     24  C   UNL     1      48.656   6.843  17.403  0.00  0.00    +0.000 A 
ATOM     25  C   UNL     1      48.341   8.005  18.092  0.00  0.00    +0.000 A 
ATOM     26  S   UNL     1      48.071   7.747  19.758  0.00  0.00    +0.000 S 
ATOM     27  C   UNL     1      48.385   6.081  19.609  0.00  0.00    +0.000 A 
ATOM     28  N   UNL     1      48.367   5.255  20.689  0.00  0.00    +0.000 NA
ATOM     29  C   UNL     1      48.651   4.024  20.422  0.00  0.00    +0.000 A 
ATOM     30  N   UNL     1      48.941   3.538  19.173  0.00  0.00    +0.000 N 
ATOM     31  C   UNL     1      48.932   4.324  18.054  0.00  0.00    +0.000 A 
ATOM     32  O   UNL     1      49.118   3.847  16.932  0.00  0.00    +0.000 OA
ATOM     33  C   UNL     1      48.655   5.721  18.301  0.00  0.00    +0.000 A 
ATOM     34  H   UNL     1      49.126   2.558  19.028  0.00  0.00    +0.000 HD
ENDBRANCH  21  24
ENDBRANCH   2  20
TORSDOF 6
ENDMDL
MODEL 2
REMARK VINA RESULT:    -7.897      1.386      2.185
REMARK INTER + INTRA:         -11.565
REMARK INTER:                 -10.418
REMARK INTRA:                  -1.147
REMARK UNBOUND:                -0.898
REMARK  Name = 
REMARK  7 active torsions:
REMARK  status: ('A' for Active; 'I' for Inactive)
REMARK    1  A    between atoms: C_1  and  C_2
REMARK    2  A    between atoms: C_2  and  N_3
REMARK    3  A    between atoms: C_2  and  C_16
REMARK    4  A    between atoms: C_4  and  C_6
REMARK    5  A    between atoms: C_19  and  C_20
REMARK    6  A    between atoms: C_20  and  N_21
REMARK    7  A    between atoms: C_22  and  C_24
REMARK                            x       y       z     vdW  Elec       q    Type
REMARK                         _______ _______ _______ _____ _____    ______ ____
ROOT
ATOM      1  C   UNL     1      47.313   8.900  14.018  0.00  0.00    +0.000 C 
ATOM      2  C   UNL     1      47.887   7.485  13.960  0.00  0.00    +0.000 C 
ENDROOT
BRANCH   2   3
ATOM      3  C   UNL     1      47.054   6.657  12.991  0.00  0.00    +0.000 A 
ATOM      4  C   UNL     1      46.744   5.331  13.303  0.00  0.00    +0.000 A 
ATOM      5  C   UNL     1      45.869   4.586  12.504  0.00  0.00    +0.000 A 
ATOM      6  C   UNL     1      45.298   5.137  11.344  0.00  0.00    +0.000 A 
ATOM      7  C   UNL     1      45.645   6.453  11.011  0.00  0.00    +0.000 A 
ATOM      8  C   UNL     1      46.527   7.199  11.809  0.00  0.00    +0.000 A 
BRANCH   6   9
ATOM      9  C   UNL     1      44.356   4.348  10.455  0.00  0.00    +0.000 C 
BRANCH   9  10
ATOM     10  N   UNL     1      45.002   3.301   9.691  0.00  0.00    +0.000 N 
ATOM     11  C   UNL     1      45.735   3.564   8.550  0.00  0.00    +0.000 C 
ATOM     12  O   UNL     1      45.887   4.676   8.085  0.00  0.00    +0.000 OA
ATOM     13  H   UNL     1      45.077   2.380  10.093  0.00  0.00    +0.000 HD
BRANCH  11  14
ATOM     14  C   UNL     1      46.309   2.373   7.958  0.00  0.00    +0.000 A 
ATOM     15  C   UNL     1      46.081   1.023   8.146  0.00  0.00    +0.000 A 
ATOM     16  C   UNL     1      46.929   0.369   7.238  0.00  0.00    +0.000 A 
ATOM     17  N   UNL     1      47.674   1.225   6.540  0.00  0.00    +0.000 NA
ATOM     18  N   UNL     1      47.273   2.433   6.984  0.00  0.00    +0.000 N 
ATOM     19  H   UNL     1      47.689   3.266   6.580  0.00  0.00    +0.000 HD
ENDBRANCH  11  14
ENDBRANCH   9  10
ENDBRANCH   6   9
ENDBRANCH   2   3
BRANCH   2  20
ATOM     20  N   UNL     1      47.901   6.853  15.272  0.00  0.00    +0.000 N 
ATOM     21  C   UNL     1      49.062   6.483  15.905  0.00  0.00    +0.000 C 
ATOM     22  O   UNL     1      50.176   6.658  15.418  0.00  0.00    +0.000 OA
ATOM     23  H   UNL     1      47.043   6.392  15.562  0.00  0.00    +0.000 HD
BRANCH  21  24
ATOM     24  C   UNL     1      48.918   5.915  17.244  0.00  0.00    +0.000 A 
ATOM     25  C   UNL     1      49.226   4.585  17.488  0.00  0.00    +0.000 A 
ATOM     26  S   UNL     1      48.942   4.113  19.105  0.00  0.00    +0.000 S 
ATOM     27  C   UNL     1      48.382   5.667  19.518  0.00  0.00    +0.000 A 
ATOM     28  N   UNL     1      47.928   5.948  20.768  0.00  0.00    +0.000 NA
ATOM     29  C   UNL     1      47.511   7.160  20.923  0.00  0.00    +0.000 A 
ATOM     30  N   UNL     1      47.516   8.123  19.946  0.00  0.00    +0.000 N 
ATOM     31  C   UNL     1      47.999   7.895  18.688  0.00  0.00    +0.000 A 
ATOM     32  O   UNL     1      48.067   8.800  17.851  0.00  0.00    +0.000 OA
ATOM     33  C   UNL     1      48.447   6.541  18.449  0.00  0.00    +0.000 A 
ATOM     34  H   UNL     1      47.204   9.060  20.141  0.00  0.00    +0.000 HD
ENDBRANCH  21  24
ENDBRANCH   2  20
TORSDOF 6
ENDMDL
MODEL 3
REMARK VINA RESULT:    -7.654      3.586      8.626
REMARK INTER + INTRA:         -11.237
REMARK INTER:                 -10.370
REMARK INTRA:                  -0.868
REMARK UNBOUND:                -0.898
REMARK  Name = 
REMARK  7 active torsions:
REMARK  status: ('A' for Active; 'I' for Inactive)
REMARK    1  A    between atoms: C_1  and  C_2
REMARK    2  A    between atoms: C_2  and  N_3
REMARK    3  A    between atoms: C_2  and  C_16
REMARK    4  A    between atoms: C_4  and  C_6
REMARK    5  A    between atoms: C_19  and  C_20
REMARK    6  A    between atoms: C_20  and  N_21
REMARK    7  A    between atoms: C_22  and  C_24
REMARK                            x       y       z     vdW  Elec       q    Type
REMARK                         _______ _______ _______ _____ _____    ______ ____
ROOT
ATOM      1  C   UNL     1      49.448   7.383  12.984  0.00  0.00    +0.000 C 
ATOM      2  C   UNL     1      48.090   6.953  13.541  0.00  0.00    +0.000 C 
ENDROOT
BRANCH   2   3
ATOM      3  C   UNL     1      48.306   6.269  14.884  0.00  0.00    +0.000 A 
ATOM      4  C   UNL     1      47.497   5.189  15.248  0.00  0.00    +0.000 A 
ATOM      5  C   UNL     1      47.755   4.452  16.409  0.00  0.00    +0.000 A 
ATOM      6  C   UNL     1      48.816   4.792  17.265  0.00  0.00    +0.000 A 
ATOM      7  C   UNL     1      49.599   5.903  16.919  0.00  0.00    +0.000 A 
ATOM      8  C   UNL     1      49.337   6.646  15.757  0.00  0.00    +0.000 A 
BRANCH   6   9
ATOM      9  C   UNL     1      49.110   4.018  18.535  0.00  0.00    +0.000 C 
BRANCH   9  10
ATOM     10  N   UNL     1      50.362   3.290  18.508  0.00  0.00    +0.000 N 
ATOM     11  C   UNL     1      50.623   2.304  17.576  0.00  0.00    +0.000 C 
ATOM     12  O   UNL     1      49.833   1.954  16.721  0.00  0.00    +0.000 OA
ATOM     13  H   UNL     1      51.134   3.628  19.059  0.00  0.00    +0.000 HD
BRANCH  11  14
ATOM     14  C   UNL     1      51.942   1.723  17.719  0.00  0.00    +0.000 A 
ATOM     15  C   UNL     1      53.218   2.242  17.603  0.00  0.00    +0.000 A 
ATOM     16  C   UNL     1      54.084   1.180  17.904  0.00  0.00    +0.000 A 
ATOM     17  N   UNL     1      53.424   0.051  18.162  0.00  0.00    +0.000 NA
ATOM     18  N   UNL     1      52.129   0.407  18.056  0.00  0.00    +0.000 N 
ATOM     19  H   UNL     1      51.413  -0.291  18.231  0.00  0.00    +0.000 HD
ENDBRANCH  11  14
ENDBRANCH   9  10
ENDBRANCH   6   9
ENDBRANCH   2   3
BRANCH   2  20
ATOM     20  N   UNL     1      47.392   6.057  12.630  0.00  0.00    +0.000 N 
ATOM     21  C   UNL     1      46.260   6.428  11.947  0.00  0.00    +0.000 C 
ATOM     22  O   UNL     1      45.752   7.542  12.047  0.00  0.00    +0.000 OA
ATOM     23  H   UNL     1      47.555   5.063  12.760  0.00  0.00    +0.000 HD
BRANCH  21  24
ATOM     24  C   UNL     1      45.707   5.440  11.023  0.00  0.00    +0.000 A 
ATOM     25  C   UNL     1      45.839   5.600   9.651  0.00  0.00    +0.000 A 
ATOM     26  S   UNL     1      45.081   4.361   8.753  0.00  0.00    +0.000 S 
ATOM     27  C   UNL     1      44.539   3.588  10.170  0.00  0.00    +0.000 A 
ATOM     28  N   UNL     1      43.775   2.465  10.118  0.00  0.00    +0.000 NA
ATOM     29  C   UNL     1      43.420   2.010  11.273  0.00  0.00    +0.000 A 
ATOM     30  N   UNL     1      43.766   2.566  12.478  0.00  0.00    +0.000 N 
ATOM     31  C   UNL     1      44.565   3.672  12.577  0.00  0.00    +0.000 A 
ATOM     32  O   UNL     1      44.928   4.106  13.674  0.00  0.00    +0.000 OA
ATOM     33  C   UNL     1      44.963   4.245  11.311  0.00  0.00    +0.000 A 
ATOM     34  H   UNL     1      43.480   2.144  13.346  0.00  0.00    +0.000 HD
ENDBRANCH  21  24
ENDBRANCH   2  20
TORSDOF 6
ENDMDL
MODEL 4
REMARK VINA RESULT:    -7.573      2.990      4.793
REMARK INTER + INTRA:         -11.127
REMARK INTER:                  -9.905
REMARK INTRA:                  -1.223
REMARK UNBOUND:                -0.898
REMARK  Name = 
REMARK  7 active torsions:
REMARK  status: ('A' for Active; 'I' for Inactive)
REMARK    1  A    between atoms: C_1  and  C_2
REMARK    2  A    between atoms: C_2  and  N_3
REMARK    3  A    between atoms: C_2  and  C_16
REMARK    4  A    between atoms: C_4  and  C_6
REMARK    5  A    between atoms: C_19  and  C_20
REMARK    6  A    between atoms: C_20  and  N_21
REMARK    7  A    between atoms: C_22  and  C_24
REMARK                            x       y       z     vdW  Elec       q    Type
REMARK                         _______ _______ _______ _____ _____    ______ ____
ROOT
ATOM      1  C   UNL     1      47.312   4.305  15.517  0.00  0.00    +0.000 C 
ATOM      2  C   UNL     1      47.166   5.591  14.703  0.00  0.00    +0.000 C 
ENDROOT
BRANCH   2   3
ATOM      3  C   UNL     1      46.349   5.290  13.454  0.00  0.00    +0.000 A 
ATOM      4  C   UNL     1      46.181   6.280  12.482  0.00  0.00    +0.000 A 
ATOM      5  C   UNL     1      45.555   5.997  11.263  0.00  0.00    +0.000 A 
ATOM      6  C   UNL     1      45.047   4.716  10.987  0.00  0.00    +0.000 A 
ATOM      7  C   UNL     1      45.180   3.737  11.982  0.00  0.00    +0.000 A 
ATOM      8  C   UNL     1      45.802   4.022  13.207  0.00  0.00    +0.000 A 
BRANCH   6   9
ATOM      9  C   UNL     1      44.355   4.386   9.679  0.00  0.00    +0.000 C 
BRANCH   9  10
ATOM     10  N   UNL     1      45.254   3.975   8.621  0.00  0.00    +0.000 N 
ATOM     11  C   UNL     1      45.577   2.651   8.398  0.00  0.00    +0.000 C 
ATOM     12  O   UNL     1      45.155   1.729   9.069  0.00  0.00    +0.000 OA
ATOM     13  H   UNL     1      45.510   4.644   7.912  0.00  0.00    +0.000 HD
BRANCH  11  14
ATOM     14  C   UNL     1      46.474   2.466   7.276  0.00  0.00    +0.000 A 
ATOM     15  C   UNL     1      46.645   3.145   6.085  0.00  0.00    +0.000 A 
ATOM     16  C   UNL     1      47.711   2.502   5.436  0.00  0.00    +0.000 A 
ATOM     17  N   UNL     1      48.173   1.466   6.135  0.00  0.00    +0.000 NA
ATOM     18  N   UNL     1      47.418   1.471   7.250  0.00  0.00    +0.000 N 
ATOM     19  H   UNL     1      47.595   0.773   7.966  0.00  0.00    +0.000 HD
ENDBRANCH  11  14
ENDBRANCH   9  10
ENDBRANCH   6   9
ENDBRANCH   2   3
BRANCH   2  20
ATOM     20  N   UNL     1      48.460   6.146  14.333  0.00  0.00    +0.000 N 
ATOM     21  C   UNL     1      48.937   7.325  14.852  0.00  0.00    +0.000 C 
ATOM     22  O   UNL     1      48.315   7.998  15.669  0.00  0.00    +0.000 OA
ATOM     23  H   UNL     1      48.851   5.832  13.450  0.00  0.00    +0.000 HD
BRANCH  21  24
ATOM     24  C   UNL     1      50.279   7.722  14.430  0.00  0.00    +0.000 A 
ATOM     25  C   UNL     1      51.348   7.656  15.312  0.00  0.00    +0.000 A 
ATOM     26  S   UNL     1      52.814   8.211  14.634  0.00  0.00    +0.000 S 
ATOM     27  C   UNL     1      52.058   8.573  13.152  0.00  0.00    +0.000 A 
ATOM     28  N   UNL     1      52.747   9.131  12.122  0.00  0.00    +0.000 NA
ATOM     29  C   UNL     1      52.032   9.372  11.074  0.00  0.00    +0.000 A 
ATOM     30  N   UNL     1      50.694   9.096  10.954  0.00  0.00    +0.000 N 
ATOM     31  C   UNL     1      49.972   8.499  11.950  0.00  0.00    +0.000 A 
ATOM     32  O   UNL     1      48.789   8.188  11.788  0.00  0.00    +0.000 OA
ATOM     33  C   UNL     1      50.716   8.239  13.162  0.00  0.00    +0.000 A 
ATOM     34  H   UNL     1      50.201   9.281  10.096  0.00  0.00    +0.000 HD
ENDBRANCH  21  24
ENDBRANCH   2  20
TORSDOF 6
ENDMDL
MODEL 5
REMARK VINA RESULT:    -7.298      3.119      4.510
REMARK INTER + INTRA:         -10.756
REMARK INTER:                  -9.528
REMARK INTRA:                  -1.229
REMARK UNBOUND:                -0.898
REMARK  Name = 
REMARK  7 active torsions:
REMARK  status: ('A' for Active; 'I' for Inactive)
REMARK    1  A    between atoms: C_1  and  C_2
REMARK    2  A    between atoms: C_2  and  N_3
REMARK    3  A    between atoms: C_2  and  C_16
REMARK    4  A    between atoms: C_4  and  C_6
REMARK    5  A    between atoms: C_19  and  C_20
REMARK    6  A    between atoms: C_20  and  N_21
REMARK    7  A    between atoms: C_22  and  C_24
REMARK                            x       y       z     vdW  Elec       q    Type
REMARK                         _______ _______ _______ _____ _____    ______ ____
ROOT
ATOM      1  C   UNL     1      47.752   4.972  15.711  0.00  0.00    +0.000 C 
ATOM      2  C   UNL     1      47.264   5.947  14.640  0.00  0.00    +0.000 C 
ENDROOT
BRANCH   2   3
ATOM      3  C   UNL     1      46.413   5.183  13.634  0.00  0.00    +0.000 A 
ATOM      4  C   UNL     1      45.496   5.873  12.837  0.00  0.00    +0.000 A 
ATOM      5  C   UNL     1      44.799   5.227  11.811  0.00  0.00    +0.000 A 
ATOM      6  C   UNL     1      44.974   3.854  11.568  0.00  0.00    +0.000 A 
ATOM      7  C   UNL     1      45.862   3.155  12.397  0.00  0.00    +0.000 A 
ATOM      8  C   UNL     1      46.558   3.802  13.430  0.00  0.00    +0.000 A 
BRANCH   6   9
ATOM      9  C   UNL     1      44.222   3.126  10.470  0.00  0.00    +0.000 C 
BRANCH   9  10
ATOM     10  N   UNL     1      45.062   2.663   9.385  0.00  0.00    +0.000 N 
ATOM     11  C   UNL     1      45.524   3.509   8.395  0.00  0.00    +0.000 C 
ATOM     12  O   UNL     1      45.259   4.693   8.339  0.00  0.00    +0.000 OA
ATOM     13  H   UNL     1      45.474   1.745   9.445  0.00  0.00    +0.000 HD
BRANCH  11  14
ATOM     14  C   UNL     1      46.364   2.839   7.423  0.00  0.00    +0.000 A 
ATOM     15  C   UNL     1      46.806   3.187   6.161  0.00  0.00    +0.000 A 
ATOM     16  C   UNL     1      47.630   2.129   5.747  0.00  0.00    +0.000 A 
ATOM     17  N   UNL     1      47.692   1.156   6.655  0.00  0.00    +0.000 NA
ATOM     18  N   UNL     1      46.928   1.612   7.666  0.00  0.00    +0.000 N 
ATOM     19  H   UNL     1      46.832   1.045   8.502  0.00  0.00    +0.000 HD
ENDBRANCH  11  14
ENDBRANCH   9  10
ENDBRANCH   6   9
ENDBRANCH   2   3
BRANCH   2  20
ATOM     20  N   UNL     1      48.372   6.603  13.960  0.00  0.00    +0.000 N 
ATOM     21  C   UNL     1      48.416   7.960  13.753  0.00  0.00    +0.000 C 
ATOM     22  O   UNL     1      47.530   8.724  14.126  0.00  0.00    +0.000 OA
ATOM     23  H   UNL     1      48.942   6.019  13.355  0.00  0.00    +0.000 HD
BRANCH  21  24
ATOM     24  C   UNL     1      49.622   8.479  13.110  0.00  0.00    +0.000 A 
ATOM     25  C   UNL     1      49.544   9.176  11.913  0.00  0.00    +0.000 A 
ATOM     26  S   UNL     1      51.069   9.651  11.310  0.00  0.00    +0.000 S 
ATOM     27  C   UNL     1      51.877   8.923  12.620  0.00  0.00    +0.000 A 
ATOM     28  N   UNL     1      53.233   8.921  12.706  0.00  0.00    +0.000 NA
ATOM     29  C   UNL     1      53.700   8.308  13.742  0.00  0.00    +0.000 A 
ATOM     30  N   UNL     1      52.936   7.704  14.708  0.00  0.00    +0.000 N 
ATOM     31  C   UNL     1      51.569   7.715  14.681  0.00  0.00    +0.000 A 
ATOM     32  O   UNL     1      50.905   7.234  15.604  0.00  0.00    +0.000 OA
ATOM     33  C   UNL     1      50.993   8.359  13.523  0.00  0.00    +0.000 A 
ATOM     34  H   UNL     1      53.363   7.267  15.508  0.00  0.00    +0.000 HD
ENDBRANCH  21  24
ENDBRANCH   2  20
TORSDOF 6
ENDMDL
MODEL 6
REMARK VINA RESULT:    -7.025      3.704      5.523
REMARK INTER + INTRA:         -10.388
REMARK INTER:                  -9.132
REMARK INTRA:                  -1.256
REMARK UNBOUND:                -0.898
REMARK  Name = 
REMARK  7 active torsions:
REMARK  status: ('A' for Active; 'I' for Inactive)
REMARK    1  A    between atoms: C_1  and  C_2
REMARK    2  A    between atoms: C_2  and  N_3
REMARK    3  A    between atoms: C_2  and  C_16
REMARK    4  A    between atoms: C_4  and  C_6
REMARK    5  A    between atoms: C_19  and  C_20
REMARK    6  A    between atoms: C_20  and  N_21
REMARK    7  A    between atoms: C_22  and  C_24
REMARK                            x       y       z     vdW  Elec       q    Type
REMARK                         _______ _______ _______ _____ _____    ______ ____
ROOT
ATOM      1  C   UNL     1      48.675   6.381  15.778  0.00  0.00    +0.000 C 
ATOM      2  C   UNL     1      48.625   7.250  14.521  0.00  0.00    +0.000 C 
ENDROOT
BRANCH   2   3
ATOM      3  C   UNL     1      47.677   6.607  13.518  0.00  0.00    +0.000 A 
ATOM      4  C   UNL     1      47.145   5.342  13.782  0.00  0.00    +0.000 A 
ATOM      5  C   UNL     1      46.168   4.782  12.952  0.00  0.00    +0.000 A 
ATOM      6  C   UNL     1      45.712   5.458  11.808  0.00  0.00    +0.000 A 
ATOM      7  C   UNL     1      46.280   6.707  11.523  0.00  0.00    +0.000 A 
ATOM      8  C   UNL     1      47.264   7.268  12.351  0.00  0.00    +0.000 A 
BRANCH   6   9
ATOM      9  C   UNL     1      44.663   4.868  10.886  0.00  0.00    +0.000 C 
BRANCH   9  10
ATOM     10  N   UNL     1      45.149   3.791  10.048  0.00  0.00    +0.000 N 
ATOM     11  C   UNL     1      45.751   4.021   8.825  0.00  0.00    +0.000 C 
ATOM     12  O   UNL     1      45.909   5.126   8.345  0.00  0.00    +0.000 OA
ATOM     13  H   UNL     1      45.221   2.865  10.437  0.00  0.00    +0.000 HD
BRANCH  11  14
ATOM     14  C   UNL     1      46.180   2.803   8.167  0.00  0.00    +0.000 A 
ATOM     15  C   UNL     1      46.938   2.560   7.038  0.00  0.00    +0.000 A 
ATOM     16  C   UNL     1      47.037   1.163   6.946  0.00  0.00    +0.000 A 
ATOM     17  N   UNL     1      46.368   0.547   7.920  0.00  0.00    +0.000 NA
ATOM     18  N   UNL     1      45.867   1.560   8.654  0.00  0.00    +0.000 N 
ATOM     19  H   UNL     1      45.323   1.342   9.483  0.00  0.00    +0.000 HD
ENDBRANCH  11  14
ENDBRANCH   9  10
ENDBRANCH   6   9
ENDBRANCH   2   3
BRANCH   2  20
ATOM     20  N   UNL     1      49.944   7.417  13.927  0.00  0.00    +0.000 N 
ATOM     21  C   UNL     1      50.658   8.586  14.023  0.00  0.00    +0.000 C 
ATOM     22  O   UNL     1      50.245   9.577  14.619  0.00  0.00    +0.000 OA
ATOM     23  H   UNL     1      50.182   6.785  13.168  0.00  0.00    +0.000 HD
BRANCH  21  24
ATOM     24  C   UNL     1      51.993   8.581  13.427  0.00  0.00    +0.000 A 
ATOM     25  C   UNL     1      53.105   8.945  14.173  0.00  0.00    +0.000 A 
ATOM     26  S   UNL     1      54.557   8.917  13.275  0.00  0.00    +0.000 S 
ATOM     27  C   UNL     1      53.739   8.438  11.861  0.00  0.00    +0.000 A 
ATOM     28  N   UNL     1      54.396   8.271  10.683  0.00  0.00    +0.000 NA
ATOM     29  C   UNL     1      53.638   7.932   9.695  0.00  0.00    +0.000 A 
ATOM     30  N   UNL     1      52.284   7.733   9.775  0.00  0.00    +0.000 N 
ATOM     31  C   UNL     1      51.589   7.852  10.947  0.00  0.00    +0.000 A 
ATOM     32  O   UNL     1      50.385   7.589  11.009  0.00  0.00    +0.000 OA
ATOM     33  C   UNL     1      52.385   8.265  12.081  0.00  0.00    +0.000 A 
ATOM     34  H   UNL     1      51.754   7.440   8.970  0.00  0.00    +0.000 HD
ENDBRANCH  21  24
ENDBRANCH   2  20
TORSDOF 6
ENDMDL
MODEL 7
REMARK VINA RESULT:    -6.766      4.747      7.871
REMARK INTER + INTRA:         -10.037
REMARK INTER:                  -8.967
REMARK INTRA:                  -1.070
REMARK UNBOUND:                -0.898
REMARK  Name = 
REMARK  7 active torsions:
REMARK  status: ('A' for Active; 'I' for Inactive)
REMARK    1  A    between atoms: C_1  and  C_2
REMARK    2  A    between atoms: C_2  and  N_3
REMARK    3  A    between atoms: C_2  and  C_16
REMARK    4  A    between atoms: C_4  and  C_6
REMARK    5  A    between atoms: C_19  and  C_20
REMARK    6  A    between atoms: C_20  and  N_21
REMARK    7  A    between atoms: C_22  and  C_24
REMARK                            x       y       z     vdW  Elec       q    Type
REMARK                         _______ _______ _______ _____ _____    ______ ____
ROOT
ATOM      1  C   UNL     1      45.422   9.341  12.654  0.00  0.00    +0.000 C 
ATOM      2  C   UNL     1      46.254   8.075  12.855  0.00  0.00    +0.000 C 
ENDROOT
BRANCH   2   3
ATOM      3  C   UNL     1      47.644   8.305  12.277  0.00  0.00    +0.000 A 
ATOM      4  C   UNL     1      48.017   9.586  11.861  0.00  0.00    +0.000 A 
ATOM      5  C   UNL     1      49.327   9.861  11.455  0.00  0.00    +0.000 A 
ATOM      6  C   UNL     1      50.304   8.851  11.421  0.00  0.00    +0.000 A 
ATOM      7  C   UNL     1      49.915   7.559  11.797  0.00  0.00    +0.000 A 
ATOM      8  C   UNL     1      48.600   7.280  12.200  0.00  0.00    +0.000 A 
BRANCH   6   9
ATOM      9  C   UNL     1      51.728   9.120  10.973  0.00  0.00    +0.000 C 
BRANCH   9  10
ATOM     10  N   UNL     1      52.156   8.316   9.847  0.00  0.00    +0.000 N 
ATOM     11  C   UNL     1      53.120   7.334   9.966  0.00  0.00    +0.000 C 
ATOM     12  O   UNL     1      53.697   7.072  11.003  0.00  0.00    +0.000 OA
ATOM     13  H   UNL     1      51.616   8.340   8.997  0.00  0.00    +0.000 HD
BRANCH  11  14
ATOM     14  C   UNL     1      53.378   6.639   8.720  0.00  0.00    +0.000 A 
ATOM     15  C   UNL     1      54.192   5.573   8.388  0.00  0.00    +0.000 A 
ATOM     16  C   UNL     1      53.967   5.342   7.022  0.00  0.00    +0.000 A 
ATOM     17  N   UNL     1      53.101   6.211   6.501  0.00  0.00    +0.000 NA
ATOM     18  N   UNL     1      52.749   6.979   7.550  0.00  0.00    +0.000 N 
ATOM     19  H   UNL     1      52.068   7.718   7.409  0.00  0.00    +0.000 HD
ENDBRANCH  11  14
ENDBRANCH   9  10
ENDBRANCH   6   9
ENDBRANCH   2   3
BRANCH   2  20
ATOM     20  N   UNL     1      45.637   6.916  12.225  0.00  0.00    +0.000 N 
ATOM     21  C   UNL     1      45.645   5.668  12.798  0.00  0.00    +0.000 C 
ATOM     22  O   UNL     1      46.167   5.433  13.884  0.00  0.00    +0.000 OA
ATOM     23  H   UNL     1      45.496   6.969  11.221  0.00  0.00    +0.000 HD
BRANCH  21  24
ATOM     24  C   UNL     1      44.931   4.618  12.074  0.00  0.00    +0.000 A 
ATOM     25  C   UNL     1      44.096   3.736  12.745  0.00  0.00    +0.000 A 
ATOM     26  S   UNL     1      43.399   2.559  11.722  0.00  0.00    +0.000 S 
ATOM     27  C   UNL     1      44.207   3.183  10.360  0.00  0.00    +0.000 A 
ATOM     28  N   UNL     1      44.086   2.604   9.136  0.00  0.00    +0.000 NA
ATOM     29  C   UNL     1      44.780   3.174   8.208  0.00  0.00    +0.000 A 
ATOM     30  N   UNL     1      45.576   4.276   8.385  0.00  0.00    +0.000 N 
ATOM     31  C   UNL     1      45.696   4.913   9.590  0.00  0.00    +0.000 A 
ATOM     32  O   UNL     1      46.355   5.950   9.705  0.00  0.00    +0.000 OA
ATOM     33  C   UNL     1      44.967   4.295  10.674  0.00  0.00    +0.000 A 
ATOM     34  H   UNL     1      46.069   4.690   7.611  0.00  0.00    +0.000 HD
ENDBRANCH  21  24
ENDBRANCH   2  20
TORSDOF 6
ENDMDL
MODEL 8
REMARK VINA RESULT:    -6.316      2.056      2.802
REMARK INTER + INTRA:          -9.430
REMARK INTER:                  -8.189
REMARK INTRA:                  -1.241
REMARK UNBOUND:                -0.898
REMARK  Name = 
REMARK  7 active torsions:
REMARK  status: ('A' for Active; 'I' for Inactive)
REMARK    1  A    between atoms: C_1  and  C_2
REMARK    2  A    between atoms: C_2  and  N_3
REMARK    3  A    between atoms: C_2  and  C_16
REMARK    4  A    between atoms: C_4  and  C_6
REMARK    5  A    between atoms: C_19  and  C_20
REMARK    6  A    between atoms: C_20  and  N_21
REMARK    7  A    between atoms: C_22  and  C_24
REMARK                            x       y       z     vdW  Elec       q    Type
REMARK                         _______ _______ _______ _____ _____    ______ ____
ROOT
ATOM      1  C   UNL     1      50.649   9.760  13.972  0.00  0.00    +0.000 C 
ATOM      2  C   UNL     1      50.387   8.259  14.100  0.00  0.00    +0.000 C 
ENDROOT
BRANCH   2   3
ATOM      3  C   UNL     1      49.064   7.933  13.419  0.00  0.00    +0.000 A 
ATOM      4  C   UNL     1      47.862   8.206  14.077  0.00  0.00    +0.000 A 
ATOM      5  C   UNL     1      46.632   8.048  13.429  0.00  0.00    +0.000 A 
ATOM      6  C   UNL     1      46.563   7.579  12.106  0.00  0.00    +0.000 A 
ATOM      7  C   UNL     1      47.768   7.265  11.465  0.00  0.00    +0.000 A 
ATOM      8  C   UNL     1      49.002   7.418  12.115  0.00  0.00    +0.000 A 
BRANCH   6   9
ATOM      9  C   UNL     1      45.242   7.388  11.385  0.00  0.00    +0.000 C 
BRANCH   9  10
ATOM     10  N   UNL     1      45.203   6.227  10.520  0.00  0.00    +0.000 N 
ATOM     11  C   UNL     1      44.881   4.968  10.987  0.00  0.00    +0.000 C 
ATOM     12  O   UNL     1      44.622   4.722  12.148  0.00  0.00    +0.000 OA
ATOM     13  H   UNL     1      45.230   6.362   9.522  0.00  0.00    +0.000 HD
BRANCH  11  14
ATOM     14  C   UNL     1      44.882   3.959   9.946  0.00  0.00    +0.000 A 
ATOM     15  C   UNL     1      45.122   4.009   8.586  0.00  0.00    +0.000 A 
ATOM     16  C   UNL     1      45.013   2.684   8.137  0.00  0.00    +0.000 A 
ATOM     17  N   UNL     1      44.693   1.845   9.122  0.00  0.00    +0.000 NA
ATOM     18  N   UNL     1      44.631   2.637  10.210  0.00  0.00    +0.000 N 
ATOM     19  H   UNL     1      44.419   2.218  11.109  0.00  0.00    +0.000 HD
ENDBRANCH  11  14
ENDBRANCH   9  10
ENDBRANCH   6   9
ENDBRANCH   2   3
BRANCH   2  20
ATOM     20  N   UNL     1      50.350   7.832  15.491  0.00  0.00    +0.000 N 
ATOM     21  C   UNL     1      51.425   7.248  16.116  0.00  0.00    +0.000 C 
ATOM     22  O   UNL     1      52.497   7.044  15.555  0.00  0.00    +0.000 OA
ATOM     23  H   UNL     1      49.431   7.668  15.891  0.00  0.00    +0.000 HD
BRANCH  21  24
ATOM     24  C   UNL     1      51.256   6.930  17.533  0.00  0.00    +0.000 A 
ATOM     25  C   UNL     1      52.089   7.492  18.490  0.00  0.00    +0.000 A 
ATOM     26  S   UNL     1      51.753   6.952  20.075  0.00  0.00    +0.000 S 
ATOM     27  C   UNL     1      50.501   5.939  19.525  0.00  0.00    +0.000 A 
ATOM     28  N   UNL     1      49.807   5.141  20.379  0.00  0.00    +0.000 NA
ATOM     29  C   UNL     1      48.906   4.411  19.811  0.00  0.00    +0.000 A 
ATOM     30  N   UNL     1      48.626   4.411  18.469  0.00  0.00    +0.000 N 
ATOM     31  C   UNL     1      49.272   5.226  17.580  0.00  0.00    +0.000 A 
ATOM     32  O   UNL     1      48.946   5.265  16.391  0.00  0.00    +0.000 OA
ATOM     33  C   UNL     1      50.317   6.041  18.158  0.00  0.00    +0.000 A 
ATOM     34  H   UNL     1      47.889   3.837  18.092  0.00  0.00    +0.000 HD
ENDBRANCH  21  24
ENDBRANCH   2  20
TORSDOF 6
ENDMDL
MODEL 9
REMARK VINA RESULT:    -6.172      5.845      8.544
REMARK INTER + INTRA:          -9.235
REMARK INTER:                  -8.121
REMARK INTRA:                  -1.114
REMARK UNBOUND:                -0.898
REMARK  Name = 
REMARK  7 active torsions:
REMARK  status: ('A' for Active; 'I' for Inactive)
REMARK    1  A    between atoms: C_1  and  C_2
REMARK    2  A    between atoms: C_2  and  N_3
REMARK    3  A    between atoms: C_2  and  C_16
REMARK    4  A    between atoms: C_4  and  C_6
REMARK    5  A    between atoms: C_19  and  C_20
REMARK    6  A    between atoms: C_20  and  N_21
REMARK    7  A    between atoms: C_22  and  C_24
REMARK                            x       y       z     vdW  Elec       q    Type
REMARK                         _______ _______ _______ _____ _____    ______ ____
ROOT
ATOM      1  C   UNL     1      52.338   8.503  12.642  0.00  0.00    +0.000 C 
ATOM      2  C   UNL     1      51.524   9.188  11.544  0.00  0.00    +0.000 C 
ENDROOT
BRANCH   2   3
ATOM      3  C   UNL     1      50.043   8.984  11.832  0.00  0.00    +0.000 A 
ATOM      4  C   UNL     1      49.551   7.694  12.045  0.00  0.00    +0.000 A 
ATOM      5  C   UNL     1      48.228   7.482  12.447  0.00  0.00    +0.000 A 
ATOM      6  C   UNL     1      47.340   8.557  12.618  0.00  0.00    +0.000 A 
ATOM      7  C   UNL     1      47.825   9.847  12.361  0.00  0.00    +0.000 A 
ATOM      8  C   UNL     1      49.150  10.060  11.953  0.00  0.00    +0.000 A 
BRANCH   6   9
ATOM      9  C   UNL     1      45.898   8.354  13.041  0.00  0.00    +0.000 C 
BRANCH   9  10
ATOM     10  N   UNL     1      45.431   6.989  12.918  0.00  0.00    +0.000 N 
ATOM     11  C   UNL     1      44.471   6.616  11.997  0.00  0.00    +0.000 C 
ATOM     12  O   UNL     1      43.930   7.390  11.232  0.00  0.00    +0.000 OA
ATOM     13  H   UNL     1      45.942   6.255  13.382  0.00  0.00    +0.000 HD
BRANCH  11  14
ATOM     14  C   UNL     1      44.171   5.199  12.033  0.00  0.00    +0.000 A 
ATOM     15  C   UNL     1      43.649   4.323  11.100  0.00  0.00    +0.000 A 
ATOM     16  C   UNL     1      43.641   3.068  11.728  0.00  0.00    +0.000 A 
ATOM     17  N   UNL     1      44.091   3.130  12.981  0.00  0.00    +0.000 NA
ATOM     18  N   UNL     1      44.417   4.427  13.139  0.00  0.00    +0.000 N 
ATOM     19  H   UNL     1      44.810   4.729  14.025  0.00  0.00    +0.000 HD
ENDBRANCH  11  14
ENDBRANCH   9  10
ENDBRANCH   6   9
ENDBRANCH   2   3
BRANCH   2  20
ATOM     20  N   UNL     1      51.852   8.669  10.224  0.00  0.00    +0.000 N 
ATOM     21  C   UNL     1      52.908   9.141   9.482  0.00  0.00    +0.000 C 
ATOM     22  O   UNL     1      53.658  10.030   9.875  0.00  0.00    +0.000 OA
ATOM     23  H   UNL     1      51.104   8.196   9.724  0.00  0.00    +0.000 HD
BRANCH  21  24
ATOM     24  C   UNL     1      53.148   8.478   8.202  0.00  0.00    +0.000 A 
ATOM     25  C   UNL     1      53.109   9.194   7.014  0.00  0.00    +0.000 A 
ATOM     26  S   UNL     1      53.368   8.223   5.634  0.00  0.00    +0.000 S 
ATOM     27  C   UNL     1      53.521   6.817   6.582  0.00  0.00    +0.000 A 
ATOM     28  N   UNL     1      53.715   5.597   6.016  0.00  0.00    +0.000 NA
ATOM     29  C   UNL     1      53.784   4.624   6.861  0.00  0.00    +0.000 A 
ATOM     30  N   UNL     1      53.689   4.757   8.223  0.00  0.00    +0.000 N 
ATOM     31  C   UNL     1      53.533   5.969   8.836  0.00  0.00    +0.000 A 
ATOM     32  O   UNL     1      53.531   6.071  10.066  0.00  0.00    +0.000 OA
ATOM     33  C   UNL     1      53.414   7.091   7.933  0.00  0.00    +0.000 A 
ATOM     34  H   UNL     1      53.781   3.959   8.830  0.00  0.00    +0.000 HD
ENDBRANCH  21  24
ENDBRANCH   2  20
TORSDOF 6
ENDMDL
