MODEL 1
REMARK VINA RESULT:    -8.378      0.000      0.000
REMARK INTER + INTRA:         -12.680
REMARK INTER:                 -12.051
REMARK INTRA:                  -0.629
REMARK UNBOUND:                -0.629
REMARK  Name = 
REMARK  8 active torsions:
REMARK  status: ('A' for Active; 'I' for Inactive)
REMARK    1  A    between atoms: N_1  and  C_2
REMARK    2  A    between atoms: C_2  and  C_3
REMARK    3  A    between atoms: C_3  and  N_4
REMARK    4  A    between atoms: C_3  and  C_17
REMARK    5  A    between atoms: C_5  and  C_7
REMARK    6  A    between atoms: C_20  and  O_21
REMARK    7  A    between atoms: O_21  and  C_22
REMARK    8  A    between atoms: C_22  and  C_23
REMARK                            x       y       z     vdW  Elec       q    Type
REMARK                         _______ _______ _______ _____ _____    ______ ____
ROOT
ATOM      1  C   UNL     1      46.433   8.061  13.088  0.00  0.00    +0.000 C 
ENDROOT
BRANCH   1   2
ATOM      2  C   UNL     1      45.799   6.883  12.358  0.00  0.00    +0.000 A 
ATOM      3  C   UNL     1      46.045   6.679  10.992  0.00  0.00    +0.000 A 
ATOM      4  C   UNL     1      45.656   5.484  10.373  0.00  0.00    +0.000 A 
ATOM      5  C   UNL     1      45.019   4.491  11.114  0.00  0.00    +0.000 A 
ATOM      6  C   UNL     1      44.611   4.766  12.417  0.00  0.00    +0.000 A 
ATOM      7  C   UNL     1      44.990   5.956  13.030  0.00  0.00    +0.000 A 
BRANCH   5   8
ATOM      8  O   UNL     1      44.864   3.271  10.508  0.00  0.00    +0.000 OA
BRANCH   8   9
ATOM      9  C   UNL     1      44.516   3.369   9.116  0.00  0.00    +0.000 C 
BRANCH   9  10
ATOM     10  C   UNL     1      45.565   2.725   8.244  0.00  0.00    +0.000 A 
ATOM     11  C   UNL     1      46.245   3.482   7.291  0.00  0.00    +0.000 A 
ATOM     12  C   UNL     1      47.243   2.874   6.538  0.00  0.00    +0.000 A 
ATOM     13  C   UNL     1      47.542   1.534   6.759  0.00  0.00    +0.000 A 
ATOM     14  C   UNL     1      46.831   0.857   7.735  0.00  0.00    +0.000 A 
ATOM     15  N   UNL     1      45.860   1.421   8.483  0.00  0.00    +0.000 NA
ENDBRANCH   9  10
ENDBRANCH   8   9
ENDBRANCH   5   8
ENDBRANCH   1   2
BRANCH   1  16
ATOM     16  N   UNL     1      47.123   7.582  14.268  0.00  0.00    +0.000 N 
ATOM     17  C   UNL     1      48.166   6.696  14.225  0.00  0.00    +0.000 C 
ATOM     18  O   UNL     1      48.646   6.309  13.165  0.00  0.00    +0.000 OA
ATOM     19  H   UNL     1      46.682   7.809  15.151  0.00  0.00    +0.000 HD
BRANCH  17  20
ATOM     20  C   UNL     1      48.695   6.243  15.523  0.00  0.00    +0.000 A 
ATOM     21  C   UNL     1      49.708   6.963  16.145  0.00  0.00    +0.000 A 
ATOM     22  S   UNL     1      50.157   6.340  17.669  0.00  0.00    +0.000 S 
ATOM     23  C   UNL     1      49.037   5.066  17.542  0.00  0.00    +0.000 A 
ATOM     24  N   UNL     1      48.903   4.151  18.540  0.00  0.00    +0.000 NA
ATOM     25  C   UNL     1      48.028   3.231  18.310  0.00  0.00    +0.000 A 
ATOM     26  N   UNL     1      47.281   3.136  17.166  0.00  0.00    +0.000 N 
ATOM     27  C   UNL     1      47.399   4.023  16.126  0.00  0.00    +0.000 A 
ATOM     28  O   UNL     1      46.747   3.869  15.096  0.00  0.00    +0.000 OA
ATOM     29  C   UNL     1      48.342   5.104  16.346  0.00  0.00    +0.000 A 
ATOM     30  H   UNL     1      46.626   2.381  17.032  0.00  0.00    +0.000 HD
ENDBRANCH  17  20
ENDBRANCH   1  16
BRANCH   1  31
ATOM     31  C   UNL     1      47.376   8.916  12.175  0.00  0.00    +0.000 C 
BRANCH  31  32
ATOM     32  N   UNL     1      47.449  10.334  12.553  0.00  0.00    +0.000 NA
ATOM     33  H   UNL     1      48.416  10.647  12.500  0.00  0.00    +0.000 HD
ATOM     34  H   UNL     1      47.166  10.435  13.527  0.00  0.00    +0.000 HD
ENDBRANCH  31  32
ENDBRANCH   1  31
TORSDOF 8
ENDMDL
MODEL 2
REMARK VINA RESULT:    -8.032      2.611      3.653
REMARK INTER + INTRA:         -12.182
REMARK INTER:                 -10.775
REMARK INTRA:                  -1.406
REMARK UNBOUND:                -0.629
REMARK  Name = 
REMARK  8 active torsions:
REMARK  status: ('A' for Active; 'I' for Inactive)
REMARK    1  A    between atoms: N_1  and  C_2
REMARK    2  A    between atoms: C_2  and  C_3
REMARK    3  A    between atoms: C_3  and  N_4
REMARK    4  A    between atoms: C_3  and  C_17
REMARK    5  A    between atoms: C_5  and  C_7
REMARK    6  A    between atoms: C_20  and  O_21
REMARK    7  A    between atoms: O_21  and  C_22
REMARK    8  A    between atoms: C_22  and  C_23
REMARK                            x       y       z     vdW  Elec       q    Type
REMARK                         _______ _______ _______ _____ _____    ______ ____
ROOT
ATOM      1  C   UNL     1      47.731   5.125  14.669  0.00  0.00    +0.000 C 
ENDROOT
BRANCH   1   2
ATOM      2  C   UNL     1      46.738   5.039  13.515  0.00  0.00    +0.000 A 
ATOM      3  C   UNL     1      46.663   6.070  12.566  0.00  0.00    +0.000 A 
ATOM      4  C   UNL     1      45.924   5.895  11.389  0.00  0.00    +0.000 A 
ATOM      5  C   UNL     1      45.259   4.693  11.155  0.00  0.00    +0.000 A 
ATOM      6  C   UNL     1      45.181   3.746  12.173  0.00  0.00    +0.000 A 
ATOM      7  C   UNL     1      45.907   3.922  13.346  0.00  0.00    +0.000 A 
BRANCH   5   8
ATOM      8  O   UNL     1      44.743   4.507   9.898  0.00  0.00    +0.000 OA
BRANCH   8   9
ATOM      9  C   UNL     1      44.518   3.124   9.576  0.00  0.00    +0.000 C 
BRANCH   9  10
ATOM     10  C   UNL     1      45.472   2.649   8.509  0.00  0.00    +0.000 A 
ATOM     11  C   UNL     1      45.942   3.539   7.544  0.00  0.00    +0.000 A 
ATOM     12  C   UNL     1      46.862   3.086   6.604  0.00  0.00    +0.000 A 
ATOM     13  C   UNL     1      47.293   1.765   6.656  0.00  0.00    +0.000 A 
ATOM     14  C   UNL     1      46.790   0.950   7.656  0.00  0.00    +0.000 A 
ATOM     15  N   UNL     1      45.900   1.362   8.583  0.00  0.00    +0.000 NA
ENDBRANCH   9  10
ENDBRANCH   8   9
ENDBRANCH   5   8
ENDBRANCH   1   2
BRANCH   1  16
ATOM     16  N   UNL     1      47.795   6.491  15.147  0.00  0.00    +0.000 N 
ATOM     17  C   UNL     1      48.970   7.154  15.384  0.00  0.00    +0.000 C 
ATOM     18  O   UNL     1      50.060   6.656  15.123  0.00  0.00    +0.000 OA
ATOM     19  H   UNL     1      46.916   6.882  15.462  0.00  0.00    +0.000 HD
BRANCH  17  20
ATOM     20  C   UNL     1      48.854   8.507  15.953  0.00  0.00    +0.000 A 
ATOM     21  C   UNL     1      49.268   9.607  15.211  0.00  0.00    +0.000 A 
ATOM     22  S   UNL     1      49.005  11.101  15.991  0.00  0.00    +0.000 S 
ATOM     23  C   UNL     1      48.358  10.334  17.365  0.00  0.00    +0.000 A 
ATOM     24  N   UNL     1      47.918  11.061  18.428  0.00  0.00    +0.000 NA
ATOM     25  C   UNL     1      47.463  10.354  19.408  0.00  0.00    +0.000 A 
ATOM     26  N   UNL     1      47.419   8.986  19.426  0.00  0.00    +0.000 N 
ATOM     27  C   UNL     1      47.871   8.214  18.387  0.00  0.00    +0.000 A 
ATOM     28  O   UNL     1      47.861   6.988  18.467  0.00  0.00    +0.000 OA
ATOM     29  C   UNL     1      48.359   8.956  17.239  0.00  0.00    +0.000 A 
ATOM     30  H   UNL     1      47.073   8.485  20.231  0.00  0.00    +0.000 HD
ENDBRANCH  17  20
ENDBRANCH   1  16
BRANCH   1  31
ATOM     31  C   UNL     1      47.415   4.122  15.830  0.00  0.00    +0.000 C 
BRANCH  31  32
ATOM     32  N   UNL     1      46.915   4.763  17.053  0.00  0.00    +0.000 NA
ATOM     33  H   UNL     1      45.946   5.045  16.914  0.00  0.00    +0.000 HD
ATOM     34  H   UNL     1      47.443   5.618  17.223  0.00  0.00    +0.000 HD
ENDBRANCH  31  32
ENDBRANCH   1  31
TORSDOF 8
ENDMDL
MODEL 3
REMARK VINA RESULT:    -7.970      1.908      2.267
REMARK INTER + INTRA:         -12.093
REMARK INTER:                 -10.778
REMARK INTRA:                  -1.315
REMARK UNBOUND:                -0.629
REMARK  Name = 
REMARK  8 active torsions:
REMARK  status: ('A' for Active; 'I' for Inactive)
REMARK    1  A    between atoms: N_1  and  C_2
REMARK    2  A    between atoms: C_2  and  C_3
REMARK    3  A    between atoms: C_3  and  N_4
REMARK    4  A    between atoms: C_3  and  C_17
REMARK    5  A    between atoms: C_5  and  C_7
REMARK    6  A    between atoms: C_20  and  O_21
REMARK    7  A    between atoms: O_21  and  C_22
REMARK    8  A    between atoms: C_22  and  C_23
REMARK                            x       y       z     vdW  Elec       q    Type
REMARK                         _______ _______ _______ _____ _____    ______ ____
ROOT
ATOM      1  C   UNL     1      47.463   7.841  12.967  0.00  0.00    +0.000 C 
ENDROOT
BRANCH   1   2
ATOM      2  C   UNL     1      46.556   6.688  12.552  0.00  0.00    +0.000 A 
ATOM      3  C   UNL     1      45.792   6.773  11.379  0.00  0.00    +0.000 A 
ATOM      4  C   UNL     1      45.140   5.641  10.875  0.00  0.00    +0.000 A 
ATOM      5  C   UNL     1      45.246   4.421  11.540  0.00  0.00    +0.000 A 
ATOM      6  C   UNL     1      45.847   4.378  12.796  0.00  0.00    +0.000 A 
ATOM      7  C   UNL     1      46.488   5.504  13.301  0.00  0.00    +0.000 A 
BRANCH   5   8
ATOM      8  O   UNL     1      44.772   3.315  10.883  0.00  0.00    +0.000 OA
BRANCH   8   9
ATOM      9  C   UNL     1      44.392   3.583   9.522  0.00  0.00    +0.000 C 
BRANCH   9  10
ATOM     10  C   UNL     1      45.344   2.930   8.551  0.00  0.00    +0.000 A 
ATOM     11  C   UNL     1      45.932   3.682   7.535  0.00  0.00    +0.000 A 
ATOM     12  C   UNL     1      46.847   3.066   6.688  0.00  0.00    +0.000 A 
ATOM     13  C   UNL     1      47.155   1.724   6.879  0.00  0.00    +0.000 A 
ATOM     14  C   UNL     1      46.539   1.052   7.921  0.00  0.00    +0.000 A 
ATOM     15  N   UNL     1      45.651   1.624   8.761  0.00  0.00    +0.000 NA
ENDBRANCH   9  10
ENDBRANCH   8   9
ENDBRANCH   5   8
ENDBRANCH   1   2
BRANCH   1  16
ATOM     16  N   UNL     1      47.611   7.842  14.408  0.00  0.00    +0.000 N 
ATOM     17  C   UNL     1      48.146   8.889  15.111  0.00  0.00    +0.000 C 
ATOM     18  O   UNL     1      48.463   9.942  14.568  0.00  0.00    +0.000 OA
ATOM     19  H   UNL     1      47.450   6.951  14.861  0.00  0.00    +0.000 HD
BRANCH  17  20
ATOM     20  C   UNL     1      48.306   8.688  16.562  0.00  0.00    +0.000 A 
ATOM     21  C   UNL     1      47.925   9.693  17.444  0.00  0.00    +0.000 A 
ATOM     22  S   UNL     1      48.117   9.273  19.086  0.00  0.00    +0.000 S 
ATOM     23  C   UNL     1      48.747   7.745  18.681  0.00  0.00    +0.000 A 
ATOM     24  N   UNL     1      49.113   6.861  19.649  0.00  0.00    +0.000 NA
ATOM     25  C   UNL     1      49.588   5.746  19.205  0.00  0.00    +0.000 A 
ATOM     26  N   UNL     1      49.739   5.438  17.879  0.00  0.00    +0.000 N 
ATOM     27  C   UNL     1      49.404   6.306  16.872  0.00  0.00    +0.000 A 
ATOM     28  O   UNL     1      49.605   6.009  15.697  0.00  0.00    +0.000 OA
ATOM     29  C   UNL     1      48.828   7.564  17.312  0.00  0.00    +0.000 A 
ATOM     30  H   UNL     1      50.137   4.558  17.590  0.00  0.00    +0.000 HD
ENDBRANCH  17  20
ENDBRANCH   1  16
BRANCH   1  31
ATOM     31  C   UNL     1      48.852   7.825  12.244  0.00  0.00    +0.000 C 
BRANCH  31  32
ATOM     32  N   UNL     1      49.762   6.776  12.723  0.00  0.00    +0.000 NA
ATOM     33  H   UNL     1      50.697   6.951  12.362  0.00  0.00    +0.000 HD
ATOM     34  H   UNL     1      49.468   5.878  12.341  0.00  0.00    +0.000 HD
ENDBRANCH  31  32
ENDBRANCH   1  31
TORSDOF 8
ENDMDL
MODEL 4
REMARK VINA RESULT:    -7.754      2.509      3.242
REMARK INTER + INTRA:         -11.783
REMARK INTER:                 -10.589
REMARK INTRA:                  -1.193
REMARK UNBOUND:                -0.629
REMARK  Name = 
REMARK  8 active torsions:
REMARK  status: ('A' for Active; 'I' for Inactive)
REMARK    1  A    between atoms: N_1  and  C_2
REMARK    2  A    between atoms: C_2  and  C_3
REMARK    3  A    between atoms: C_3  and  N_4
REMARK    4  A    between atoms: C_3  and  C_17
REMARK    5  A    between atoms: C_5  and  C_7
REMARK    6  A    between atoms: C_20  and  O_21
REMARK    7  A    between atoms: O_21  and  C_22
REMARK    8  A    between atoms: C_22  and  C_23
REMARK                            x       y       z     vdW  Elec       q    Type
REMARK                         _______ _______ _______ _____ _____    ______ ____
ROOT
ATOM      1  C   UNL     1      48.201   6.674  15.515  0.00  0.00    +0.000 C 
ENDROOT
BRANCH   1   2
ATOM      2  C   UNL     1      47.516   5.938  14.369  0.00  0.00    +0.000 A 
ATOM      3  C   UNL     1      47.065   4.620  14.541  0.00  0.00    +0.000 A 
ATOM      4  C   UNL     1      46.241   4.023  13.579  0.00  0.00    +0.000 A 
ATOM      5  C   UNL     1      45.865   4.737  12.443  0.00  0.00    +0.000 A 
ATOM      6  C   UNL     1      46.459   5.969  12.182  0.00  0.00    +0.000 A 
ATOM      7  C   UNL     1      47.285   6.560  13.134  0.00  0.00    +0.000 A 
BRANCH   5   8
ATOM      8  O   UNL     1      44.889   4.180  11.657  0.00  0.00    +0.000 OA
BRANCH   8   9
ATOM      9  C   UNL     1      44.776   4.802  10.365  0.00  0.00    +0.000 C 
BRANCH   9  10
ATOM     10  C   UNL     1      45.416   3.955   9.294  0.00  0.00    +0.000 A 
ATOM     11  C   UNL     1      45.328   2.565   9.353  0.00  0.00    +0.000 A 
ATOM     12  C   UNL     1      45.881   1.813   8.323  0.00  0.00    +0.000 A 
ATOM     13  C   UNL     1      46.501   2.464   7.262  0.00  0.00    +0.000 A 
ATOM     14  C   UNL     1      46.533   3.848   7.271  0.00  0.00    +0.000 A 
ATOM     15  N   UNL     1      46.002   4.604   8.254  0.00  0.00    +0.000 NA
ENDBRANCH   9  10
ENDBRANCH   8   9
ENDBRANCH   5   8
ENDBRANCH   1   2
BRANCH   1  16
ATOM     16  N   UNL     1      49.297   5.870  16.016  0.00  0.00    +0.000 N 
ATOM     17  C   UNL     1      49.579   5.724  17.348  0.00  0.00    +0.000 C 
ATOM     18  O   UNL     1      48.862   6.203  18.220  0.00  0.00    +0.000 OA
ATOM     19  H   UNL     1      49.956   5.551  15.317  0.00  0.00    +0.000 HD
BRANCH  17  20
ATOM     20  C   UNL     1      50.784   4.945  17.680  0.00  0.00    +0.000 A 
ATOM     21  C   UNL     1      51.900   5.588  18.203  0.00  0.00    +0.000 A 
ATOM     22  S   UNL     1      53.182   4.531  18.592  0.00  0.00    +0.000 S 
ATOM     23  C   UNL     1      52.307   3.178  18.046  0.00  0.00    +0.000 A 
ATOM     24  N   UNL     1      52.842   1.928  18.110  0.00  0.00    +0.000 NA
ATOM     25  C   UNL     1      52.078   0.994  17.652  0.00  0.00    +0.000 A 
ATOM     26  N   UNL     1      50.831   1.198  17.125  0.00  0.00    +0.000 N 
ATOM     27  C   UNL     1      50.262   2.442  17.021  0.00  0.00    +0.000 A 
ATOM     28  O   UNL     1      49.162   2.585  16.493  0.00  0.00    +0.000 OA
ATOM     29  C   UNL     1      51.061   3.528  17.557  0.00  0.00    +0.000 A 
ATOM     30  H   UNL     1      50.287   0.431  16.760  0.00  0.00    +0.000 HD
ENDBRANCH  17  20
ENDBRANCH   1  16
BRANCH   1  31
ATOM     31  C   UNL     1      48.672   8.116  15.127  0.00  0.00    +0.000 C 
BRANCH  31  32
ATOM     32  N   UNL     1      47.713   9.172  15.476  0.00  0.00    +0.000 NA
ATOM     33  H   UNL     1      47.411   9.647  14.628  0.00  0.00    +0.000 HD
ATOM     34  H   UNL     1      48.181   9.873  16.049  0.00  0.00    +0.000 HD
ENDBRANCH  31  32
ENDBRANCH   1  31
TORSDOF 8
ENDMDL
MODEL 5
REMARK VINA RESULT:    -7.725      2.094      3.044
REMARK INTER + INTRA:         -11.741
REMARK INTER:                 -10.615
REMARK INTRA:                  -1.125
REMARK UNBOUND:                -0.629
REMARK  Name = 
REMARK  8 active torsions:
REMARK  status: ('A' for Active; 'I' for Inactive)
REMARK    1  A    between atoms: N_1  and  C_2
REMARK    2  A    between atoms: C_2  and  C_3
REMARK    3  A    between atoms: C_3  and  N_4
REMARK    4  A    between atoms: C_3  and  C_17
REMARK    5  A    between atoms: C_5  and  C_7
REMARK    6  A    between atoms: C_20  and  O_21
REMARK    7  A    between atoms: O_21  and  C_22
REMARK    8  A    between atoms: C_22  and  C_23
REMARK                            x       y       z     vdW  Elec       q    Type
REMARK                         _______ _______ _______ _____ _____    ______ ____
ROOT
ATOM      1  C   UNL     1      46.744   7.564  13.326  0.00  0.00    +0.000 C 
ENDROOT
BRANCH   1   2
ATOM      2  C   UNL     1      46.027   6.365  12.715  0.00  0.00    +0.000 A 
ATOM      3  C   UNL     1      45.607   6.397  11.377  0.00  0.00    +0.000 A 
ATOM      4  C   UNL     1      45.157   5.229  10.748  0.00  0.00    +0.000 A 
ATOM      5  C   UNL     1      45.123   4.027  11.452  0.00  0.00    +0.000 A 
ATOM      6  C   UNL     1      45.362   4.032  12.824  0.00  0.00    +0.000 A 
ATOM      7  C   UNL     1      45.802   5.194  13.451  0.00  0.00    +0.000 A 
BRANCH   5   8
ATOM      8  O   UNL     1      44.885   2.890  10.723  0.00  0.00    +0.000 OA
BRANCH   8   9
ATOM      9  C   UNL     1      44.523   3.157   9.358  0.00  0.00    +0.000 C 
BRANCH   9  10
ATOM     10  C   UNL     1      45.564   2.626   8.403  0.00  0.00    +0.000 A 
ATOM     11  C   UNL     1      46.194   3.486   7.505  0.00  0.00    +0.000 A 
ATOM     12  C   UNL     1      47.187   2.979   6.674  0.00  0.00    +0.000 A 
ATOM     13  C   UNL     1      47.530   1.635   6.765  0.00  0.00    +0.000 A 
ATOM     14  C   UNL     1      46.868   0.851   7.695  0.00  0.00    +0.000 A 
ATOM     15  N   UNL     1      45.902   1.316   8.516  0.00  0.00    +0.000 NA
ENDBRANCH   9  10
ENDBRANCH   8   9
ENDBRANCH   5   8
ENDBRANCH   1   2
BRANCH   1  16
ATOM     16  N   UNL     1      47.835   7.099  14.159  0.00  0.00    +0.000 N 
ATOM     17  C   UNL     1      48.434   7.871  15.118  0.00  0.00    +0.000 C 
ATOM     18  O   UNL     1      48.027   8.994  15.396  0.00  0.00    +0.000 OA
ATOM     19  H   UNL     1      48.249   6.218  13.880  0.00  0.00    +0.000 HD
BRANCH  17  20
ATOM     20  C   UNL     1      49.588   7.273  15.812  0.00  0.00    +0.000 A 
ATOM     21  C   UNL     1      49.386   6.514  16.958  0.00  0.00    +0.000 A 
ATOM     22  S   UNL     1      50.818   5.843  17.598  0.00  0.00    +0.000 S 
ATOM     23  C   UNL     1      51.767   6.568  16.386  0.00  0.00    +0.000 A 
ATOM     24  N   UNL     1      53.115   6.381  16.349  0.00  0.00    +0.000 NA
ATOM     25  C   UNL     1      53.714   6.998  15.387  0.00  0.00    +0.000 A 
ATOM     26  N   UNL     1      53.089   7.794  14.464  0.00  0.00    +0.000 N 
ATOM     27  C   UNL     1      51.738   8.027  14.477  0.00  0.00    +0.000 A 
ATOM     28  O   UNL     1      51.227   8.790  13.661  0.00  0.00    +0.000 OA
ATOM     29  C   UNL     1      51.005   7.327  15.516  0.00  0.00    +0.000 A 
ATOM     30  H   UNL     1      53.614   8.270  13.746  0.00  0.00    +0.000 HD
ENDBRANCH  17  20
ENDBRANCH   1  16
BRANCH   1  31
ATOM     31  C   UNL     1      47.234   8.599  12.258  0.00  0.00    +0.000 C 
BRANCH  31  32
ATOM     32  N   UNL     1      46.890   9.991  12.574  0.00  0.00    +0.000 NA
ATOM     33  H   UNL     1      47.745  10.530  12.697  0.00  0.00    +0.000 HD
ATOM     34  H   UNL     1      46.400  10.020  13.468  0.00  0.00    +0.000 HD
ENDBRANCH  31  32
ENDBRANCH   1  31
TORSDOF 8
ENDMDL
MODEL 6
REMARK VINA RESULT:    -7.668      4.579      8.520
REMARK INTER + INTRA:         -11.658
REMARK INTER:                 -10.580
REMARK INTRA:                  -1.079
REMARK UNBOUND:                -0.629
REMARK  Name = 
REMARK  8 active torsions:
REMARK  status: ('A' for Active; 'I' for Inactive)
REMARK    1  A    between atoms: N_1  and  C_2
REMARK    2  A    between atoms: C_2  and  C_3
REMARK    3  A    between atoms: C_3  and  N_4
REMARK    4  A    between atoms: C_3  and  C_17
REMARK    5  A    between atoms: C_5  and  C_7
REMARK    6  A    between atoms: C_20  and  O_21
REMARK    7  A    between atoms: O_21  and  C_22
REMARK    8  A    between atoms: C_22  and  C_23
REMARK                            x       y       z     vdW  Elec       q    Type
REMARK                         _______ _______ _______ _____ _____    ______ ____
ROOT
ATOM      1  C   UNL     1      48.695   5.768  17.159  0.00  0.00    +0.000 C 
ENDROOT
BRANCH   1   2
ATOM      2  C   UNL     1      49.586   4.531  17.161  0.00  0.00    +0.000 A 
ATOM      3  C   UNL     1      50.959   4.646  17.427  0.00  0.00    +0.000 A 
ATOM      4  C   UNL     1      51.734   3.502  17.654  0.00  0.00    +0.000 A 
ATOM      5  C   UNL     1      51.143   2.241  17.614  0.00  0.00    +0.000 A 
ATOM      6  C   UNL     1      49.830   2.115  17.169  0.00  0.00    +0.000 A 
ATOM      7  C   UNL     1      49.061   3.251  16.936  0.00  0.00    +0.000 A 
BRANCH   5   8
ATOM      8  O   UNL     1      51.903   1.189  18.058  0.00  0.00    +0.000 OA
BRANCH   8   9
ATOM      9  C   UNL     1      53.280   1.272  17.652  0.00  0.00    +0.000 C 
BRANCH   9  10
ATOM     10  C   UNL     1      53.933  -0.088  17.654  0.00  0.00    +0.000 A 
ATOM     11  C   UNL     1      54.747  -0.476  16.591  0.00  0.00    +0.000 A 
ATOM     12  C   UNL     1      55.378  -1.713  16.645  0.00  0.00    +0.000 A 
ATOM     13  C   UNL     1      55.187  -2.526  17.757  0.00  0.00    +0.000 A 
ATOM     14  C   UNL     1      54.376  -2.061  18.778  0.00  0.00    +0.000 A 
ATOM     15  N   UNL     1      53.753  -0.864  18.754  0.00  0.00    +0.000 NA
ENDBRANCH   9  10
ENDBRANCH   8   9
ENDBRANCH   5   8
ENDBRANCH   1   2
BRANCH   1  16
ATOM     16  N   UNL     1      47.823   5.732  16.003  0.00  0.00    +0.000 N 
ATOM     17  C   UNL     1      48.170   6.241  14.780  0.00  0.00    +0.000 C 
ATOM     18  O   UNL     1      49.288   6.692  14.558  0.00  0.00    +0.000 OA
ATOM     19  H   UNL     1      46.867   5.458  16.189  0.00  0.00    +0.000 HD
BRANCH  17  20
ATOM     20  C   UNL     1      47.130   6.202  13.737  0.00  0.00    +0.000 A 
ATOM     21  C   UNL     1      46.671   7.388  13.176  0.00  0.00    +0.000 A 
ATOM     22  S   UNL     1      45.517   7.161  11.939  0.00  0.00    +0.000 S 
ATOM     23  C   UNL     1      45.563   5.470  12.129  0.00  0.00    +0.000 A 
ATOM     24  N   UNL     1      44.798   4.659  11.349  0.00  0.00    +0.000 NA
ATOM     25  C   UNL     1      44.919   3.400  11.607  0.00  0.00    +0.000 A 
ATOM     26  N   UNL     1      45.728   2.879  12.581  0.00  0.00    +0.000 N 
ATOM     27  C   UNL     1      46.499   3.660  13.403  0.00  0.00    +0.000 A 
ATOM     28  O   UNL     1      47.170   3.154  14.299  0.00  0.00    +0.000 OA
ATOM     29  C   UNL     1      46.433   5.085  13.134  0.00  0.00    +0.000 A 
ATOM     30  H   UNL     1      45.765   1.885  12.752  0.00  0.00    +0.000 HD
ENDBRANCH  17  20
ENDBRANCH   1  16
BRANCH   1  31
ATOM     31  C   UNL     1      47.885   5.946  18.488  0.00  0.00    +0.000 C 
BRANCH  31  32
ATOM     32  N   UNL     1      46.590   5.252  18.494  0.00  0.00    +0.000 NA
ATOM     33  H   UNL     1      45.923   5.789  19.047  0.00  0.00    +0.000 HD
ATOM     34  H   UNL     1      46.694   4.353  18.963  0.00  0.00    +0.000 HD
ENDBRANCH  31  32
ENDBRANCH   1  31
TORSDOF 8
ENDMDL
MODEL 7
REMARK VINA RESULT:    -7.194      4.621      8.770
REMARK INTER + INTRA:         -10.977
REMARK INTER:                 -10.088
REMARK INTRA:                  -0.889
REMARK UNBOUND:                -0.629
REMARK  Name = 
REMARK  8 active torsions:
REMARK  status: ('A' for Active; 'I' for Inactive)
REMARK    1  A    between atoms: N_1  and  C_2
REMARK    2  A    between atoms: C_2  and  C_3
REMARK    3  A    between atoms: C_3  and  N_4
REMARK    4  A    between atoms: C_3  and  C_17
REMARK    5  A    between atoms: C_5  and  C_7
REMARK    6  A    between atoms: C_20  and  O_21
REMARK    7  A    between atoms: O_21  and  C_22
REMARK    8  A    between atoms: C_22  and  C_23
REMARK                            x       y       z     vdW  Elec       q    Type
REMARK                         _______ _______ _______ _____ _____    ______ ____
ROOT
ATOM      1  C   UNL     1      48.277   5.439  16.746  0.00  0.00    +0.000 C 
ENDROOT
BRANCH   1   2
ATOM      2  C   UNL     1      49.140   4.232  17.096  0.00  0.00    +0.000 A 
ATOM      3  C   UNL     1      48.674   2.931  16.851  0.00  0.00    +0.000 A 
ATOM      4  C   UNL     1      49.542   1.837  16.956  0.00  0.00    +0.000 A 
ATOM      5  C   UNL     1      50.875   2.036  17.308  0.00  0.00    +0.000 A 
ATOM      6  C   UNL     1      51.290   3.297  17.730  0.00  0.00    +0.000 A 
ATOM      7  C   UNL     1      50.426   4.383  17.633  0.00  0.00    +0.000 A 
BRANCH   5   8
ATOM      8  O   UNL     1      51.716   0.960  17.180  0.00  0.00    +0.000 OA
BRANCH   8   9
ATOM      9  C   UNL     1      53.011   1.178  17.764  0.00  0.00    +0.000 C 
BRANCH   9  10
ATOM     10  C   UNL     1      53.856  -0.070  17.703  0.00  0.00    +0.000 A 
ATOM     11  C   UNL     1      54.609  -0.350  16.564  0.00  0.00    +0.000 A 
ATOM     12  C   UNL     1      55.419  -1.481  16.556  0.00  0.00    +0.000 A 
ATOM     13  C   UNL     1      55.462  -2.294  17.682  0.00  0.00    +0.000 A 
ATOM     14  C   UNL     1      54.696  -1.937  18.779  0.00  0.00    +0.000 A 
ATOM     15  N   UNL     1      53.903  -0.846  18.816  0.00  0.00    +0.000 NA
ENDBRANCH   9  10
ENDBRANCH   8   9
ENDBRANCH   5   8
ENDBRANCH   1   2
BRANCH   1  16
ATOM     16  N   UNL     1      47.335   5.072  15.708  0.00  0.00    +0.000 N 
ATOM     17  C   UNL     1      47.503   5.392  14.388  0.00  0.00    +0.000 C 
ATOM     18  O   UNL     1      48.517   5.946  13.978  0.00  0.00    +0.000 OA
ATOM     19  H   UNL     1      46.450   4.706  16.037  0.00  0.00    +0.000 HD
BRANCH  17  20
ATOM     20  C   UNL     1      46.404   5.020  13.479  0.00  0.00    +0.000 A 
ATOM     21  C   UNL     1      46.170   3.680  13.193  0.00  0.00    +0.000 A 
ATOM     22  S   UNL     1      44.823   3.422  12.178  0.00  0.00    +0.000 S 
ATOM     23  C   UNL     1      44.521   5.092  12.057  0.00  0.00    +0.000 A 
ATOM     24  N   UNL     1      43.476   5.561  11.323  0.00  0.00    +0.000 NA
ATOM     25  C   UNL     1      43.369   6.848  11.305  0.00  0.00    +0.000 A 
ATOM     26  N   UNL     1      44.220   7.708  11.945  0.00  0.00    +0.000 N 
ATOM     27  C   UNL     1      45.298   7.279  12.677  0.00  0.00    +0.000 A 
ATOM     28  O   UNL     1      46.066   8.088  13.192  0.00  0.00    +0.000 OA
ATOM     29  C   UNL     1      45.446   5.838  12.765  0.00  0.00    +0.000 A 
ATOM     30  H   UNL     1      44.101   8.707  11.877  0.00  0.00    +0.000 HD
ENDBRANCH  17  20
ENDBRANCH   1  16
BRANCH   1  31
ATOM     31  C   UNL     1      47.555   6.062  17.988  0.00  0.00    +0.000 C 
BRANCH  31  32
ATOM     32  N   UNL     1      46.521   5.197  18.573  0.00  0.00    +0.000 NA
ATOM     33  H   UNL     1      46.850   4.837  19.467  0.00  0.00    +0.000 HD
ATOM     34  H   UNL     1      46.381   4.388  17.969  0.00  0.00    +0.000 HD
ENDBRANCH  31  32
ENDBRANCH   1  31
TORSDOF 8
ENDMDL
MODEL 8
REMARK VINA RESULT:    -6.930      4.143      7.310
REMARK INTER + INTRA:         -10.598
REMARK INTER:                  -9.492
REMARK INTRA:                  -1.106
REMARK UNBOUND:                -0.629
REMARK  Name = 
REMARK  8 active torsions:
REMARK  status: ('A' for Active; 'I' for Inactive)
REMARK    1  A    between atoms: N_1  and  C_2
REMARK    2  A    between atoms: C_2  and  C_3
REMARK    3  A    between atoms: C_3  and  N_4
REMARK    4  A    between atoms: C_3  and  C_17
REMARK    5  A    between atoms: C_5  and  C_7
REMARK    6  A    between atoms: C_20  and  O_21
REMARK    7  A    between atoms: O_21  and  C_22
REMARK    8  A    between atoms: C_22  and  C_23
REMARK                            x       y       z     vdW  Elec       q    Type
REMARK                         _______ _______ _______ _____ _____    ______ ____
ROOT
ATOM      1  C   UNL     1      46.301   8.383  11.789  0.00  0.00    +0.000 C 
ENDROOT
BRANCH   1   2
ATOM      2  C   UNL     1      47.813   8.453  11.971  0.00  0.00    +0.000 A 
ATOM      3  C   UNL     1      48.535   7.313  12.356  0.00  0.00    +0.000 A 
ATOM      4  C   UNL     1      49.934   7.310  12.304  0.00  0.00    +0.000 A 
ATOM      5  C   UNL     1      50.618   8.444  11.869  0.00  0.00    +0.000 A 
ATOM      6  C   UNL     1      49.916   9.629  11.665  0.00  0.00    +0.000 A 
ATOM      7  C   UNL     1      48.526   9.635  11.725  0.00  0.00    +0.000 A 
BRANCH   5   8
ATOM      8  O   UNL     1      51.962   8.302  11.633  0.00  0.00    +0.000 OA
BRANCH   8   9
ATOM      9  C   UNL     1      52.470   9.237  10.666  0.00  0.00    +0.000 C 
BRANCH   9  10
ATOM     10  C   UNL     1      52.636   8.589   9.315  0.00  0.00    +0.000 A 
ATOM     11  C   UNL     1      52.544   7.204   9.186  0.00  0.00    +0.000 A 
ATOM     12  C   UNL     1      52.648   6.639   7.920  0.00  0.00    +0.000 A 
ATOM     13  C   UNL     1      52.834   7.467   6.818  0.00  0.00    +0.000 A 
ATOM     14  C   UNL     1      52.898   8.834   7.029  0.00  0.00    +0.000 A 
ATOM     15  N   UNL     1      52.798   9.411   8.245  0.00  0.00    +0.000 NA
ENDBRANCH   9  10
ENDBRANCH   8   9
ENDBRANCH   5   8
ENDBRANCH   1   2
BRANCH   1  16
ATOM     16  N   UNL     1      45.911   7.013  11.528  0.00  0.00    +0.000 N 
ATOM     17  C   UNL     1      44.617   6.627  11.301  0.00  0.00    +0.000 C 
ATOM     18  O   UNL     1      43.702   7.440  11.219  0.00  0.00    +0.000 OA
ATOM     19  H   UNL     1      46.630   6.319  11.690  0.00  0.00    +0.000 HD
BRANCH  17  20
ATOM     20  C   UNL     1      44.383   5.181  11.142  0.00  0.00    +0.000 A 
ATOM     21  C   UNL     1      43.646   4.492  12.098  0.00  0.00    +0.000 A 
ATOM     22  S   UNL     1      43.415   2.842  11.728  0.00  0.00    +0.000 S 
ATOM     23  C   UNL     1      44.320   2.979  10.294  0.00  0.00    +0.000 A 
ATOM     24  N   UNL     1      44.505   1.904   9.480  0.00  0.00    +0.000 NA
ATOM     25  C   UNL     1      45.221   2.142   8.433  0.00  0.00    +0.000 A 
ATOM     26  N   UNL     1      45.779   3.356   8.131  0.00  0.00    +0.000 N 
ATOM     27  C   UNL     1      45.637   4.459   8.933  0.00  0.00    +0.000 A 
ATOM     28  O   UNL     1      46.198   5.515   8.651  0.00  0.00    +0.000 OA
ATOM     29  C   UNL     1      44.807   4.260  10.108  0.00  0.00    +0.000 A 
ATOM     30  H   UNL     1      46.350   3.478   7.308  0.00  0.00    +0.000 HD
ENDBRANCH  17  20
ENDBRANCH   1  16
BRANCH   1  31
ATOM     31  C   UNL     1      45.507   8.990  12.995  0.00  0.00    +0.000 C 
BRANCH  31  32
ATOM     32  N   UNL     1      44.528  10.015  12.609  0.00  0.00    +0.000 NA
ATOM     33  H   UNL     1      43.981   9.679  11.819  0.00  0.00    +0.000 HD
ATOM     34  H   UNL     1      45.023  10.845  12.285  0.00  0.00    +0.000 HD
ENDBRANCH  31  32
ENDBRANCH   1  31
TORSDOF 8
ENDMDL
MODEL 9
REMARK VINA RESULT:    -6.566      1.828      2.577
REMARK INTER + INTRA:         -10.074
REMARK INTER:                  -9.001
REMARK INTRA:                  -1.073
REMARK UNBOUND:                -0.629
REMARK  Name = 
REMARK  8 active torsions:
REMARK  status: ('A' for Active; 'I' for Inactive)
REMARK    1  A    between atoms: N_1  and  C_2
REMARK    2  A    between atoms: C_2  and  C_3
REMARK    3  A    between atoms: C_3  and  N_4
REMARK    4  A    between atoms: C_3  and  C_17
REMARK    5  A    between atoms: C_5  and  C_7
REMARK    6  A    between atoms: C_20  and  O_21
REMARK    7  A    between atoms: O_21  and  C_22
REMARK    8  A    between atoms: C_22  and  C_23
REMARK                            x       y       z     vdW  Elec       q    Type
REMARK                         _______ _______ _______ _____ _____    ______ ____
ROOT
ATOM      1  C   UNL     1      48.771   8.748  13.955  0.00  0.00    +0.000 C 
ENDROOT
BRANCH   1   2
ATOM      2  C   UNL     1      47.679   8.291  12.994  0.00  0.00    +0.000 A 
ATOM      3  C   UNL     1      47.902   7.206  12.133  0.00  0.00    +0.000 A 
ATOM      4  C   UNL     1      46.839   6.641  11.417  0.00  0.00    +0.000 A 
ATOM      5  C   UNL     1      45.552   7.157  11.557  0.00  0.00    +0.000 A 
ATOM      6  C   UNL     1      45.364   8.343  12.262  0.00  0.00    +0.000 A 
ATOM      7  C   UNL     1      46.421   8.909  12.967  0.00  0.00    +0.000 A 
BRANCH   5   8
ATOM      8  O   UNL     1      44.530   6.428  11.005  0.00  0.00    +0.000 OA
BRANCH   8   9
ATOM      9  C   UNL     1      44.549   5.043  11.390  0.00  0.00    +0.000 C 
BRANCH   9  10
ATOM     10  C   UNL     1      44.857   4.152  10.213  0.00  0.00    +0.000 A 
ATOM     11  C   UNL     1      44.566   2.790  10.269  0.00  0.00    +0.000 A 
ATOM     12  C   UNL     1      44.812   2.004   9.149  0.00  0.00    +0.000 A 
ATOM     13  C   UNL     1      45.333   2.595   8.004  0.00  0.00    +0.000 A 
ATOM     14  C   UNL     1      45.580   3.957   8.024  0.00  0.00    +0.000 A 
ATOM     15  N   UNL     1      45.349   4.746   9.094  0.00  0.00    +0.000 NA
ENDBRANCH   9  10
ENDBRANCH   8   9
ENDBRANCH   5   8
ENDBRANCH   1   2
BRANCH   1  16
ATOM     16  N   UNL     1      48.928   7.765  15.008  0.00  0.00    +0.000 N 
ATOM     17  C   UNL     1      48.601   8.001  16.316  0.00  0.00    +0.000 C 
ATOM     18  O   UNL     1      48.067   9.046  16.674  0.00  0.00    +0.000 OA
ATOM     19  H   UNL     1      49.456   6.939  14.754  0.00  0.00    +0.000 HD
BRANCH  17  20
ATOM     20  C   UNL     1      48.909   6.923  17.272  0.00  0.00    +0.000 A 
ATOM     21  C   UNL     1      49.584   7.218  18.450  0.00  0.00    +0.000 A 
ATOM     22  S   UNL     1      49.802   5.869  19.472  0.00  0.00    +0.000 S 
ATOM     23  C   UNL     1      49.030   4.833  18.364  0.00  0.00    +0.000 A 
ATOM     24  N   UNL     1      48.871   3.510  18.639  0.00  0.00    +0.000 NA
ATOM     25  C   UNL     1      48.282   2.837  17.709  0.00  0.00    +0.000 A 
ATOM     26  N   UNL     1      47.846   3.365  16.523  0.00  0.00    +0.000 N 
ATOM     27  C   UNL     1      48.005   4.688  16.196  0.00  0.00    +0.000 A 
ATOM     28  O   UNL     1      47.646   5.108  15.099  0.00  0.00    +0.000 OA
ATOM     29  C   UNL     1      48.628   5.503  17.222  0.00  0.00    +0.000 A 
ATOM     30  H   UNL     1      47.411   2.785  15.822  0.00  0.00    +0.000 HD
ENDBRANCH  17  20
ENDBRANCH   1  16
BRANCH   1  31
ATOM     31  C   UNL     1      50.131   9.053  13.242  0.00  0.00    +0.000 C 
BRANCH  31  32
ATOM     32  N   UNL     1      50.071  10.173  12.294  0.00  0.00    +0.000 NA
ATOM     33  H   UNL     1      50.897  10.155  11.698  0.00  0.00    +0.000 HD
ATOM     34  H   UNL     1      50.106  11.051  12.810  0.00  0.00    +0.000 HD
ENDBRANCH  31  32
ENDBRANCH   1  31
TORSDOF 8
ENDMDL
