MODEL 1
REMARK VINA RESULT:    -7.472      0.000      0.000
REMARK INTER + INTRA:          -9.288
REMARK INTER:                  -8.782
REMARK INTRA:                  -0.506
REMARK UNBOUND:                -0.506
REMARK  Name = 
REMARK  4 active torsions:
REMARK  status: ('A' for Active; 'I' for Inactive)
REMARK    1  A    between atoms: C_1  and  O_2
REMARK    2  A    between atoms: O_2  and  C_3
REMARK    3  A    between atoms: N_10  and  C_11
REMARK    4  A    between atoms: C_11  and  C_12
REMARK                            x       y       z     vdW  Elec       q    Type
REMARK                         _______ _______ _______ _____ _____    ______ ____
ROOT
ATOM      1  C   UNL     1      46.629   6.337  12.955  0.00  0.00    +0.000 A 
ATOM      2  C   UNL     1      46.781   6.609  11.599  0.00  0.00    +0.000 A 
ATOM      3  C   UNL     1      46.043   5.912  10.627  0.00  0.00    +0.000 A 
ATOM      4  C   UNL     1      45.154   4.911  11.053  0.00  0.00    +0.000 A 
ATOM      5  C   UNL     1      44.990   4.626  12.417  0.00  0.00    +0.000 A 
ATOM      6  C   UNL     1      44.009   3.597  12.512  0.00  0.00    +0.000 A 
ATOM      7  C   UNL     1      43.613   3.272  11.239  0.00  0.00    +0.000 A 
ATOM      8  N   UNL     1      44.321   4.050  10.357  0.00  0.00    +0.000 N 
ATOM      9  C   UNL     1      45.746   5.333  13.371  0.00  0.00    +0.000 A 
ENDROOT
BRANCH   1  11
ATOM     10  C   UNL     1      48.729   7.021  13.780  0.00  0.00    +0.000 C 
ATOM     11  O   UNL     1      47.315   6.972  13.954  0.00  0.00    +0.000 OA
ENDBRANCH   1  11
BRANCH   8  12
ATOM     12  C   UNL     1      44.275   3.857   8.908  0.00  0.00    +0.000 C 
BRANCH  12  13
ATOM     13  C   UNL     1      45.403   3.040   8.336  0.00  0.00    +0.000 A 
ATOM     14  C   UNL     1      46.197   3.554   7.302  0.00  0.00    +0.000 A 
ATOM     15  C   UNL     1      47.107   2.725   6.642  0.00  0.00    +0.000 A 
ATOM     16  C   UNL     1      47.192   1.403   7.041  0.00  0.00    +0.000 A 
ATOM     17  N   UNL     1      46.478   0.884   8.059  0.00  0.00    +0.000 NA
ATOM     18  C   UNL     1      45.607   1.708   8.683  0.00  0.00    +0.000 A 
ENDBRANCH  12  13
ENDBRANCH   8  12
TORSDOF 3
ENDMDL
MODEL 2
REMARK VINA RESULT:    -6.695      1.839      2.650
REMARK INTER + INTRA:          -8.375
REMARK INTER:                  -7.829
REMARK INTRA:                  -0.545
REMARK UNBOUND:                -0.506
REMARK  Name = 
REMARK  4 active torsions:
REMARK  status: ('A' for Active; 'I' for Inactive)
REMARK    1  A    between atoms: C_1  and  O_2
REMARK    2  A    between atoms: O_2  and  C_3
REMARK    3  A    between atoms: N_10  and  C_11
REMARK    4  A    between atoms: C_11  and  C_12
REMARK                            x       y       z     vdW  Elec       q    Type
REMARK                         _______ _______ _______ _____ _____    ______ ____
ROOT
ATOM      1  C   UNL     1      47.152   4.542  14.464  0.00  0.00    +0.000 A 
ATOM      2  C   UNL     1      46.777   3.402  13.760  0.00  0.00    +0.000 A 
ATOM      3  C   UNL     1      45.973   3.486  12.610  0.00  0.00    +0.000 A 
ATOM      4  C   UNL     1      45.534   4.753  12.192  0.00  0.00    +0.000 A 
ATOM      5  C   UNL     1      45.904   5.910  12.893  0.00  0.00    +0.000 A 
ATOM      6  C   UNL     1      45.327   7.016  12.203  0.00  0.00    +0.000 A 
ATOM      7  C   UNL     1      44.623   6.525  11.132  0.00  0.00    +0.000 A 
ATOM      8  N   UNL     1      44.730   5.156  11.138  0.00  0.00    +0.000 N 
ATOM      9  C   UNL     1      46.703   5.800  14.046  0.00  0.00    +0.000 A 
ENDROOT
BRANCH   1  11
ATOM     10  C   UNL     1      47.371   3.841  16.705  0.00  0.00    +0.000 C 
ATOM     11  O   UNL     1      47.928   4.536  15.591  0.00  0.00    +0.000 OA
ENDBRANCH   1  11
BRANCH   8  12
ATOM     12  C   UNL     1      43.970   4.292  10.235  0.00  0.00    +0.000 C 
BRANCH  12  13
ATOM     13  C   UNL     1      44.784   3.612   9.167  0.00  0.00    +0.000 A 
ATOM     14  C   UNL     1      45.027   2.234   9.230  0.00  0.00    +0.000 A 
ATOM     15  C   UNL     1      45.942   1.645   8.355  0.00  0.00    +0.000 A 
ATOM     16  C   UNL     1      46.586   2.459   7.439  0.00  0.00    +0.000 A 
ATOM     17  N   UNL     1      46.346   3.779   7.318  0.00  0.00    +0.000 NA
ATOM     18  C   UNL     1      45.454   4.323   8.176  0.00  0.00    +0.000 A 
ENDBRANCH  12  13
ENDBRANCH   8  12
TORSDOF 3
ENDMDL
MODEL 3
REMARK VINA RESULT:    -6.670      1.731      2.223
REMARK INTER + INTRA:          -8.346
REMARK INTER:                  -7.897
REMARK INTRA:                  -0.449
REMARK UNBOUND:                -0.506
REMARK  Name = 
REMARK  4 active torsions:
REMARK  status: ('A' for Active; 'I' for Inactive)
REMARK    1  A    between atoms: C_1  and  O_2
REMARK    2  A    between atoms: O_2  and  C_3
REMARK    3  A    between atoms: N_10  and  C_11
REMARK    4  A    between atoms: C_11  and  C_12
REMARK                            x       y       z     vdW  Elec       q    Type
REMARK                         _______ _______ _______ _____ _____    ______ ____
ROOT
ATOM      1  C   UNL     1      45.751   7.896  12.472  0.00  0.00    +0.000 A 
ATOM      2  C   UNL     1      44.859   7.696  11.422  0.00  0.00    +0.000 A 
ATOM      3  C   UNL     1      44.479   6.403  11.023  0.00  0.00    +0.000 A 
ATOM      4  C   UNL     1      45.038   5.304  11.697  0.00  0.00    +0.000 A 
ATOM      5  C   UNL     1      45.938   5.491  12.756  0.00  0.00    +0.000 A 
ATOM      6  C   UNL     1      46.289   4.195  13.237  0.00  0.00    +0.000 A 
ATOM      7  C   UNL     1      45.626   3.268  12.473  0.00  0.00    +0.000 A 
ATOM      8  N   UNL     1      44.887   3.937  11.529  0.00  0.00    +0.000 N 
ATOM      9  C   UNL     1      46.309   6.795  13.133  0.00  0.00    +0.000 A 
ENDROOT
BRANCH   1  11
ATOM     10  C   UNL     1      45.769  10.224  12.098  0.00  0.00    +0.000 C 
ATOM     11  O   UNL     1      46.167   9.123  12.911  0.00  0.00    +0.000 OA
ENDBRANCH   1  11
BRANCH   8  12
ATOM     12  C   UNL     1      44.183   3.261  10.440  0.00  0.00    +0.000 C 
BRANCH  12  13
ATOM     13  C   UNL     1      44.998   3.038   9.194  0.00  0.00    +0.000 A 
ATOM     14  C   UNL     1      45.503   1.765   8.895  0.00  0.00    +0.000 A 
ATOM     15  C   UNL     1      46.419   1.604   7.854  0.00  0.00    +0.000 A 
ATOM     16  C   UNL     1      46.800   2.727   7.140  0.00  0.00    +0.000 A 
ATOM     17  N   UNL     1      46.303   3.959   7.368  0.00  0.00    +0.000 NA
ATOM     18  C   UNL     1      45.416   4.086   8.380  0.00  0.00    +0.000 A 
ENDBRANCH  12  13
ENDBRANCH   8  12
TORSDOF 3
ENDMDL
MODEL 4
REMARK VINA RESULT:    -6.645      2.775      5.874
REMARK INTER + INTRA:          -8.316
REMARK INTER:                  -7.833
REMARK INTRA:                  -0.482
REMARK UNBOUND:                -0.506
REMARK  Name = 
REMARK  4 active torsions:
REMARK  status: ('A' for Active; 'I' for Inactive)
REMARK    1  A    between atoms: C_1  and  O_2
REMARK    2  A    between atoms: O_2  and  C_3
REMARK    3  A    between atoms: N_10  and  C_11
REMARK    4  A    between atoms: C_11  and  C_12
REMARK                            x       y       z     vdW  Elec       q    Type
REMARK                         _______ _______ _______ _____ _____    ______ ____
ROOT
ATOM      1  C   UNL     1      45.990   2.523   8.038  0.00  0.00    +0.000 A 
ATOM      2  C   UNL     1      46.086   3.908   7.950  0.00  0.00    +0.000 A 
ATOM      3  C   UNL     1      45.415   4.746   8.857  0.00  0.00    +0.000 A 
ATOM      4  C   UNL     1      44.620   4.154   9.852  0.00  0.00    +0.000 A 
ATOM      5  C   UNL     1      44.514   2.759   9.953  0.00  0.00    +0.000 A 
ATOM      6  C   UNL     1      43.670   2.486  11.069  0.00  0.00    +0.000 A 
ATOM      7  C   UNL     1      43.277   3.687  11.605  0.00  0.00    +0.000 A 
ATOM      8  N   UNL     1      43.834   4.694  10.856  0.00  0.00    +0.000 N 
ATOM      9  C   UNL     1      45.189   1.941   9.028  0.00  0.00    +0.000 A 
ENDROOT
BRANCH   1  11
ATOM     10  C   UNL     1      47.920   2.032   6.777  0.00  0.00    +0.000 C 
ATOM     11  O   UNL     1      46.611   1.648   7.190  0.00  0.00    +0.000 OA
ENDBRANCH   1  11
BRANCH   8  12
ATOM     12  C   UNL     1      43.496   6.106  11.041  0.00  0.00    +0.000 C 
BRANCH  12  13
ATOM     13  C   UNL     1      44.604   6.959  11.599  0.00  0.00    +0.000 A 
ATOM     14  C   UNL     1      45.592   6.394  12.417  0.00  0.00    +0.000 A 
ATOM     15  C   UNL     1      46.496   7.217  13.090  0.00  0.00    +0.000 A 
ATOM     16  C   UNL     1      46.383   8.586  12.922  0.00  0.00    +0.000 A 
ATOM     17  N   UNL     1      45.476   9.165  12.110  0.00  0.00    +0.000 NA
ATOM     18  C   UNL     1      44.615   8.345  11.468  0.00  0.00    +0.000 A 
ENDBRANCH  12  13
ENDBRANCH   8  12
TORSDOF 3
ENDMDL
MODEL 5
REMARK VINA RESULT:    -6.521      2.609      5.569
REMARK INTER + INTRA:          -8.171
REMARK INTER:                  -7.722
REMARK INTRA:                  -0.449
REMARK UNBOUND:                -0.506
REMARK  Name = 
REMARK  4 active torsions:
REMARK  status: ('A' for Active; 'I' for Inactive)
REMARK    1  A    between atoms: C_1  and  O_2
REMARK    2  A    between atoms: O_2  and  C_3
REMARK    3  A    between atoms: N_10  and  C_11
REMARK    4  A    between atoms: C_11  and  C_12
REMARK                            x       y       z     vdW  Elec       q    Type
REMARK                         _______ _______ _______ _____ _____    ______ ____
ROOT
ATOM      1  C   UNL     1      45.350   3.516   8.113  0.00  0.00    +0.000 A 
ATOM      2  C   UNL     1      45.864   4.740   8.530  0.00  0.00    +0.000 A 
ATOM      3  C   UNL     1      45.603   5.242   9.817  0.00  0.00    +0.000 A 
ATOM      4  C   UNL     1      44.788   4.486  10.677  0.00  0.00    +0.000 A 
ATOM      5  C   UNL     1      44.263   3.251  10.269  0.00  0.00    +0.000 A 
ATOM      6  C   UNL     1      43.516   2.734  11.368  0.00  0.00    +0.000 A 
ATOM      7  C   UNL     1      43.586   3.646  12.392  0.00  0.00    +0.000 A 
ATOM      8  N   UNL     1      44.336   4.714  11.966  0.00  0.00    +0.000 N 
ATOM      9  C   UNL     1      44.532   2.773   8.973  0.00  0.00    +0.000 A 
ENDROOT
BRANCH   1  11
ATOM     10  C   UNL     1      46.910   2.608   6.596  0.00  0.00    +0.000 C 
ATOM     11  O   UNL     1      45.559   2.969   6.877  0.00  0.00    +0.000 OA
ENDBRANCH   1  11
BRANCH   8  12
ATOM     12  C   UNL     1      44.482   5.946  12.741  0.00  0.00    +0.000 C 
BRANCH  12  13
ATOM     13  C   UNL     1      45.902   6.389  12.973  0.00  0.00    +0.000 A 
ATOM     14  C   UNL     1      46.354   7.615  12.465  0.00  0.00    +0.000 A 
ATOM     15  C   UNL     1      47.714   7.929  12.509  0.00  0.00    +0.000 A 
ATOM     16  C   UNL     1      48.581   7.004  13.063  0.00  0.00    +0.000 A 
ATOM     17  N   UNL     1      48.179   5.836  13.602  0.00  0.00    +0.000 NA
ATOM     18  C   UNL     1      46.857   5.557  13.549  0.00  0.00    +0.000 A 
ENDBRANCH  12  13
ENDBRANCH   8  12
TORSDOF 3
ENDMDL
MODEL 6
REMARK VINA RESULT:    -5.495      3.200      6.217
REMARK INTER + INTRA:          -6.964
REMARK INTER:                  -6.432
REMARK INTRA:                  -0.532
REMARK UNBOUND:                -0.506
REMARK  Name = 
REMARK  4 active torsions:
REMARK  status: ('A' for Active; 'I' for Inactive)
REMARK    1  A    between atoms: C_1  and  O_2
REMARK    2  A    between atoms: O_2  and  C_3
REMARK    3  A    between atoms: N_10  and  C_11
REMARK    4  A    between atoms: C_11  and  C_12
REMARK                            x       y       z     vdW  Elec       q    Type
REMARK                         _______ _______ _______ _____ _____    ______ ____
ROOT
ATOM      1  C   UNL     1      44.607   3.703  10.889  0.00  0.00    +0.000 A 
ATOM      2  C   UNL     1      44.755   5.004  10.418  0.00  0.00    +0.000 A 
ATOM      3  C   UNL     1      45.514   5.954  11.123  0.00  0.00    +0.000 A 
ATOM      4  C   UNL     1      46.110   5.568  12.335  0.00  0.00    +0.000 A 
ATOM      5  C   UNL     1      45.969   4.260  12.822  0.00  0.00    +0.000 A 
ATOM      6  C   UNL     1      46.709   4.188  14.038  0.00  0.00    +0.000 A 
ATOM      7  C   UNL     1      47.260   5.423  14.271  0.00  0.00    +0.000 A 
ATOM      8  N   UNL     1      46.880   6.262  13.254  0.00  0.00    +0.000 N 
ATOM      9  C   UNL     1      45.198   3.329  12.102  0.00  0.00    +0.000 A 
ENDROOT
BRANCH   1  11
ATOM     10  C   UNL     1      44.529   2.118   9.145  0.00  0.00    +0.000 C 
ATOM     11  O   UNL     1      43.882   2.729  10.259  0.00  0.00    +0.000 OA
ENDBRANCH   1  11
BRANCH   8  12
ATOM     12  C   UNL     1      47.151   7.700  13.262  0.00  0.00    +0.000 C 
BRANCH  12  13
ATOM     13  C   UNL     1      48.554   8.088  12.876  0.00  0.00    +0.000 A 
ATOM     14  C   UNL     1      49.082   7.698  11.638  0.00  0.00    +0.000 A 
ATOM     15  C   UNL     1      50.439   7.885  11.368  0.00  0.00    +0.000 A 
ATOM     16  C   UNL     1      51.227   8.460  12.350  0.00  0.00    +0.000 A 
ATOM     17  N   UNL     1      50.747   8.888  13.534  0.00  0.00    +0.000 NA
ATOM     18  C   UNL     1      49.429   8.697  13.769  0.00  0.00    +0.000 A 
ENDBRANCH  12  13
ENDBRANCH   8  12
TORSDOF 3
ENDMDL
MODEL 7
REMARK VINA RESULT:    -5.353      2.794      6.049
REMARK INTER + INTRA:          -6.797
REMARK INTER:                  -6.337
REMARK INTRA:                  -0.460
REMARK UNBOUND:                -0.506
REMARK  Name = 
REMARK  4 active torsions:
REMARK  status: ('A' for Active; 'I' for Inactive)
REMARK    1  A    between atoms: C_1  and  O_2
REMARK    2  A    between atoms: O_2  and  C_3
REMARK    3  A    between atoms: N_10  and  C_11
REMARK    4  A    between atoms: C_11  and  C_12
REMARK                            x       y       z     vdW  Elec       q    Type
REMARK                         _______ _______ _______ _____ _____    ______ ____
ROOT
ATOM      1  C   UNL     1      46.441   2.006   7.288  0.00  0.00    +0.000 A 
ATOM      2  C   UNL     1      45.780   1.339   8.316  0.00  0.00    +0.000 A 
ATOM      3  C   UNL     1      45.229   2.038   9.404  0.00  0.00    +0.000 A 
ATOM      4  C   UNL     1      45.377   3.435   9.445  0.00  0.00    +0.000 A 
ATOM      5  C   UNL     1      46.040   4.119   8.417  0.00  0.00    +0.000 A 
ATOM      6  C   UNL     1      45.991   5.506   8.742  0.00  0.00    +0.000 A 
ATOM      7  C   UNL     1      45.329   5.637   9.937  0.00  0.00    +0.000 A 
ATOM      8  N   UNL     1      44.978   4.383  10.372  0.00  0.00    +0.000 N 
ATOM      9  C   UNL     1      46.590   3.397   7.342  0.00  0.00    +0.000 A 
ENDROOT
BRANCH   1  11
ATOM     10  C   UNL     1      47.927   2.190   5.467  0.00  0.00    +0.000 C 
ATOM     11  O   UNL     1      47.003   1.391   6.203  0.00  0.00    +0.000 OA
ENDBRANCH   1  11
BRANCH   8  12
ATOM     12  C   UNL     1      44.402   4.130  11.693  0.00  0.00    +0.000 C 
BRANCH  12  13
ATOM     13  C   UNL     1      45.377   4.195  12.838  0.00  0.00    +0.000 A 
ATOM     14  C   UNL     1      45.647   5.415  13.472  0.00  0.00    +0.000 A 
ATOM     15  C   UNL     1      46.692   5.507  14.393  0.00  0.00    +0.000 A 
ATOM     16  C   UNL     1      47.437   4.370  14.652  0.00  0.00    +0.000 A 
ATOM     17  N   UNL     1      47.180   3.169  14.096  0.00  0.00    +0.000 NA
ATOM     18  C   UNL     1      46.161   3.107  13.210  0.00  0.00    +0.000 A 
ENDBRANCH  12  13
ENDBRANCH   8  12
TORSDOF 3
ENDMDL
MODEL 8
REMARK VINA RESULT:    -5.076      3.205      6.319
REMARK INTER + INTRA:          -6.472
REMARK INTER:                  -6.023
REMARK INTRA:                  -0.450
REMARK UNBOUND:                -0.506
REMARK  Name = 
REMARK  4 active torsions:
REMARK  status: ('A' for Active; 'I' for Inactive)
REMARK    1  A    between atoms: C_1  and  O_2
REMARK    2  A    between atoms: O_2  and  C_3
REMARK    3  A    between atoms: N_10  and  C_11
REMARK    4  A    between atoms: C_11  and  C_12
REMARK                            x       y       z     vdW  Elec       q    Type
REMARK                         _______ _______ _______ _____ _____    ______ ____
ROOT
ATOM      1  C   UNL     1      44.457   3.769  11.180  0.00  0.00    +0.000 A 
ATOM      2  C   UNL     1      45.406   3.467  12.152  0.00  0.00    +0.000 A 
ATOM      3  C   UNL     1      46.108   4.481  12.826  0.00  0.00    +0.000 A 
ATOM      4  C   UNL     1      45.846   5.818  12.483  0.00  0.00    +0.000 A 
ATOM      5  C   UNL     1      44.892   6.136  11.505  0.00  0.00    +0.000 A 
ATOM      6  C   UNL     1      44.845   7.558  11.418  0.00  0.00    +0.000 A 
ATOM      7  C   UNL     1      45.757   8.066  12.309  0.00  0.00    +0.000 A 
ATOM      8  N   UNL     1      46.376   7.014  12.937  0.00  0.00    +0.000 N 
ATOM      9  C   UNL     1      44.207   5.103  10.838  0.00  0.00    +0.000 A 
ENDROOT
BRANCH   1  11
ATOM     10  C   UNL     1      44.415   2.265   9.364  0.00  0.00    +0.000 C 
ATOM     11  O   UNL     1      43.740   2.836  10.482  0.00  0.00    +0.000 OA
ENDBRANCH   1  11
BRANCH   8  12
ATOM     12  C   UNL     1      47.521   7.182  13.832  0.00  0.00    +0.000 C 
BRANCH  12  13
ATOM     13  C   UNL     1      48.756   7.755  13.190  0.00  0.00    +0.000 A 
ATOM     14  C   UNL     1      49.126   7.369  11.894  0.00  0.00    +0.000 A 
ATOM     15  C   UNL     1      50.369   7.745  11.382  0.00  0.00    +0.000 A 
ATOM     16  C   UNL     1      51.205   8.500  12.186  0.00  0.00    +0.000 A 
ATOM     17  N   UNL     1      50.867   8.927  13.418  0.00  0.00    +0.000 NA
ATOM     18  C   UNL     1      49.657   8.552  13.889  0.00  0.00    +0.000 A 
ENDBRANCH  12  13
ENDBRANCH   8  12
TORSDOF 3
ENDMDL
MODEL 9
REMARK VINA RESULT:    -4.973      3.257      4.718
REMARK INTER + INTRA:          -6.351
REMARK INTER:                  -5.812
REMARK INTRA:                  -0.539
REMARK UNBOUND:                -0.506
REMARK  Name = 
REMARK  4 active torsions:
REMARK  status: ('A' for Active; 'I' for Inactive)
REMARK    1  A    between atoms: C_1  and  O_2
REMARK    2  A    between atoms: O_2  and  C_3
REMARK    3  A    between atoms: N_10  and  C_11
REMARK    4  A    between atoms: C_11  and  C_12
REMARK                            x       y       z     vdW  Elec       q    Type
REMARK                         _______ _______ _______ _____ _____    ______ ____
ROOT
ATOM      1  C   UNL     1      48.820   8.273  13.447  0.00  0.00    +0.000 A 
ATOM      2  C   UNL     1      48.127   7.828  12.325  0.00  0.00    +0.000 A 
ATOM      3  C   UNL     1      47.417   6.615  12.339  0.00  0.00    +0.000 A 
ATOM      4  C   UNL     1      47.435   5.842  13.512  0.00  0.00    +0.000 A 
ATOM      5  C   UNL     1      48.130   6.279  14.650  0.00  0.00    +0.000 A 
ATOM      6  C   UNL     1      47.928   5.296  15.662  0.00  0.00    +0.000 A 
ATOM      7  C   UNL     1      47.147   4.299  15.133  0.00  0.00    +0.000 A 
ATOM      8  N   UNL     1      46.868   4.619  13.827  0.00  0.00    +0.000 N 
ATOM      9  C   UNL     1      48.841   7.493  14.609  0.00  0.00    +0.000 A 
ENDROOT
BRANCH   1  11
ATOM     10  C   UNL     1      48.967  10.531  12.787  0.00  0.00    +0.000 C 
ATOM     11  O   UNL     1      49.535   9.438  13.504  0.00  0.00    +0.000 OA
ENDBRANCH   1  11
BRANCH   8  12
ATOM     12  C   UNL     1      46.195   3.702  12.908  0.00  0.00    +0.000 C 
BRANCH  12  13
ATOM     13  C   UNL     1      44.845   4.160  12.424  0.00  0.00    +0.000 A 
ATOM     14  C   UNL     1      44.636   4.445  11.068  0.00  0.00    +0.000 A 
ATOM     15  C   UNL     1      43.449   5.056  10.658  0.00  0.00    +0.000 A 
ATOM     16  C   UNL     1      42.506   5.363  11.623  0.00  0.00    +0.000 A 
ATOM     17  N   UNL     1      42.651   5.064  12.928  0.00  0.00    +0.000 NA
ATOM     18  C   UNL     1      43.807   4.470  13.298  0.00  0.00    +0.000 A 
ENDBRANCH  12  13
ENDBRANCH   8  12
TORSDOF 3
ENDMDL
