MODEL 1
REMARK VINA RESULT:    -8.606      0.000      0.000
REMARK INTER + INTRA:         -11.639
REMARK INTER:                 -11.121
REMARK INTRA:                  -0.518
REMARK UNBOUND:                -0.518
REMARK  Name = 
REMARK  5 active torsions:
REMARK  status: ('A' for Active; 'I' for Inactive)
REMARK    1  A    between atoms: C_2  and  C_4
REMARK    2  A    between atoms: C_7  and  O_8
REMARK    3  A    between atoms: O_8  and  C_9
REMARK    4  A    between atoms: C_9  and  C_10
REMARK    5  A    between atoms: C_14  and  C_15
REMARK                            x       y       z     vdW  Elec       q    Type
REMARK                         _______ _______ _______ _____ _____    ______ ____
ROOT
ATOM      1  O   UNL     1      43.679   4.627   9.947  0.00  0.00    +0.000 OA
ENDROOT
BRANCH   1   5
ATOM      2  C   UNL     1      46.359   2.437   7.720  0.00  0.00    +0.000 A 
ATOM      3  C   UNL     1      45.599   1.755   8.668  0.00  0.00    +0.000 A 
ATOM      4  C   UNL     1      44.666   2.457   9.436  0.00  0.00    +0.000 A 
ATOM      5  C   UNL     1      44.517   3.824   9.229  0.00  0.00    +0.000 A 
ATOM      6  N   UNL     1      45.262   4.503   8.333  0.00  0.00    +0.000 NA
ATOM      7  C   UNL     1      46.168   3.804   7.603  0.00  0.00    +0.000 A 
BRANCH   2   9
ATOM      8  N   UNL     1      48.461   2.499   6.516  0.00  0.00    +0.000 N 
ATOM      9  C   UNL     1      47.359   1.768   6.865  0.00  0.00    +0.000 C 
ATOM     10  O   UNL     1      47.228   0.605   6.514  0.00  0.00    +0.000 OA
ATOM     11  H   UNL     1      49.194   2.000   6.027  0.00  0.00    +0.000 HD
ATOM     12  H   UNL     1      48.719   3.352   6.992  0.00  0.00    +0.000 HD
ENDBRANCH   2   9
ENDBRANCH   1   5
BRANCH   1  13
ATOM     13  C   UNL     1      43.560   4.322  11.335  0.00  0.00    +0.000 C 
BRANCH  13  14
ATOM     14  C   UNL     1      44.703   4.961  12.086  0.00  0.00    +0.000 A 
ATOM     15  N   UNL     1      45.038   6.233  11.749  0.00  0.00    +0.000 NA
ATOM     16  N   UNL     1      46.057   6.856  12.396  0.00  0.00    +0.000 NA
ATOM     17  C   UNL     1      46.708   6.181  13.360  0.00  0.00    +0.000 A 
ATOM     18  C   UNL     1      46.326   4.899  13.682  0.00  0.00    +0.000 A 
ATOM     19  N   UNL     1      45.312   4.247  13.059  0.00  0.00    +0.000 NA
BRANCH  18  20
ATOM     20  C   UNL     1      47.045   4.182  14.774  0.00  0.00    +0.000 C 
ATOM     21  N   UNL     1      47.146   4.822  15.985  0.00  0.00    +0.000 N 
ATOM     22  O   UNL     1      47.537   3.076  14.599  0.00  0.00    +0.000 OA
ATOM     23  H   UNL     1      46.729   5.731  16.151  0.00  0.00    +0.000 HD
ATOM     24  H   UNL     1      47.621   4.345  16.741  0.00  0.00    +0.000 HD
ENDBRANCH  18  20
ENDBRANCH  13  14
ENDBRANCH   1  13
TORSDOF 5
ENDMDL
MODEL 2
REMARK VINA RESULT:    -8.400      1.607      2.445
REMARK INTER + INTRA:         -11.373
REMARK INTER:                 -10.870
REMARK INTRA:                  -0.503
REMARK UNBOUND:                -0.518
REMARK  Name = 
REMARK  5 active torsions:
REMARK  status: ('A' for Active; 'I' for Inactive)
REMARK    1  A    between atoms: C_2  and  C_4
REMARK    2  A    between atoms: C_7  and  O_8
REMARK    3  A    between atoms: O_8  and  C_9
REMARK    4  A    between atoms: C_9  and  C_10
REMARK    5  A    between atoms: C_14  and  C_15
REMARK                            x       y       z     vdW  Elec       q    Type
REMARK                         _______ _______ _______ _____ _____    ______ ____
ROOT
ATOM      1  O   UNL     1      43.422   3.823  10.263  0.00  0.00    +0.000 OA
ENDROOT
BRANCH   1   5
ATOM      2  C   UNL     1      46.355   2.429   7.735  0.00  0.00    +0.000 A 
ATOM      3  C   UNL     1      46.094   3.798   7.727  0.00  0.00    +0.000 A 
ATOM      4  C   UNL     1      45.116   4.316   8.580  0.00  0.00    +0.000 A 
ATOM      5  C   UNL     1      44.430   3.448   9.422  0.00  0.00    +0.000 A 
ATOM      6  N   UNL     1      44.654   2.118   9.426  0.00  0.00    +0.000 NA
ATOM      7  C   UNL     1      45.603   1.634   8.584  0.00  0.00    +0.000 A 
BRANCH   2   9
ATOM      8  N   UNL     1      48.439   2.585   6.508  0.00  0.00    +0.000 N 
ATOM      9  C   UNL     1      47.376   1.805   6.871  0.00  0.00    +0.000 C 
ATOM     10  O   UNL     1      47.296   0.635   6.527  0.00  0.00    +0.000 OA
ATOM     11  H   UNL     1      49.188   2.119   6.012  0.00  0.00    +0.000 HD
ATOM     12  H   UNL     1      48.661   3.451   6.977  0.00  0.00    +0.000 HD
ENDBRANCH   2   9
ENDBRANCH   1   5
BRANCH   1  13
ATOM     13  C   UNL     1      43.491   3.302  11.589  0.00  0.00    +0.000 C 
BRANCH  13  14
ATOM     14  C   UNL     1      44.634   3.958  12.325  0.00  0.00    +0.000 A 
ATOM     15  N   UNL     1      45.532   3.145  12.938  0.00  0.00    +0.000 NA
ATOM     16  N   UNL     1      46.581   3.684  13.611  0.00  0.00    +0.000 NA
ATOM     17  C   UNL     1      46.695   5.023  13.647  0.00  0.00    +0.000 A 
ATOM     18  C   UNL     1      45.772   5.812  12.999  0.00  0.00    +0.000 A 
ATOM     19  N   UNL     1      44.714   5.308  12.315  0.00  0.00    +0.000 NA
BRANCH  18  20
ATOM     20  C   UNL     1      45.937   7.294  13.030  0.00  0.00    +0.000 C 
ATOM     21  N   UNL     1      44.891   8.051  12.564  0.00  0.00    +0.000 N 
ATOM     22  O   UNL     1      46.963   7.816  13.441  0.00  0.00    +0.000 OA
ATOM     23  H   UNL     1      44.027   7.634  12.236  0.00  0.00    +0.000 HD
ATOM     24  H   UNL     1      44.981   9.059  12.587  0.00  0.00    +0.000 HD
ENDBRANCH  18  20
ENDBRANCH  13  14
ENDBRANCH   1  13
TORSDOF 5
ENDMDL
MODEL 3
REMARK VINA RESULT:    -7.546      1.677      6.413
REMARK INTER + INTRA:         -10.270
REMARK INTER:                  -9.970
REMARK INTRA:                  -0.300
REMARK UNBOUND:                -0.518
REMARK  Name = 
REMARK  5 active torsions:
REMARK  status: ('A' for Active; 'I' for Inactive)
REMARK    1  A    between atoms: C_2  and  C_4
REMARK    2  A    between atoms: C_7  and  O_8
REMARK    3  A    between atoms: O_8  and  C_9
REMARK    4  A    between atoms: C_9  and  C_10
REMARK    5  A    between atoms: C_14  and  C_15
REMARK                            x       y       z     vdW  Elec       q    Type
REMARK                         _______ _______ _______ _____ _____    ______ ____
ROOT
ATOM      1  O   UNL     1      43.703   4.076  11.261  0.00  0.00    +0.000 OA
ENDROOT
BRANCH   1   5
ATOM      2  C   UNL     1      46.772   5.449  13.633  0.00  0.00    +0.000 A 
ATOM      3  C   UNL     1      46.175   6.358  12.762  0.00  0.00    +0.000 A 
ATOM      4  C   UNL     1      45.120   5.938  11.948  0.00  0.00    +0.000 A 
ATOM      5  C   UNL     1      44.688   4.619  12.034  0.00  0.00    +0.000 A 
ATOM      6  N   UNL     1      45.270   3.721  12.855  0.00  0.00    +0.000 NA
ATOM      7  C   UNL     1      46.300   4.147  13.631  0.00  0.00    +0.000 A 
BRANCH   2   9
ATOM      8  N   UNL     1      47.764   5.459  15.844  0.00  0.00    +0.000 N 
ATOM      9  C   UNL     1      47.886   5.815  14.530  0.00  0.00    +0.000 C 
ATOM     10  O   UNL     1      48.888   6.377  14.112  0.00  0.00    +0.000 OA
ATOM     11  H   UNL     1      48.577   5.610  16.428  0.00  0.00    +0.000 HD
ATOM     12  H   UNL     1      47.085   4.781  16.161  0.00  0.00    +0.000 HD
ENDBRANCH   2   9
ENDBRANCH   1   5
BRANCH   1  13
ATOM     13  C   UNL     1      43.986   2.796  10.699  0.00  0.00    +0.000 C 
BRANCH  13  14
ATOM     14  C   UNL     1      44.826   2.972   9.457  0.00  0.00    +0.000 A 
ATOM     15  N   UNL     1      44.813   4.192   8.861  0.00  0.00    +0.000 NA
ATOM     16  N   UNL     1      45.554   4.405   7.742  0.00  0.00    +0.000 NA
ATOM     17  C   UNL     1      46.284   3.385   7.258  0.00  0.00    +0.000 A 
ATOM     18  C   UNL     1      46.282   2.168   7.900  0.00  0.00    +0.000 A 
ATOM     19  N   UNL     1      45.556   1.921   9.021  0.00  0.00    +0.000 NA
BRANCH  18  20
ATOM     20  C   UNL     1      47.122   1.062   7.359  0.00  0.00    +0.000 C 
ATOM     21  N   UNL     1      46.760  -0.221   7.691  0.00  0.00    +0.000 N 
ATOM     22  O   UNL     1      48.099   1.283   6.659  0.00  0.00    +0.000 OA
ATOM     23  H   UNL     1      45.943  -0.422   8.256  0.00  0.00    +0.000 HD
ATOM     24  H   UNL     1      47.313  -0.985   7.324  0.00  0.00    +0.000 HD
ENDBRANCH  18  20
ENDBRANCH  13  14
ENDBRANCH   1  13
TORSDOF 5
ENDMDL
MODEL 4
REMARK VINA RESULT:    -6.890      3.139      5.711
REMARK INTER + INTRA:          -9.422
REMARK INTER:                  -9.020
REMARK INTRA:                  -0.402
REMARK UNBOUND:                -0.518
REMARK  Name = 
REMARK  5 active torsions:
REMARK  status: ('A' for Active; 'I' for Inactive)
REMARK    1  A    between atoms: C_2  and  C_4
REMARK    2  A    between atoms: C_7  and  O_8
REMARK    3  A    between atoms: O_8  and  C_9
REMARK    4  A    between atoms: C_9  and  C_10
REMARK    5  A    between atoms: C_14  and  C_15
REMARK                            x       y       z     vdW  Elec       q    Type
REMARK                         _______ _______ _______ _____ _____    ______ ____
ROOT
ATOM      1  O   UNL     1      47.531   5.054  14.698  0.00  0.00    +0.000 OA
ENDROOT
BRANCH   1   5
ATOM      2  C   UNL     1      45.077   4.239  11.496  0.00  0.00    +0.000 A 
ATOM      3  C   UNL     1      45.573   5.536  11.615  0.00  0.00    +0.000 A 
ATOM      4  C   UNL     1      46.421   5.853  12.679  0.00  0.00    +0.000 A 
ATOM      5  C   UNL     1      46.754   4.859  13.593  0.00  0.00    +0.000 A 
ATOM      6  N   UNL     1      46.264   3.606  13.506  0.00  0.00    +0.000 NA
ATOM      7  C   UNL     1      45.435   3.320  12.469  0.00  0.00    +0.000 A 
BRANCH   2   9
ATOM      8  N   UNL     1      44.157   4.618   9.287  0.00  0.00    +0.000 N 
ATOM      9  C   UNL     1      44.183   3.822  10.399  0.00  0.00    +0.000 C 
ATOM     10  O   UNL     1      43.523   2.795  10.464  0.00  0.00    +0.000 OA
ATOM     11  H   UNL     1      43.631   4.267   8.496  0.00  0.00    +0.000 HD
ATOM     12  H   UNL     1      44.867   5.312   9.100  0.00  0.00    +0.000 HD
ENDBRANCH   2   9
ENDBRANCH   1   5
BRANCH   1  13
ATOM     13  C   UNL     1      47.198   4.267  15.841  0.00  0.00    +0.000 C 
BRANCH  13  14
ATOM     14  C   UNL     1      48.429   3.537  16.320  0.00  0.00    +0.000 A 
ATOM     15  N   UNL     1      48.668   2.307  15.797  0.00  0.00    +0.000 NA
ATOM     16  N   UNL     1      49.765   1.608  16.191  0.00  0.00    +0.000 NA
ATOM     17  C   UNL     1      50.584   2.167  17.100  0.00  0.00    +0.000 A 
ATOM     18  C   UNL     1      50.314   3.423  17.593  0.00  0.00    +0.000 A 
ATOM     19  N   UNL     1      49.230   4.150  17.220  0.00  0.00    +0.000 NA
BRANCH  18  20
ATOM     20  C   UNL     1      51.253   4.032  18.577  0.00  0.00    +0.000 C 
ATOM     21  N   UNL     1      50.715   4.508  19.747  0.00  0.00    +0.000 N 
ATOM     22  O   UNL     1      52.451   4.118  18.351  0.00  0.00    +0.000 OA
ATOM     23  H   UNL     1      49.726   4.430  19.958  0.00  0.00    +0.000 HD
ATOM     24  H   UNL     1      51.339   4.916  20.432  0.00  0.00    +0.000 HD
ENDBRANCH  18  20
ENDBRANCH  13  14
ENDBRANCH   1  13
TORSDOF 5
ENDMDL
MODEL 5
REMARK VINA RESULT:    -6.535      2.567      7.823
REMARK INTER + INTRA:          -8.963
REMARK INTER:                  -8.541
REMARK INTRA:                  -0.421
REMARK UNBOUND:                -0.518
REMARK  Name = 
REMARK  5 active torsions:
REMARK  status: ('A' for Active; 'I' for Inactive)
REMARK    1  A    between atoms: C_2  and  C_4
REMARK    2  A    between atoms: C_7  and  O_8
REMARK    3  A    between atoms: O_8  and  C_9
REMARK    4  A    between atoms: C_9  and  C_10
REMARK    5  A    between atoms: C_14  and  C_15
REMARK                            x       y       z     vdW  Elec       q    Type
REMARK                         _______ _______ _______ _____ _____    ______ ____
ROOT
ATOM      1  O   UNL     1      47.368   4.985  13.630  0.00  0.00    +0.000 OA
ENDROOT
BRANCH   1   5
ATOM      2  C   UNL     1      48.379   4.447  17.583  0.00  0.00    +0.000 A 
ATOM      3  C   UNL     1      48.672   5.680  17.005  0.00  0.00    +0.000 A 
ATOM      4  C   UNL     1      48.334   5.911  15.669  0.00  0.00    +0.000 A 
ATOM      5  C   UNL     1      47.705   4.900  14.950  0.00  0.00    +0.000 A 
ATOM      6  N   UNL     1      47.435   3.693  15.488  0.00  0.00    +0.000 NA
ATOM      7  C   UNL     1      47.780   3.486  16.785  0.00  0.00    +0.000 A 
BRANCH   2   9
ATOM      8  N   UNL     1      48.207   2.949  19.480  0.00  0.00    +0.000 N 
ATOM      9  C   UNL     1      48.698   4.126  18.988  0.00  0.00    +0.000 C 
ATOM     10  O   UNL     1      49.398   4.860  19.671  0.00  0.00    +0.000 OA
ATOM     11  H   UNL     1      48.523   2.682  20.404  0.00  0.00    +0.000 HD
ATOM     12  H   UNL     1      47.855   2.216  18.880  0.00  0.00    +0.000 HD
ENDBRANCH   2   9
ENDBRANCH   1   5
BRANCH   1  13
ATOM     13  C   UNL     1      46.114   5.601  13.345  0.00  0.00    +0.000 C 
BRANCH  13  14
ATOM     14  C   UNL     1      45.202   4.594  12.686  0.00  0.00    +0.000 A 
ATOM     15  N   UNL     1      44.319   3.936  13.481  0.00  0.00    +0.000 NA
ATOM     16  N   UNL     1      43.473   3.023  12.938  0.00  0.00    +0.000 NA
ATOM     17  C   UNL     1      43.543   2.797  11.614  0.00  0.00    +0.000 A 
ATOM     18  C   UNL     1      44.441   3.496  10.841  0.00  0.00    +0.000 A 
ATOM     19  N   UNL     1      45.299   4.418  11.349  0.00  0.00    +0.000 NA
BRANCH  18  20
ATOM     20  C   UNL     1      44.479   3.249   9.371  0.00  0.00    +0.000 C 
ATOM     21  N   UNL     1      44.119   4.288   8.550  0.00  0.00    +0.000 N 
ATOM     22  O   UNL     1      44.804   2.163   8.913  0.00  0.00    +0.000 OA
ATOM     23  H   UNL     1      43.863   5.199   8.914  0.00  0.00    +0.000 HD
ATOM     24  H   UNL     1      44.148   4.142   7.549  0.00  0.00    +0.000 HD
ENDBRANCH  18  20
ENDBRANCH  13  14
ENDBRANCH   1  13
TORSDOF 5
ENDMDL
MODEL 6
REMARK VINA RESULT:    -6.528      2.480      4.089
REMARK INTER + INTRA:          -8.954
REMARK INTER:                  -8.572
REMARK INTRA:                  -0.381
REMARK UNBOUND:                -0.518
REMARK  Name = 
REMARK  5 active torsions:
REMARK  status: ('A' for Active; 'I' for Inactive)
REMARK    1  A    between atoms: C_2  and  C_4
REMARK    2  A    between atoms: C_7  and  O_8
REMARK    3  A    between atoms: O_8  and  C_9
REMARK    4  A    between atoms: C_9  and  C_10
REMARK    5  A    between atoms: C_14  and  C_15
REMARK                            x       y       z     vdW  Elec       q    Type
REMARK                         _______ _______ _______ _____ _____    ______ ____
ROOT
ATOM      1  O   UNL     1      45.439   4.948  13.743  0.00  0.00    +0.000 OA
ENDROOT
BRANCH   1   5
ATOM      2  C   UNL     1      45.282   4.170   9.705  0.00  0.00    +0.000 A 
ATOM      3  C   UNL     1      44.982   3.123  10.575  0.00  0.00    +0.000 A 
ATOM      4  C   UNL     1      45.010   3.347  11.954  0.00  0.00    +0.000 A 
ATOM      5  C   UNL     1      45.331   4.616  12.423  0.00  0.00    +0.000 A 
ATOM      6  N   UNL     1      45.646   5.633  11.595  0.00  0.00    +0.000 NA
ATOM      7  C   UNL     1      45.622   5.393  10.259  0.00  0.00    +0.000 A 
BRANCH   2   9
ATOM      8  N   UNL     1      44.172   3.413   7.688  0.00  0.00    +0.000 N 
ATOM      9  C   UNL     1      45.268   4.018   8.237  0.00  0.00    +0.000 C 
ATOM     10  O   UNL     1      46.177   4.445   7.539  0.00  0.00    +0.000 OA
ATOM     11  H   UNL     1      44.117   3.414   6.678  0.00  0.00    +0.000 HD
ATOM     12  H   UNL     1      43.309   3.288   8.199  0.00  0.00    +0.000 HD
ENDBRANCH   2   9
ENDBRANCH   1   5
BRANCH   1  13
ATOM     13  C   UNL     1      46.707   5.453  14.157  0.00  0.00    +0.000 C 
BRANCH  13  14
ATOM     14  C   UNL     1      47.336   4.486  15.130  0.00  0.00    +0.000 A 
ATOM     15  N   UNL     1      47.532   3.211  14.706  0.00  0.00    +0.000 NA
ATOM     16  N   UNL     1      48.099   2.302  15.540  0.00  0.00    +0.000 NA
ATOM     17  C   UNL     1      48.448   2.702  16.776  0.00  0.00    +0.000 A 
ATOM     18  C   UNL     1      48.246   4.007  17.162  0.00  0.00    +0.000 A 
ATOM     19  N   UNL     1      47.686   4.943  16.354  0.00  0.00    +0.000 NA
BRANCH  18  20
ATOM     20  C   UNL     1      48.668   4.432  18.528  0.00  0.00    +0.000 C 
ATOM     21  N   UNL     1      48.376   3.584  19.567  0.00  0.00    +0.000 N 
ATOM     22  O   UNL     1      49.239   5.495  18.720  0.00  0.00    +0.000 OA
ATOM     23  H   UNL     1      47.918   2.691  19.423  0.00  0.00    +0.000 HD
ATOM     24  H   UNL     1      48.664   3.851  20.500  0.00  0.00    +0.000 HD
ENDBRANCH  18  20
ENDBRANCH  13  14
ENDBRANCH   1  13
TORSDOF 5
ENDMDL
MODEL 7
REMARK VINA RESULT:    -6.229      4.075      5.918
REMARK INTER + INTRA:          -8.567
REMARK INTER:                  -8.080
REMARK INTRA:                  -0.487
REMARK UNBOUND:                -0.518
REMARK  Name = 
REMARK  5 active torsions:
REMARK  status: ('A' for Active; 'I' for Inactive)
REMARK    1  A    between atoms: C_2  and  C_4
REMARK    2  A    between atoms: C_7  and  O_8
REMARK    3  A    between atoms: O_8  and  C_9
REMARK    4  A    between atoms: C_9  and  C_10
REMARK    5  A    between atoms: C_14  and  C_15
REMARK                            x       y       z     vdW  Elec       q    Type
REMARK                         _______ _______ _______ _____ _____    ______ ____
ROOT
ATOM      1  O   UNL     1      48.400   6.381  13.483  0.00  0.00    +0.000 OA
ENDROOT
BRANCH   1   5
ATOM      2  C   UNL     1      44.519   5.601  12.359  0.00  0.00    +0.000 A 
ATOM      3  C   UNL     1      44.941   6.929  12.339  0.00  0.00    +0.000 A 
ATOM      4  C   UNL     1      46.255   7.237  12.700  0.00  0.00    +0.000 A 
ATOM      5  C   UNL     1      47.112   6.205  13.065  0.00  0.00    +0.000 A 
ATOM      6  N   UNL     1      46.713   4.918  13.112  0.00  0.00    +0.000 NA
ATOM      7  C   UNL     1      45.430   4.640  12.766  0.00  0.00    +0.000 A 
BRANCH   2   9
ATOM      8  N   UNL     1      42.228   6.188  11.832  0.00  0.00    +0.000 N 
ATOM      9  C   UNL     1      43.150   5.191  11.986  0.00  0.00    +0.000 C 
ATOM     10  O   UNL     1      42.863   4.019  11.788  0.00  0.00    +0.000 OA
ATOM     11  H   UNL     1      41.325   5.911  11.467  0.00  0.00    +0.000 HD
ATOM     12  H   UNL     1      42.489   7.159  11.735  0.00  0.00    +0.000 HD
ENDBRANCH   2   9
ENDBRANCH   1   5
BRANCH   1  13
ATOM     13  C   UNL     1      48.563   7.054  14.731  0.00  0.00    +0.000 C 
BRANCH  13  14
ATOM     14  C   UNL     1      49.048   6.070  15.768  0.00  0.00    +0.000 A 
ATOM     15  N   UNL     1      50.361   6.117  16.109  0.00  0.00    +0.000 NA
ATOM     16  N   UNL     1      50.848   5.257  17.040  0.00  0.00    +0.000 NA
ATOM     17  C   UNL     1      50.000   4.374  17.597  0.00  0.00    +0.000 A 
ATOM     18  C   UNL     1      48.673   4.368  17.235  0.00  0.00    +0.000 A 
ATOM     19  N   UNL     1      48.152   5.215  16.311  0.00  0.00    +0.000 NA
BRANCH  18  20
ATOM     20  C   UNL     1      47.747   3.398  17.888  0.00  0.00    +0.000 C 
ATOM     21  N   UNL     1      48.141   2.869  19.092  0.00  0.00    +0.000 N 
ATOM     22  O   UNL     1      46.688   3.076  17.370  0.00  0.00    +0.000 OA
ATOM     23  H   UNL     1      49.007   3.139  19.543  0.00  0.00    +0.000 HD
ATOM     24  H   UNL     1      47.520   2.217  19.555  0.00  0.00    +0.000 HD
ENDBRANCH  18  20
ENDBRANCH  13  14
ENDBRANCH   1  13
TORSDOF 5
ENDMDL
MODEL 8
REMARK VINA RESULT:    -5.857      3.521      6.140
REMARK INTER + INTRA:          -8.087
REMARK INTER:                  -7.706
REMARK INTRA:                  -0.382
REMARK UNBOUND:                -0.518
REMARK  Name = 
REMARK  5 active torsions:
REMARK  status: ('A' for Active; 'I' for Inactive)
REMARK    1  A    between atoms: C_2  and  C_4
REMARK    2  A    between atoms: C_7  and  O_8
REMARK    3  A    between atoms: O_8  and  C_9
REMARK    4  A    between atoms: C_9  and  C_10
REMARK    5  A    between atoms: C_14  and  C_15
REMARK                            x       y       z     vdW  Elec       q    Type
REMARK                         _______ _______ _______ _____ _____    ______ ____
ROOT
ATOM      1  O   UNL     1      48.992   6.376  14.760  0.00  0.00    +0.000 OA
ENDROOT
BRANCH   1   5
ATOM      2  C   UNL     1      46.129   5.917  11.840  0.00  0.00    +0.000 A 
ATOM      3  C   UNL     1      47.175   6.801  11.584  0.00  0.00    +0.000 A 
ATOM      4  C   UNL     1      48.177   6.976  12.542  0.00  0.00    +0.000 A 
ATOM      5  C   UNL     1      48.105   6.257  13.730  0.00  0.00    +0.000 A 
ATOM      6  N   UNL     1      47.087   5.416  14.003  0.00  0.00    +0.000 NA
ATOM      7  C   UNL     1      46.119   5.266  13.063  0.00  0.00    +0.000 A 
BRANCH   2   9
ATOM      8  N   UNL     1      45.386   5.567   9.561  0.00  0.00    +0.000 N 
ATOM      9  C   UNL     1      45.036   5.671  10.879  0.00  0.00    +0.000 C 
ATOM     10  O   UNL     1      43.879   5.528  11.245  0.00  0.00    +0.000 OA
ATOM     11  H   UNL     1      44.651   5.285   8.923  0.00  0.00    +0.000 HD
ATOM     12  H   UNL     1      46.340   5.422   9.263  0.00  0.00    +0.000 HD
ENDBRANCH   2   9
ENDBRANCH   1   5
BRANCH   1  13
ATOM     13  C   UNL     1      48.432   6.710  16.029  0.00  0.00    +0.000 C 
BRANCH  13  14
ATOM     14  C   UNL     1      48.770   5.626  17.024  0.00  0.00    +0.000 A 
ATOM     15  N   UNL     1      48.518   5.880  18.334  0.00  0.00    +0.000 NA
ATOM     16  N   UNL     1      48.800   4.938  19.271  0.00  0.00    +0.000 NA
ATOM     17  C   UNL     1      49.329   3.771  18.862  0.00  0.00    +0.000 A 
ATOM     18  C   UNL     1      49.555   3.547  17.523  0.00  0.00    +0.000 A 
ATOM     19  N   UNL     1      49.282   4.464  16.560  0.00  0.00    +0.000 NA
BRANCH  18  20
ATOM     20  C   UNL     1      50.115   2.234  17.093  0.00  0.00    +0.000 C 
ATOM     21  N   UNL     1      51.048   1.650  17.914  0.00  0.00    +0.000 N 
ATOM     22  O   UNL     1      49.771   1.703  16.047  0.00  0.00    +0.000 OA
ATOM     23  H   UNL     1      51.332   2.069  18.792  0.00  0.00    +0.000 HD
ATOM     24  H   UNL     1      51.432   0.753  17.643  0.00  0.00    +0.000 HD
ENDBRANCH  18  20
ENDBRANCH  13  14
ENDBRANCH   1  13
TORSDOF 5
ENDMDL
MODEL 9
REMARK VINA RESULT:    -5.844      3.394      5.914
REMARK INTER + INTRA:          -8.071
REMARK INTER:                  -7.657
REMARK INTRA:                  -0.414
REMARK UNBOUND:                -0.518
REMARK  Name = 
REMARK  5 active torsions:
REMARK  status: ('A' for Active; 'I' for Inactive)
REMARK    1  A    between atoms: C_2  and  C_4
REMARK    2  A    between atoms: C_7  and  O_8
REMARK    3  A    between atoms: O_8  and  C_9
REMARK    4  A    between atoms: C_9  and  C_10
REMARK    5  A    between atoms: C_14  and  C_15
REMARK                            x       y       z     vdW  Elec       q    Type
REMARK                         _______ _______ _______ _____ _____    ______ ____
ROOT
ATOM      1  O   UNL     1      47.609   3.818  14.798  0.00  0.00    +0.000 OA
ENDROOT
BRANCH   1   5
ATOM      2  C   UNL     1      44.906   4.830  11.865  0.00  0.00    +0.000 A 
ATOM      3  C   UNL     1      45.518   5.868  12.563  0.00  0.00    +0.000 A 
ATOM      4  C   UNL     1      46.453   5.570  13.558  0.00  0.00    +0.000 A 
ATOM      5  C   UNL     1      46.753   4.238  13.822  0.00  0.00    +0.000 A 
ATOM      6  N   UNL     1      46.153   3.221  13.171  0.00  0.00    +0.000 NA
ATOM      7  C   UNL     1      45.241   3.532  12.214  0.00  0.00    +0.000 A 
BRANCH   2   9
ATOM      8  N   UNL     1      43.150   6.189  10.896  0.00  0.00    +0.000 N 
ATOM      9  C   UNL     1      43.914   5.060  10.796  0.00  0.00    +0.000 C 
ATOM     10  O   UNL     1      43.805   4.297   9.847  0.00  0.00    +0.000 OA
ATOM     11  H   UNL     1      42.554   6.400  10.104  0.00  0.00    +0.000 HD
ATOM     12  H   UNL     1      43.389   6.953  11.511  0.00  0.00    +0.000 HD
ENDBRANCH   2   9
ENDBRANCH   1   5
BRANCH   1  13
ATOM     13  C   UNL     1      47.115   3.891  16.134  0.00  0.00    +0.000 C 
BRANCH  13  14
ATOM     14  C   UNL     1      48.011   4.790  16.949  0.00  0.00    +0.000 A 
ATOM     15  N   UNL     1      49.110   5.300  16.335  0.00  0.00    +0.000 NA
ATOM     16  N   UNL     1      49.949   6.119  17.023  0.00  0.00    +0.000 NA
ATOM     17  C   UNL     1      49.657   6.397  18.306  0.00  0.00    +0.000 A 
ATOM     18  C   UNL     1      48.525   5.873  18.886  0.00  0.00    +0.000 A 
ATOM     19  N   UNL     1      47.664   5.055  18.229  0.00  0.00    +0.000 NA
BRANCH  18  20
ATOM     20  C   UNL     1      48.209   6.220  20.302  0.00  0.00    +0.000 C 
ATOM     21  N   UNL     1      47.075   5.669  20.845  0.00  0.00    +0.000 N 
ATOM     22  O   UNL     1      48.920   6.973  20.950  0.00  0.00    +0.000 OA
ATOM     23  H   UNL     1      46.484   5.029  20.326  0.00  0.00    +0.000 HD
ATOM     24  H   UNL     1      46.851   5.885  21.808  0.00  0.00    +0.000 HD
ENDBRANCH  18  20
ENDBRANCH  13  14
ENDBRANCH   1  13
TORSDOF 5
ENDMDL
