MODEL 1
REMARK VINA RESULT:    -8.078      0.000      0.000
REMARK INTER + INTRA:         -13.674
REMARK INTER:                 -12.328
REMARK INTRA:                  -1.346
REMARK UNBOUND:                -1.346
REMARK  Name = 
REMARK  10 active torsions:
REMARK  status: ('A' for Active; 'I' for Inactive)
REMARK    1  A    between atoms: C_1  and  O_2
REMARK    2  A    between atoms: O_2  and  C_3
REMARK    3  A    between atoms: C_3  and  C_4
REMARK    4  A    between atoms: C_4  and  N_5
REMARK    5  A    between atoms: C_4  and  C_27
REMARK    6  A    between atoms: N_5  and  C_6
REMARK    7  A    between atoms: C_6  and  C_7
REMARK    8  A    between atoms: C_10  and  C_11
REMARK    9  A    between atoms: C_11  and  N_12
REMARK   10  A    between atoms: C_13  and  C_15
REMARK                            x       y       z     vdW  Elec       q    Type
REMARK                         _______ _______ _______ _____ _____    ______ ____
ROOT
ATOM      1  C   UNL     1      45.348   6.593  11.221  0.00  0.00    +0.000 A 
ATOM      2  C   UNL     1      46.685   6.208  11.400  0.00  0.00    +0.000 A 
ATOM      3  C   UNL     1      47.496   6.861  12.336  0.00  0.00    +0.000 A 
ATOM      4  C   UNL     1      46.984   7.909  13.114  0.00  0.00    +0.000 A 
ATOM      5  C   UNL     1      45.672   8.341  12.880  0.00  0.00    +0.000 A 
ATOM      6  C   UNL     1      44.861   7.684  11.952  0.00  0.00    +0.000 A 
ENDROOT
BRANCH   1   7
ATOM      7  C   UNL     1      44.441   5.873  10.248  0.00  0.00    +0.000 C 
BRANCH   7   8
ATOM      8  N   UNL     1      45.202   5.173   9.208  0.00  0.00    +0.000 NA
ATOM      9  H   UNL     1      44.945   5.578   8.306  0.00  0.00    +0.000 HD
BRANCH   8  10
ATOM     10  C   UNL     1      44.865   3.725   9.128  0.00  0.00    +0.000 C 
BRANCH  10  11
ATOM     11  C   UNL     1      45.744   2.951   8.142  0.00  0.00    +0.000 A 
ATOM     12  C   UNL     1      46.290   3.592   7.029  0.00  0.00    +0.000 A 
ATOM     13  C   UNL     1      47.125   2.873   6.177  0.00  0.00    +0.000 A 
ATOM     14  C   UNL     1      47.389   1.536   6.446  0.00  0.00    +0.000 A 
ATOM     15  C   UNL     1      46.807   0.969   7.564  0.00  0.00    +0.000 A 
ATOM     16  N   UNL     1      46.001   1.643   8.412  0.00  0.00    +0.000 NA
ENDBRANCH  10  11
BRANCH  10  17
ATOM     17  C   UNL     1      44.831   3.024  10.515  0.00  0.00    +0.000 C 
BRANCH  17  19
ATOM     18  C   UNL     1      43.412   3.069  12.385  0.00  0.00    +0.000 C 
ATOM     19  O   UNL     1      43.484   2.833  10.979  0.00  0.00    +0.000 OA
ENDBRANCH  17  19
ENDBRANCH  10  17
ENDBRANCH   8  10
ENDBRANCH   7   8
ENDBRANCH   1   7
BRANCH   4  20
ATOM     20  C   UNL     1      47.821   8.591  14.165  0.00  0.00    +0.000 C 
BRANCH  20  21
ATOM     21  N   UNL     1      48.122   7.687  15.241  0.00  0.00    +0.000 N 
ATOM     22  C   UNL     1      49.348   7.091  15.382  0.00  0.00    +0.000 C 
ATOM     23  O   UNL     1      50.288   7.317  14.626  0.00  0.00    +0.000 OA
ATOM     24  H   UNL     1      47.321   7.263  15.692  0.00  0.00    +0.000 HD
BRANCH  22  25
ATOM     25  C   UNL     1      49.486   6.217  16.556  0.00  0.00    +0.000 A 
ATOM     26  C   UNL     1      50.404   6.523  17.552  0.00  0.00    +0.000 A 
ATOM     27  S   UNL     1      50.340   5.456  18.882  0.00  0.00    +0.000 S 
ATOM     28  C   UNL     1      49.128   4.515  18.146  0.00  0.00    +0.000 A 
ATOM     29  N   UNL     1      48.611   3.419  18.761  0.00  0.00    +0.000 NA
ATOM     30  C   UNL     1      47.713   2.794  18.081  0.00  0.00    +0.000 A 
ATOM     31  N   UNL     1      47.286   3.166  16.834  0.00  0.00    +0.000 N 
ATOM     32  C   UNL     1      47.768   4.267  16.170  0.00  0.00    +0.000 A 
ATOM     33  O   UNL     1      47.352   4.569  15.062  0.00  0.00    +0.000 OA
ATOM     34  C   UNL     1      48.772   5.013  16.905  0.00  0.00    +0.000 A 
ATOM     35  H   UNL     1      46.573   2.630  16.352  0.00  0.00    +0.000 HD
ENDBRANCH  22  25
ENDBRANCH  20  21
ENDBRANCH   4  20
TORSDOF 9
ENDMDL
MODEL 2
REMARK VINA RESULT:    -6.858      1.795      2.202
REMARK INTER + INTRA:         -11.813
REMARK INTER:                 -10.870
REMARK INTRA:                  -0.943
REMARK UNBOUND:                -1.346
REMARK  Name = 
REMARK  10 active torsions:
REMARK  status: ('A' for Active; 'I' for Inactive)
REMARK    1  A    between atoms: C_1  and  O_2
REMARK    2  A    between atoms: O_2  and  C_3
REMARK    3  A    between atoms: C_3  and  C_4
REMARK    4  A    between atoms: C_4  and  N_5
REMARK    5  A    between atoms: C_4  and  C_27
REMARK    6  A    between atoms: N_5  and  C_6
REMARK    7  A    between atoms: C_6  and  C_7
REMARK    8  A    between atoms: C_10  and  C_11
REMARK    9  A    between atoms: C_11  and  N_12
REMARK   10  A    between atoms: C_13  and  C_15
REMARK                            x       y       z     vdW  Elec       q    Type
REMARK                         _______ _______ _______ _____ _____    ______ ____
ROOT
ATOM      1  C   UNL     1      45.633   6.594  11.670  0.00  0.00    +0.000 A 
ATOM      2  C   UNL     1      45.370   7.801  12.333  0.00  0.00    +0.000 A 
ATOM      3  C   UNL     1      46.282   8.320  13.259  0.00  0.00    +0.000 A 
ATOM      4  C   UNL     1      47.479   7.643  13.535  0.00  0.00    +0.000 A 
ATOM      5  C   UNL     1      47.704   6.401  12.929  0.00  0.00    +0.000 A 
ATOM      6  C   UNL     1      46.797   5.887  12.000  0.00  0.00    +0.000 A 
ENDROOT
BRANCH   1   7
ATOM      7  C   UNL     1      44.682   6.036  10.634  0.00  0.00    +0.000 C 
BRANCH   7   8
ATOM      8  N   UNL     1      45.397   5.395   9.526  0.00  0.00    +0.000 NA
ATOM      9  H   UNL     1      45.189   5.918   8.673  0.00  0.00    +0.000 HD
BRANCH   8  10
ATOM     10  C   UNL     1      44.941   3.998   9.281  0.00  0.00    +0.000 C 
BRANCH  10  11
ATOM     11  C   UNL     1      45.767   3.268   8.219  0.00  0.00    +0.000 A 
ATOM     12  C   UNL     1      46.071   1.915   8.367  0.00  0.00    +0.000 A 
ATOM     13  C   UNL     1      46.782   1.266   7.360  0.00  0.00    +0.000 A 
ATOM     14  C   UNL     1      47.181   1.981   6.237  0.00  0.00    +0.000 A 
ATOM     15  C   UNL     1      46.847   3.320   6.164  0.00  0.00    +0.000 A 
ATOM     16  N   UNL     1      46.151   3.971   7.120  0.00  0.00    +0.000 NA
ENDBRANCH  10  11
BRANCH  10  17
ATOM     17  C   UNL     1      44.827   3.152  10.579  0.00  0.00    +0.000 C 
BRANCH  17  19
ATOM     18  C   UNL     1      43.347   3.018  12.398  0.00  0.00    +0.000 C 
ATOM     19  O   UNL     1      43.457   2.971  10.976  0.00  0.00    +0.000 OA
ENDBRANCH  17  19
ENDBRANCH  10  17
ENDBRANCH   8  10
ENDBRANCH   7   8
ENDBRANCH   1   7
BRANCH   4  20
ATOM     20  C   UNL     1      48.502   8.209  14.487  0.00  0.00    +0.000 C 
BRANCH  20  21
ATOM     21  N   UNL     1      48.820   7.257  15.516  0.00  0.00    +0.000 N 
ATOM     22  C   UNL     1      49.586   7.578  16.605  0.00  0.00    +0.000 C 
ATOM     23  O   UNL     1      50.020   8.709  16.803  0.00  0.00    +0.000 OA
ATOM     24  H   UNL     1      48.736   6.283  15.250  0.00  0.00    +0.000 HD
BRANCH  22  25
ATOM     25  C   UNL     1      49.787   6.487  17.570  0.00  0.00    +0.000 A 
ATOM     26  C   UNL     1      50.820   5.576  17.391  0.00  0.00    +0.000 A 
ATOM     27  S   UNL     1      50.961   4.453  18.669  0.00  0.00    +0.000 S 
ATOM     28  C   UNL     1      49.610   5.106  19.471  0.00  0.00    +0.000 A 
ATOM     29  N   UNL     1      49.174   4.597  20.654  0.00  0.00    +0.000 NA
ATOM     30  C   UNL     1      48.133   5.179  21.139  0.00  0.00    +0.000 A 
ATOM     31  N   UNL     1      47.482   6.226  20.544  0.00  0.00    +0.000 N 
ATOM     32  C   UNL     1      47.883   6.784  19.355  0.00  0.00    +0.000 A 
ATOM     33  O   UNL     1      47.278   7.725  18.864  0.00  0.00    +0.000 OA
ATOM     34  C   UNL     1      49.063   6.171  18.777  0.00  0.00    +0.000 A 
ATOM     35  H   UNL     1      46.666   6.641  20.981  0.00  0.00    +0.000 HD
ENDBRANCH  22  25
ENDBRANCH  20  21
ENDBRANCH   4  20
TORSDOF 9
ENDMDL
MODEL 3
REMARK VINA RESULT:    -6.778      3.417      4.579
REMARK INTER + INTRA:         -11.690
REMARK INTER:                 -10.388
REMARK INTRA:                  -1.303
REMARK UNBOUND:                -1.346
REMARK  Name = 
REMARK  10 active torsions:
REMARK  status: ('A' for Active; 'I' for Inactive)
REMARK    1  A    between atoms: C_1  and  O_2
REMARK    2  A    between atoms: O_2  and  C_3
REMARK    3  A    between atoms: C_3  and  C_4
REMARK    4  A    between atoms: C_4  and  N_5
REMARK    5  A    between atoms: C_4  and  C_27
REMARK    6  A    between atoms: N_5  and  C_6
REMARK    7  A    between atoms: C_6  and  C_7
REMARK    8  A    between atoms: C_10  and  C_11
REMARK    9  A    between atoms: C_11  and  N_12
REMARK   10  A    between atoms: C_13  and  C_15
REMARK                            x       y       z     vdW  Elec       q    Type
REMARK                         _______ _______ _______ _____ _____    ______ ____
ROOT
ATOM      1  C   UNL     1      45.394   6.508  11.492  0.00  0.00    +0.000 A 
ATOM      2  C   UNL     1      46.541   5.933  12.057  0.00  0.00    +0.000 A 
ATOM      3  C   UNL     1      47.344   6.663  12.941  0.00  0.00    +0.000 A 
ATOM      4  C   UNL     1      47.012   7.982  13.281  0.00  0.00    +0.000 A 
ATOM      5  C   UNL     1      45.909   8.579  12.658  0.00  0.00    +0.000 A 
ATOM      6  C   UNL     1      45.104   7.848  11.782  0.00  0.00    +0.000 A 
ENDROOT
BRANCH   1   7
ATOM      7  C   UNL     1      44.487   5.725  10.568  0.00  0.00    +0.000 C 
BRANCH   7   8
ATOM      8  N   UNL     1      45.239   5.072   9.492  0.00  0.00    +0.000 NA
ATOM      9  H   UNL     1      45.002   5.541   8.615  0.00  0.00    +0.000 HD
BRANCH   8  10
ATOM     10  C   UNL     1      44.861   3.642   9.316  0.00  0.00    +0.000 C 
BRANCH  10  11
ATOM     11  C   UNL     1      45.718   2.912   8.277  0.00  0.00    +0.000 A 
ATOM     12  C   UNL     1      46.200   3.590   7.158  0.00  0.00    +0.000 A 
ATOM     13  C   UNL     1      47.018   2.911   6.256  0.00  0.00    +0.000 A 
ATOM     14  C   UNL     1      47.326   1.576   6.485  0.00  0.00    +0.000 A 
ATOM     15  C   UNL     1      46.806   0.971   7.613  0.00  0.00    +0.000 A 
ATOM     16  N   UNL     1      46.019   1.606   8.508  0.00  0.00    +0.000 NA
ENDBRANCH  10  11
BRANCH  10  17
ATOM     17  C   UNL     1      44.809   2.851  10.652  0.00  0.00    +0.000 C 
BRANCH  17  19
ATOM     18  C   UNL     1      43.336   2.933  12.479  0.00  0.00    +0.000 C 
ATOM     19  O   UNL     1      43.457   2.635  11.088  0.00  0.00    +0.000 OA
ENDBRANCH  17  19
ENDBRANCH  10  17
ENDBRANCH   8  10
ENDBRANCH   7   8
ENDBRANCH   1   7
BRANCH   4  20
ATOM     20  C   UNL     1      47.830   8.769  14.272  0.00  0.00    +0.000 C 
BRANCH  20  21
ATOM     21  N   UNL     1      49.210   8.811  13.872  0.00  0.00    +0.000 N 
ATOM     22  C   UNL     1      49.762   9.894  13.241  0.00  0.00    +0.000 C 
ATOM     23  O   UNL     1      49.131  10.920  13.007  0.00  0.00    +0.000 OA
ATOM     24  H   UNL     1      49.666   7.911  13.781  0.00  0.00    +0.000 HD
BRANCH  22  25
ATOM     25  C   UNL     1      51.194   9.772  12.930  0.00  0.00    +0.000 A 
ATOM     26  C   UNL     1      52.113  10.631  13.518  0.00  0.00    +0.000 A 
ATOM     27  S   UNL     1      53.732  10.264  13.122  0.00  0.00    +0.000 S 
ATOM     28  C   UNL     1      53.256   8.987  12.103  0.00  0.00    +0.000 A 
ATOM     29  N   UNL     1      54.170   8.238  11.431  0.00  0.00    +0.000 NA
ATOM     30  C   UNL     1      53.667   7.317  10.686  0.00  0.00    +0.000 A 
ATOM     31  N   UNL     1      52.326   7.078  10.546  0.00  0.00    +0.000 N 
ATOM     32  C   UNL     1      51.361   7.798  11.206  0.00  0.00    +0.000 A 
ATOM     33  O   UNL     1      50.175   7.544  11.060  0.00  0.00    +0.000 OA
ATOM     34  C   UNL     1      51.881   8.838  12.072  0.00  0.00    +0.000 A 
ATOM     35  H   UNL     1      51.996   6.333   9.942  0.00  0.00    +0.000 HD
ENDBRANCH  22  25
ENDBRANCH  20  21
ENDBRANCH   4  20
TORSDOF 9
ENDMDL
MODEL 4
REMARK VINA RESULT:    -6.596      2.923      8.280
REMARK INTER + INTRA:         -11.413
REMARK INTER:                  -9.911
REMARK INTRA:                  -1.502
REMARK UNBOUND:                -1.346
REMARK  Name = 
REMARK  10 active torsions:
REMARK  status: ('A' for Active; 'I' for Inactive)
REMARK    1  A    between atoms: C_1  and  O_2
REMARK    2  A    between atoms: O_2  and  C_3
REMARK    3  A    between atoms: C_3  and  C_4
REMARK    4  A    between atoms: C_4  and  N_5
REMARK    5  A    between atoms: C_4  and  C_27
REMARK    6  A    between atoms: N_5  and  C_6
REMARK    7  A    between atoms: C_6  and  C_7
REMARK    8  A    between atoms: C_10  and  C_11
REMARK    9  A    between atoms: C_11  and  N_12
REMARK   10  A    between atoms: C_13  and  C_15
REMARK                            x       y       z     vdW  Elec       q    Type
REMARK                         _______ _______ _______ _____ _____    ______ ____
ROOT
ATOM      1  C   UNL     1      49.718   8.203  15.462  0.00  0.00    +0.000 A 
ATOM      2  C   UNL     1      50.044   7.389  14.368  0.00  0.00    +0.000 A 
ATOM      3  C   UNL     1      49.204   7.327  13.250  0.00  0.00    +0.000 A 
ATOM      4  C   UNL     1      48.025   8.084  13.202  0.00  0.00    +0.000 A 
ATOM      5  C   UNL     1      47.664   8.837  14.326  0.00  0.00    +0.000 A 
ATOM      6  C   UNL     1      48.505   8.904  15.439  0.00  0.00    +0.000 A 
ENDROOT
BRANCH   1   7
ATOM      7  C   UNL     1      50.632   8.319  16.663  0.00  0.00    +0.000 C 
BRANCH   7   8
ATOM      8  N   UNL     1      50.777   7.038  17.363  0.00  0.00    +0.000 NA
ATOM      9  H   UNL     1      51.076   6.340  16.679  0.00  0.00    +0.000 HD
BRANCH   8  10
ATOM     10  C   UNL     1      49.490   6.546  17.928  0.00  0.00    +0.000 C 
BRANCH  10  11
ATOM     11  C   UNL     1      49.100   5.153  17.426  0.00  0.00    +0.000 A 
ATOM     12  C   UNL     1      49.859   4.037  17.780  0.00  0.00    +0.000 A 
ATOM     13  C   UNL     1      49.451   2.777  17.348  0.00  0.00    +0.000 A 
ATOM     14  C   UNL     1      48.307   2.660  16.569  0.00  0.00    +0.000 A 
ATOM     15  C   UNL     1      47.611   3.811  16.255  0.00  0.00    +0.000 A 
ATOM     16  N   UNL     1      47.978   5.043  16.667  0.00  0.00    +0.000 NA
ENDBRANCH  10  11
BRANCH  10  17
ATOM     17  C   UNL     1      49.432   6.618  19.479  0.00  0.00    +0.000 C 
BRANCH  17  19
ATOM     18  C   UNL     1      47.591   8.041  19.167  0.00  0.00    +0.000 C 
ATOM     19  O   UNL     1      48.119   6.968  19.946  0.00  0.00    +0.000 OA
ENDBRANCH  17  19
ENDBRANCH  10  17
ENDBRANCH   8  10
ENDBRANCH   7   8
ENDBRANCH   1   7
BRANCH   4  20
ATOM     20  C   UNL     1      47.133   8.076  11.987  0.00  0.00    +0.000 C 
BRANCH  20  21
ATOM     21  N   UNL     1      46.507   6.792  11.825  0.00  0.00    +0.000 N 
ATOM     22  C   UNL     1      45.164   6.651  11.595  0.00  0.00    +0.000 C 
ATOM     23  O   UNL     1      44.406   7.608  11.471  0.00  0.00    +0.000 OA
ATOM     24  H   UNL     1      47.022   6.005  12.201  0.00  0.00    +0.000 HD
BRANCH  22  25
ATOM     25  C   UNL     1      44.702   5.265  11.426  0.00  0.00    +0.000 A 
ATOM     26  C   UNL     1      43.997   4.634  12.442  0.00  0.00    +0.000 A 
ATOM     27  S   UNL     1      43.451   3.073  12.019  0.00  0.00    +0.000 S 
ATOM     28  C   UNL     1      44.192   3.164  10.489  0.00  0.00    +0.000 A 
ATOM     29  N   UNL     1      44.114   2.137   9.602  0.00  0.00    +0.000 NA
ATOM     30  C   UNL     1      44.734   2.338   8.492  0.00  0.00    +0.000 A 
ATOM     31  N   UNL     1      45.433   3.475   8.188  0.00  0.00    +0.000 N 
ATOM     32  C   UNL     1      45.538   4.545   9.042  0.00  0.00    +0.000 A 
ATOM     33  O   UNL     1      46.163   5.546   8.725  0.00  0.00    +0.000 OA
ATOM     34  C   UNL     1      44.841   4.372  10.302  0.00  0.00    +0.000 A 
ATOM     35  H   UNL     1      45.899   3.570   7.292  0.00  0.00    +0.000 HD
ENDBRANCH  22  25
ENDBRANCH  20  21
ENDBRANCH   4  20
TORSDOF 9
ENDMDL
MODEL 5
REMARK VINA RESULT:    -6.463      4.332      9.854
REMARK INTER + INTRA:         -11.210
REMARK INTER:                 -10.016
REMARK INTRA:                  -1.194
REMARK UNBOUND:                -1.346
REMARK  Name = 
REMARK  10 active torsions:
REMARK  status: ('A' for Active; 'I' for Inactive)
REMARK    1  A    between atoms: C_1  and  O_2
REMARK    2  A    between atoms: O_2  and  C_3
REMARK    3  A    between atoms: C_3  and  C_4
REMARK    4  A    between atoms: C_4  and  N_5
REMARK    5  A    between atoms: C_4  and  C_27
REMARK    6  A    between atoms: N_5  and  C_6
REMARK    7  A    between atoms: C_6  and  C_7
REMARK    8  A    between atoms: C_10  and  C_11
REMARK    9  A    between atoms: C_11  and  N_12
REMARK   10  A    between atoms: C_13  and  C_15
REMARK                            x       y       z     vdW  Elec       q    Type
REMARK                         _______ _______ _______ _____ _____    ______ ____
ROOT
ATOM      1  C   UNL     1      51.180   4.239  18.018  0.00  0.00    +0.000 A 
ATOM      2  C   UNL     1      50.289   5.287  17.747  0.00  0.00    +0.000 A 
ATOM      3  C   UNL     1      48.995   5.020  17.284  0.00  0.00    +0.000 A 
ATOM      4  C   UNL     1      48.566   3.699  17.089  0.00  0.00    +0.000 A 
ATOM      5  C   UNL     1      49.482   2.659  17.288  0.00  0.00    +0.000 A 
ATOM      6  C   UNL     1      50.771   2.925  17.756  0.00  0.00    +0.000 A 
ENDROOT
BRANCH   1   7
ATOM      7  C   UNL     1      52.569   4.501  18.559  0.00  0.00    +0.000 C 
BRANCH   7   8
ATOM      8  N   UNL     1      52.920   3.566  19.633  0.00  0.00    +0.000 NA
ATOM      9  H   UNL     1      52.888   4.078  20.517  0.00  0.00    +0.000 HD
BRANCH   8  10
ATOM     10  C   UNL     1      54.309   3.042  19.503  0.00  0.00    +0.000 C 
BRANCH  10  11
ATOM     11  C   UNL     1      54.430   1.889  18.503  0.00  0.00    +0.000 A 
ATOM     12  C   UNL     1      55.108   2.067  17.298  0.00  0.00    +0.000 A 
ATOM     13  C   UNL     1      55.243   0.985  16.430  0.00  0.00    +0.000 A 
ATOM     14  C   UNL     1      54.694  -0.243  16.780  0.00  0.00    +0.000 A 
ATOM     15  C   UNL     1      54.031  -0.340  17.988  0.00  0.00    +0.000 A 
ATOM     16  N   UNL     1      53.893   0.689  18.851  0.00  0.00    +0.000 NA
ENDBRANCH  10  11
BRANCH  10  17
ATOM     17  C   UNL     1      55.359   4.148  19.210  0.00  0.00    +0.000 C 
BRANCH  17  19
ATOM     18  C   UNL     1      55.775   6.405  19.711  0.00  0.00    +0.000 C 
ATOM     19  O   UNL     1      55.388   5.141  20.249  0.00  0.00    +0.000 OA
ENDBRANCH  17  19
ENDBRANCH  10  17
ENDBRANCH   8  10
ENDBRANCH   7   8
ENDBRANCH   1   7
BRANCH   4  20
ATOM     20  C   UNL     1      47.160   3.386  16.644  0.00  0.00    +0.000 C 
BRANCH  20  21
ATOM     21  N   UNL     1      46.700   4.359  15.692  0.00  0.00    +0.000 N 
ATOM     22  C   UNL     1      46.778   4.160  14.339  0.00  0.00    +0.000 C 
ATOM     23  O   UNL     1      47.207   3.123  13.842  0.00  0.00    +0.000 OA
ATOM     24  H   UNL     1      46.620   5.307  16.040  0.00  0.00    +0.000 HD
BRANCH  22  25
ATOM     25  C   UNL     1      46.233   5.250  13.515  0.00  0.00    +0.000 A 
ATOM     26  C   UNL     1      46.991   6.388  13.272  0.00  0.00    +0.000 A 
ATOM     27  S   UNL     1      46.236   7.489  12.208  0.00  0.00    +0.000 S 
ATOM     28  C   UNL     1      44.848   6.511  12.086  0.00  0.00    +0.000 A 
ATOM     29  N   UNL     1      43.789   6.878  11.317  0.00  0.00    +0.000 NA
ATOM     30  C   UNL     1      42.802   6.051  11.332  0.00  0.00    +0.000 A 
ATOM     31  N   UNL     1      42.776   4.887  12.052  0.00  0.00    +0.000 N 
ATOM     32  C   UNL     1      43.820   4.465  12.839  0.00  0.00    +0.000 A 
ATOM     33  O   UNL     1      43.758   3.414  13.458  0.00  0.00    +0.000 OA
ATOM     34  C   UNL     1      44.962   5.358  12.842  0.00  0.00    +0.000 A 
ATOM     35  H   UNL     1      41.966   4.278  12.019  0.00  0.00    +0.000 HD
ENDBRANCH  22  25
ENDBRANCH  20  21
ENDBRANCH   4  20
TORSDOF 9
ENDMDL
MODEL 6
REMARK VINA RESULT:    -6.357      3.566      8.150
REMARK INTER + INTRA:         -11.048
REMARK INTER:                  -8.748
REMARK INTRA:                  -2.300
REMARK UNBOUND:                -1.346
REMARK  Name = 
REMARK  10 active torsions:
REMARK  status: ('A' for Active; 'I' for Inactive)
REMARK    1  A    between atoms: C_1  and  O_2
REMARK    2  A    between atoms: O_2  and  C_3
REMARK    3  A    between atoms: C_3  and  C_4
REMARK    4  A    between atoms: C_4  and  N_5
REMARK    5  A    between atoms: C_4  and  C_27
REMARK    6  A    between atoms: N_5  and  C_6
REMARK    7  A    between atoms: C_6  and  C_7
REMARK    8  A    between atoms: C_10  and  C_11
REMARK    9  A    between atoms: C_11  and  N_12
REMARK   10  A    between atoms: C_13  and  C_15
REMARK                            x       y       z     vdW  Elec       q    Type
REMARK                         _______ _______ _______ _____ _____    ______ ____
ROOT
ATOM      1  C   UNL     1      50.747   7.248  17.235  0.00  0.00    +0.000 A 
ATOM      2  C   UNL     1      50.725   6.939  15.868  0.00  0.00    +0.000 A 
ATOM      3  C   UNL     1      49.817   7.569  15.009  0.00  0.00    +0.000 A 
ATOM      4  C   UNL     1      48.916   8.525  15.501  0.00  0.00    +0.000 A 
ATOM      5  C   UNL     1      48.889   8.776  16.878  0.00  0.00    +0.000 A 
ATOM      6  C   UNL     1      49.800   8.153  17.734  0.00  0.00    +0.000 A 
ENDROOT
BRANCH   1   7
ATOM      7  C   UNL     1      51.749   6.613  18.175  0.00  0.00    +0.000 C 
BRANCH   7   8
ATOM      8  N   UNL     1      51.093   5.783  19.190  0.00  0.00    +0.000 NA
ATOM      9  H   UNL     1      51.702   5.752  20.011  0.00  0.00    +0.000 HD
BRANCH   8  10
ATOM     10  C   UNL     1      50.914   4.372  18.748  0.00  0.00    +0.000 C 
BRANCH  10  11
ATOM     11  C   UNL     1      49.541   4.101  18.128  0.00  0.00    +0.000 A 
ATOM     12  C   UNL     1      48.426   4.838  18.528  0.00  0.00    +0.000 A 
ATOM     13  C   UNL     1      47.200   4.602  17.909  0.00  0.00    +0.000 A 
ATOM     14  C   UNL     1      47.112   3.633  16.917  0.00  0.00    +0.000 A 
ATOM     15  C   UNL     1      48.258   2.940  16.579  0.00  0.00    +0.000 A 
ATOM     16  N   UNL     1      49.460   3.154  17.155  0.00  0.00    +0.000 NA
ENDBRANCH  10  11
BRANCH  10  17
ATOM     17  C   UNL     1      52.055   3.869  17.822  0.00  0.00    +0.000 C 
BRANCH  17  19
ATOM     18  C   UNL     1      53.596   2.993  19.363  0.00  0.00    +0.000 C 
ATOM     19  O   UNL     1      52.663   2.670  18.333  0.00  0.00    +0.000 OA
ENDBRANCH  17  19
ENDBRANCH  10  17
ENDBRANCH   8  10
ENDBRANCH   7   8
ENDBRANCH   1   7
BRANCH   4  20
ATOM     20  C   UNL     1      47.966   9.255  14.587  0.00  0.00    +0.000 C 
BRANCH  20  21
ATOM     21  N   UNL     1      46.978   8.356  14.057  0.00  0.00    +0.000 N 
ATOM     22  C   UNL     1      46.865   8.092  12.717  0.00  0.00    +0.000 C 
ATOM     23  O   UNL     1      47.622   8.571  11.879  0.00  0.00    +0.000 OA
ATOM     24  H   UNL     1      46.181   8.181  14.656  0.00  0.00    +0.000 HD
BRANCH  22  25
ATOM     25  C   UNL     1      45.816   7.126  12.358  0.00  0.00    +0.000 A 
ATOM     26  C   UNL     1      44.678   7.547  11.684  0.00  0.00    +0.000 A 
ATOM     27  S   UNL     1      43.631   6.268  11.258  0.00  0.00    +0.000 S 
ATOM     28  C   UNL     1      44.633   5.118  12.013  0.00  0.00    +0.000 A 
ATOM     29  N   UNL     1      44.313   3.797  12.021  0.00  0.00    +0.000 NA
ATOM     30  C   UNL     1      45.153   3.044  12.642  0.00  0.00    +0.000 A 
ATOM     31  N   UNL     1      46.288   3.495  13.261  0.00  0.00    +0.000 N 
ATOM     32  C   UNL     1      46.663   4.815  13.277  0.00  0.00    +0.000 A 
ATOM     33  O   UNL     1      47.690   5.173  13.834  0.00  0.00    +0.000 OA
ATOM     34  C   UNL     1      45.754   5.701  12.576  0.00  0.00    +0.000 A 
ATOM     35  H   UNL     1      46.910   2.847  13.732  0.00  0.00    +0.000 HD
ENDBRANCH  22  25
ENDBRANCH  20  21
ENDBRANCH   4  20
TORSDOF 9
ENDMDL
MODEL 7
REMARK VINA RESULT:    -6.335      5.181      6.947
REMARK INTER + INTRA:         -11.014
REMARK INTER:                  -9.727
REMARK INTRA:                  -1.288
REMARK UNBOUND:                -1.346
REMARK  Name = 
REMARK  10 active torsions:
REMARK  status: ('A' for Active; 'I' for Inactive)
REMARK    1  A    between atoms: C_1  and  O_2
REMARK    2  A    between atoms: O_2  and  C_3
REMARK    3  A    between atoms: C_3  and  C_4
REMARK    4  A    between atoms: C_4  and  N_5
REMARK    5  A    between atoms: C_4  and  C_27
REMARK    6  A    between atoms: N_5  and  C_6
REMARK    7  A    between atoms: C_6  and  C_7
REMARK    8  A    between atoms: C_10  and  C_11
REMARK    9  A    between atoms: C_11  and  N_12
REMARK   10  A    between atoms: C_13  and  C_15
REMARK                            x       y       z     vdW  Elec       q    Type
REMARK                         _______ _______ _______ _____ _____    ______ ____
ROOT
ATOM      1  C   UNL     1      47.076   7.143  12.802  0.00  0.00    +0.000 A 
ATOM      2  C   UNL     1      47.984   7.148  13.871  0.00  0.00    +0.000 A 
ATOM      3  C   UNL     1      49.331   7.463  13.660  0.00  0.00    +0.000 A 
ATOM      4  C   UNL     1      49.796   7.783  12.377  0.00  0.00    +0.000 A 
ATOM      5  C   UNL     1      48.904   7.704  11.300  0.00  0.00    +0.000 A 
ATOM      6  C   UNL     1      47.559   7.397  11.511  0.00  0.00    +0.000 A 
ENDROOT
BRANCH   1   7
ATOM      7  C   UNL     1      45.607   6.849  13.012  0.00  0.00    +0.000 C 
BRANCH   7   8
ATOM      8  N   UNL     1      44.916   6.588  11.745  0.00  0.00    +0.000 NA
ATOM      9  H   UNL     1      44.126   7.233  11.681  0.00  0.00    +0.000 HD
BRANCH   8  10
ATOM     10  C   UNL     1      44.343   5.215  11.678  0.00  0.00    +0.000 C 
BRANCH  10  11
ATOM     11  C   UNL     1      44.686   4.477  10.381  0.00  0.00    +0.000 A 
ATOM     12  C   UNL     1      45.582   5.033   9.468  0.00  0.00    +0.000 A 
ATOM     13  C   UNL     1      45.912   4.316   8.320  0.00  0.00    +0.000 A 
ATOM     14  C   UNL     1      45.337   3.069   8.106  0.00  0.00    +0.000 A 
ATOM     15  C   UNL     1      44.454   2.587   9.053  0.00  0.00    +0.000 A 
ATOM     16  N   UNL     1      44.123   3.256  10.177  0.00  0.00    +0.000 NA
ENDBRANCH  10  11
BRANCH  10  17
ATOM     17  C   UNL     1      44.680   4.346  12.921  0.00  0.00    +0.000 C 
BRANCH  17  19
ATOM     18  C   UNL     1      46.778   3.525  13.585  0.00  0.00    +0.000 C 
ATOM     19  O   UNL     1      45.719   3.394  12.637  0.00  0.00    +0.000 OA
ENDBRANCH  17  19
ENDBRANCH  10  17
ENDBRANCH   8  10
ENDBRANCH   7   8
ENDBRANCH   1   7
BRANCH   4  20
ATOM     20  C   UNL     1      51.231   8.178  12.134  0.00  0.00    +0.000 C 
BRANCH  20  21
ATOM     21  N   UNL     1      51.596   7.948  10.763  0.00  0.00    +0.000 N 
ATOM     22  C   UNL     1      52.676   8.554  10.178  0.00  0.00    +0.000 C 
ATOM     23  O   UNL     1      53.432   9.303  10.789  0.00  0.00    +0.000 OA
ATOM     24  H   UNL     1      50.859   7.588  10.169  0.00  0.00    +0.000 HD
BRANCH  22  25
ATOM     25  C   UNL     1      52.917   8.180   8.776  0.00  0.00    +0.000 A 
ATOM     26  C   UNL     1      52.757   9.118   7.764  0.00  0.00    +0.000 A 
ATOM     27  S   UNL     1      53.188   8.530   6.221  0.00  0.00    +0.000 S 
ATOM     28  C   UNL     1      53.542   6.986   6.843  0.00  0.00    +0.000 A 
ATOM     29  N   UNL     1      53.971   5.979   6.037  0.00  0.00    +0.000 NA
ATOM     30  C   UNL     1      54.185   4.861   6.641  0.00  0.00    +0.000 A 
ATOM     31  N   UNL     1      54.004   4.657   7.982  0.00  0.00    +0.000 N 
ATOM     32  C   UNL     1      53.580   5.640   8.843  0.00  0.00    +0.000 A 
ATOM     33  O   UNL     1      53.441   5.416  10.036  0.00  0.00    +0.000 OA
ATOM     34  C   UNL     1      53.341   6.923   8.211  0.00  0.00    +0.000 A 
ATOM     35  H   UNL     1      54.193   3.751   8.396  0.00  0.00    +0.000 HD
ENDBRANCH  22  25
ENDBRANCH  20  21
ENDBRANCH   4  20
TORSDOF 9
ENDMDL
MODEL 8
REMARK VINA RESULT:    -6.272      3.907      9.532
REMARK INTER + INTRA:         -10.918
REMARK INTER:                  -9.579
REMARK INTRA:                  -1.339
REMARK UNBOUND:                -1.346
REMARK  Name = 
REMARK  10 active torsions:
REMARK  status: ('A' for Active; 'I' for Inactive)
REMARK    1  A    between atoms: C_1  and  O_2
REMARK    2  A    between atoms: O_2  and  C_3
REMARK    3  A    between atoms: C_3  and  C_4
REMARK    4  A    between atoms: C_4  and  N_5
REMARK    5  A    between atoms: C_4  and  C_27
REMARK    6  A    between atoms: N_5  and  C_6
REMARK    7  A    between atoms: C_6  and  C_7
REMARK    8  A    between atoms: C_10  and  C_11
REMARK    9  A    between atoms: C_11  and  N_12
REMARK   10  A    between atoms: C_13  and  C_15
REMARK                            x       y       z     vdW  Elec       q    Type
REMARK                         _______ _______ _______ _____ _____    ______ ____
ROOT
ATOM      1  C   UNL     1      51.438   3.262  17.659  0.00  0.00    +0.000 A 
ATOM      2  C   UNL     1      50.741   4.474  17.765  0.00  0.00    +0.000 A 
ATOM      3  C   UNL     1      49.366   4.531  17.506  0.00  0.00    +0.000 A 
ATOM      4  C   UNL     1      48.662   3.375  17.141  0.00  0.00    +0.000 A 
ATOM      5  C   UNL     1      49.374   2.182  16.962  0.00  0.00    +0.000 A 
ATOM      6  C   UNL     1      50.744   2.124  17.227  0.00  0.00    +0.000 A 
ENDROOT
BRANCH   1   7
ATOM      7  C   UNL     1      52.915   3.168  17.976  0.00  0.00    +0.000 C 
BRANCH   7   8
ATOM      8  N   UNL     1      53.454   4.447  18.448  0.00  0.00    +0.000 NA
ATOM      9  H   UNL     1      52.788   5.180  18.195  0.00  0.00    +0.000 HD
BRANCH   8  10
ATOM     10  C   UNL     1      54.741   4.805  17.788  0.00  0.00    +0.000 C 
BRANCH  10  11
ATOM     11  C   UNL     1      54.559   5.652  16.526  0.00  0.00    +0.000 A 
ATOM     12  C   UNL     1      53.526   6.585  16.443  0.00  0.00    +0.000 A 
ATOM     13  C   UNL     1      53.417   7.375  15.300  0.00  0.00    +0.000 A 
ATOM     14  C   UNL     1      54.331   7.210  14.267  0.00  0.00    +0.000 A 
ATOM     15  C   UNL     1      55.323   6.261  14.419  0.00  0.00    +0.000 A 
ATOM     16  N   UNL     1      55.458   5.489  15.518  0.00  0.00    +0.000 NA
ENDBRANCH  10  11
BRANCH  10  17
ATOM     17  C   UNL     1      55.767   5.456  18.756  0.00  0.00    +0.000 C 
BRANCH  17  19
ATOM     18  C   UNL     1      55.168   7.037  20.386  0.00  0.00    +0.000 C 
ATOM     19  O   UNL     1      55.212   5.646  20.068  0.00  0.00    +0.000 OA
ENDBRANCH  17  19
ENDBRANCH  10  17
ENDBRANCH   8  10
ENDBRANCH   7   8
ENDBRANCH   1   7
BRANCH   4  20
ATOM     20  C   UNL     1      47.173   3.400  16.910  0.00  0.00    +0.000 C 
BRANCH  20  21
ATOM     21  N   UNL     1      46.828   4.387  15.923  0.00  0.00    +0.000 N 
ATOM     22  C   UNL     1      46.924   4.148  14.577  0.00  0.00    +0.000 C 
ATOM     23  O   UNL     1      47.270   3.064  14.117  0.00  0.00    +0.000 OA
ATOM     24  H   UNL     1      46.826   5.347  16.247  0.00  0.00    +0.000 HD
BRANCH  22  25
ATOM     25  C   UNL     1      46.504   5.262  13.714  0.00  0.00    +0.000 A 
ATOM     26  C   UNL     1      47.352   6.340  13.500  0.00  0.00    +0.000 A 
ATOM     27  S   UNL     1      46.736   7.476  12.386  0.00  0.00    +0.000 S 
ATOM     28  C   UNL     1      45.290   6.598  12.199  0.00  0.00    +0.000 A 
ATOM     29  N   UNL     1      44.302   7.028  11.370  0.00  0.00    +0.000 NA
ATOM     30  C   UNL     1      43.260   6.272  11.340  0.00  0.00    +0.000 A 
ATOM     31  N   UNL     1      43.112   5.124  12.071  0.00  0.00    +0.000 N 
ATOM     32  C   UNL     1      44.079   4.641  12.917  0.00  0.00    +0.000 A 
ATOM     33  O   UNL     1      43.910   3.605  13.543  0.00  0.00    +0.000 OA
ATOM     34  C   UNL     1      45.281   5.450  12.972  0.00  0.00    +0.000 A 
ATOM     35  H   UNL     1      42.263   4.573  11.999  0.00  0.00    +0.000 HD
ENDBRANCH  22  25
ENDBRANCH  20  21
ENDBRANCH   4  20
TORSDOF 9
ENDMDL
MODEL 9
REMARK VINA RESULT:    -6.028      3.590      8.585
REMARK INTER + INTRA:         -10.546
REMARK INTER:                  -8.911
REMARK INTRA:                  -1.636
REMARK UNBOUND:                -1.346
REMARK  Name = 
REMARK  10 active torsions:
REMARK  status: ('A' for Active; 'I' for Inactive)
REMARK    1  A    between atoms: C_1  and  O_2
REMARK    2  A    between atoms: O_2  and  C_3
REMARK    3  A    between atoms: C_3  and  C_4
REMARK    4  A    between atoms: C_4  and  N_5
REMARK    5  A    between atoms: C_4  and  C_27
REMARK    6  A    between atoms: N_5  and  C_6
REMARK    7  A    between atoms: C_6  and  C_7
REMARK    8  A    between atoms: C_10  and  C_11
REMARK    9  A    between atoms: C_11  and  N_12
REMARK   10  A    between atoms: C_13  and  C_15
REMARK                            x       y       z     vdW  Elec       q    Type
REMARK                         _______ _______ _______ _____ _____    ______ ____
ROOT
ATOM      1  C   UNL     1      50.136   7.612  18.088  0.00  0.00    +0.000 A 
ATOM      2  C   UNL     1      50.761   7.258  16.884  0.00  0.00    +0.000 A 
ATOM      3  C   UNL     1      50.172   7.574  15.654  0.00  0.00    +0.000 A 
ATOM      4  C   UNL     1      48.947   8.256  15.606  0.00  0.00    +0.000 A 
ATOM      5  C   UNL     1      48.289   8.541  16.808  0.00  0.00    +0.000 A 
ATOM      6  C   UNL     1      48.880   8.232  18.035  0.00  0.00    +0.000 A 
ENDROOT
BRANCH   1   7
ATOM      7  C   UNL     1      50.775   7.318  19.428  0.00  0.00    +0.000 C 
BRANCH   7   8
ATOM      8  N   UNL     1      50.025   6.308  20.180  0.00  0.00    +0.000 NA
ATOM      9  H   UNL     1      50.270   6.406  21.167  0.00  0.00    +0.000 HD
BRANCH   8  10
ATOM     10  C   UNL     1      50.393   4.917  19.794  0.00  0.00    +0.000 C 
BRANCH  10  11
ATOM     11  C   UNL     1      49.474   4.322  18.723  0.00  0.00    +0.000 A 
ATOM     12  C   UNL     1      49.946   3.337  17.855  0.00  0.00    +0.000 A 
ATOM     13  C   UNL     1      49.072   2.780  16.924  0.00  0.00    +0.000 A 
ATOM     14  C   UNL     1      47.756   3.223  16.873  0.00  0.00    +0.000 A 
ATOM     15  C   UNL     1      47.364   4.206  17.761  0.00  0.00    +0.000 A 
ATOM     16  N   UNL     1      48.186   4.756  18.679  0.00  0.00    +0.000 NA
ENDBRANCH  10  11
BRANCH  10  17
ATOM     17  C   UNL     1      51.887   4.765  19.396  0.00  0.00    +0.000 C 
BRANCH  17  19
ATOM     18  C   UNL     1      53.608   3.233  19.849  0.00  0.00    +0.000 C 
ATOM     19  O   UNL     1      52.647   4.115  20.428  0.00  0.00    +0.000 OA
ENDBRANCH  17  19
ENDBRANCH  10  17
ENDBRANCH   8  10
ENDBRANCH   7   8
ENDBRANCH   1   7
BRANCH   4  20
ATOM     20  C   UNL     1      48.320   8.656  14.295  0.00  0.00    +0.000 C 
BRANCH  20  21
ATOM     21  N   UNL     1      47.346   7.683  13.880  0.00  0.00    +0.000 N 
ATOM     22  C   UNL     1      47.677   6.576  13.146  0.00  0.00    +0.000 C 
ATOM     23  O   UNL     1      48.831   6.311  12.824  0.00  0.00    +0.000 OA
ATOM     24  H   UNL     1      46.385   8.005  13.869  0.00  0.00    +0.000 HD
BRANCH  22  25
ATOM     25  C   UNL     1      46.557   5.675  12.835  0.00  0.00    +0.000 A 
ATOM     26  C   UNL     1      46.647   4.320  13.125  0.00  0.00    +0.000 A 
ATOM     27  S   UNL     1      45.210   3.460  12.796  0.00  0.00    +0.000 S 
ATOM     28  C   UNL     1      44.441   4.856  12.198  0.00  0.00    +0.000 A 
ATOM     29  N   UNL     1      43.163   4.818  11.738  0.00  0.00    +0.000 NA
ATOM     30  C   UNL     1      42.715   5.945  11.302  0.00  0.00    +0.000 A 
ATOM     31  N   UNL     1      43.434   7.110  11.281  0.00  0.00    +0.000 N 
ATOM     32  C   UNL     1      44.725   7.206  11.740  0.00  0.00    +0.000 A 
ATOM     33  O   UNL     1      45.327   8.269  11.712  0.00  0.00    +0.000 OA
ATOM     34  C   UNL     1      45.268   5.964  12.256  0.00  0.00    +0.000 A 
ATOM     35  H   UNL     1      43.021   7.964  10.925  0.00  0.00    +0.000 HD
ENDBRANCH  22  25
ENDBRANCH  20  21
ENDBRANCH   4  20
TORSDOF 9
ENDMDL
