MODEL 1
REMARK VINA RESULT:    -8.041      0.000      0.000
REMARK INTER + INTRA:         -11.765
REMARK INTER:                 -11.096
REMARK INTRA:                  -0.669
REMARK UNBOUND:                -0.669
REMARK  Name = 
REMARK  7 active torsions:
REMARK  status: ('A' for Active; 'I' for Inactive)
REMARK    1  A    between atoms: N_1  and  C_2
REMARK    2  A    between atoms: C_2  and  C_3
REMARK    3  A    between atoms: C_6  and  O_7
REMARK    4  A    between atoms: O_7  and  C_8
REMARK    5  A    between atoms: C_8  and  C_9
REMARK    6  A    between atoms: C_9  and  C_10
REMARK    7  A    between atoms: C_14  and  C_15
REMARK                            x       y       z     vdW  Elec       q    Type
REMARK                         _______ _______ _______ _____ _____    ______ ____
ROOT
ATOM      1  C   UNL     1      43.433   3.744  11.362  0.00  0.00    +0.000 C 
ENDROOT
BRANCH   1   2
ATOM      2  O   UNL     1      43.616   4.216  10.021  0.00  0.00    +0.000 OA
BRANCH   2   6
ATOM      3  C   UNL     1      46.470   2.330   7.595  0.00  0.00    +0.000 A 
ATOM      4  C   UNL     1      45.714   1.560   8.486  0.00  0.00    +0.000 A 
ATOM      5  C   UNL     1      44.752   2.151   9.311  0.00  0.00    +0.000 A 
ATOM      6  C   UNL     1      44.529   3.528   9.263  0.00  0.00    +0.000 A 
ATOM      7  C   UNL     1      45.276   4.302   8.372  0.00  0.00    +0.000 A 
ATOM      8  C   UNL     1      46.240   3.710   7.546  0.00  0.00    +0.000 A 
BRANCH   3   9
ATOM      9  C   UNL     1      47.531   1.684   6.741  0.00  0.00    +0.000 C 
BRANCH   9  10
ATOM     10  N   UNL     1      48.609   2.613   6.420  0.00  0.00    +0.000 NA
ATOM     11  H   UNL     1      48.356   3.543   6.748  0.00  0.00    +0.000 HD
ATOM     12  H   UNL     1      48.697   2.677   5.408  0.00  0.00    +0.000 HD
ENDBRANCH   9  10
ENDBRANCH   3   9
ENDBRANCH   2   6
ENDBRANCH   1   2
BRANCH   1  13
ATOM     13  C   UNL     1      43.615   4.887  12.357  0.00  0.00    +0.000 C 
BRANCH  13  14
ATOM     14  C   UNL     1      45.053   5.098  12.754  0.00  0.00    +0.000 A 
ATOM     15  C   UNL     1      45.856   5.972  12.044  0.00  0.00    +0.000 A 
ATOM     16  C   UNL     1      47.147   6.132  12.495  0.00  0.00    +0.000 A 
ATOM     17  N   UNL     1      47.648   5.488  13.562  0.00  0.00    +0.000 NA
ATOM     18  C   UNL     1      46.787   4.644  14.182  0.00  0.00    +0.000 A 
ATOM     19  N   UNL     1      45.505   4.418  13.828  0.00  0.00    +0.000 NA
BRANCH  18  20
ATOM     20  C   UNL     1      47.328   3.910  15.387  0.00  0.00    +0.000 C 
ATOM     21  N   UNL     1      47.168   4.552  16.596  0.00  0.00    +0.000 N 
ATOM     22  O   UNL     1      47.875   2.814  15.337  0.00  0.00    +0.000 OA
ATOM     23  H   UNL     1      46.717   5.458  16.630  0.00  0.00    +0.000 HD
ATOM     24  H   UNL     1      47.511   4.111  17.437  0.00  0.00    +0.000 HD
ENDBRANCH  18  20
ENDBRANCH  13  14
ENDBRANCH   1  13
TORSDOF 7
ENDMDL
MODEL 2
REMARK VINA RESULT:    -7.482      1.991      2.784
REMARK INTER + INTRA:         -10.993
REMARK INTER:                 -10.322
REMARK INTRA:                  -0.672
REMARK UNBOUND:                -0.669
REMARK  Name = 
REMARK  7 active torsions:
REMARK  status: ('A' for Active; 'I' for Inactive)
REMARK    1  A    between atoms: N_1  and  C_2
REMARK    2  A    between atoms: C_2  and  C_3
REMARK    3  A    between atoms: C_6  and  O_7
REMARK    4  A    between atoms: O_7  and  C_8
REMARK    5  A    between atoms: C_8  and  C_9
REMARK    6  A    between atoms: C_9  and  C_10
REMARK    7  A    between atoms: C_14  and  C_15
REMARK                            x       y       z     vdW  Elec       q    Type
REMARK                         _______ _______ _______ _____ _____    ______ ____
ROOT
ATOM      1  C   UNL     1      43.374   3.562  11.279  0.00  0.00    +0.000 C 
ENDROOT
BRANCH   1   2
ATOM      2  O   UNL     1      43.649   4.243  10.047  0.00  0.00    +0.000 OA
BRANCH   2   6
ATOM      3  C   UNL     1      46.584   2.335   7.740  0.00  0.00    +0.000 A 
ATOM      4  C   UNL     1      46.488   3.731   7.705  0.00  0.00    +0.000 A 
ATOM      5  C   UNL     1      45.524   4.404   8.462  0.00  0.00    +0.000 A 
ATOM      6  C   UNL     1      44.633   3.692   9.265  0.00  0.00    +0.000 A 
ATOM      7  C   UNL     1      44.726   2.299   9.308  0.00  0.00    +0.000 A 
ATOM      8  C   UNL     1      45.692   1.625   8.551  0.00  0.00    +0.000 A 
BRANCH   3   9
ATOM      9  C   UNL     1      47.603   1.621   6.887  0.00  0.00    +0.000 C 
BRANCH   9  10
ATOM     10  N   UNL     1      48.465   2.558   6.174  0.00  0.00    +0.000 NA
ATOM     11  H   UNL     1      49.393   2.152   6.080  0.00  0.00    +0.000 HD
ATOM     12  H   UNL     1      48.573   3.399   6.738  0.00  0.00    +0.000 HD
ENDBRANCH   9  10
ENDBRANCH   3   9
ENDBRANCH   2   6
ENDBRANCH   1   2
BRANCH   1  13
ATOM     13  C   UNL     1      43.276   4.561  12.428  0.00  0.00    +0.000 C 
BRANCH  13  14
ATOM     14  C   UNL     1      44.608   5.155  12.807  0.00  0.00    +0.000 A 
ATOM     15  C   UNL     1      45.676   4.336  13.126  0.00  0.00    +0.000 A 
ATOM     16  C   UNL     1      46.866   4.959  13.426  0.00  0.00    +0.000 A 
ATOM     17  N   UNL     1      47.027   6.292  13.429  0.00  0.00    +0.000 NA
ATOM     18  C   UNL     1      45.920   7.008  13.116  0.00  0.00    +0.000 A 
ATOM     19  N   UNL     1      44.710   6.500  12.802  0.00  0.00    +0.000 NA
BRANCH  18  20
ATOM     20  C   UNL     1      46.078   8.511  13.111  0.00  0.00    +0.000 C 
ATOM     21  N   UNL     1      46.876   9.029  14.109  0.00  0.00    +0.000 N 
ATOM     22  O   UNL     1      45.553   9.256  12.291  0.00  0.00    +0.000 OA
ATOM     23  H   UNL     1      47.305   8.408  14.785  0.00  0.00    +0.000 HD
ATOM     24  H   UNL     1      47.018  10.027  14.158  0.00  0.00    +0.000 HD
ENDBRANCH  18  20
ENDBRANCH  13  14
ENDBRANCH   1  13
TORSDOF 7
ENDMDL
MODEL 3
REMARK VINA RESULT:    -7.102      1.632      2.202
REMARK INTER + INTRA:         -10.470
REMARK INTER:                  -9.738
REMARK INTRA:                  -0.732
REMARK UNBOUND:                -0.669
REMARK  Name = 
REMARK  7 active torsions:
REMARK  status: ('A' for Active; 'I' for Inactive)
REMARK    1  A    between atoms: N_1  and  C_2
REMARK    2  A    between atoms: C_2  and  C_3
REMARK    3  A    between atoms: C_6  and  O_7
REMARK    4  A    between atoms: O_7  and  C_8
REMARK    5  A    between atoms: C_8  and  C_9
REMARK    6  A    between atoms: C_9  and  C_10
REMARK    7  A    between atoms: C_14  and  C_15
REMARK                            x       y       z     vdW  Elec       q    Type
REMARK                         _______ _______ _______ _____ _____    ______ ____
ROOT
ATOM      1  C   UNL     1      44.106   3.136  11.976  0.00  0.00    +0.000 C 
ENDROOT
BRANCH   1   2
ATOM      2  O   UNL     1      43.578   3.386  10.667  0.00  0.00    +0.000 OA
BRANCH   2   6
ATOM      3  C   UNL     1      46.302   2.779   7.538  0.00  0.00    +0.000 A 
ATOM      4  C   UNL     1      45.871   4.079   7.826  0.00  0.00    +0.000 A 
ATOM      5  C   UNL     1      44.964   4.323   8.863  0.00  0.00    +0.000 A 
ATOM      6  C   UNL     1      44.468   3.269   9.630  0.00  0.00    +0.000 A 
ATOM      7  C   UNL     1      44.898   1.969   9.351  0.00  0.00    +0.000 A 
ATOM      8  C   UNL     1      45.806   1.725   8.313  0.00  0.00    +0.000 A 
BRANCH   3   9
ATOM      9  C   UNL     1      47.249   2.528   6.392  0.00  0.00    +0.000 C 
BRANCH   9  10
ATOM     10  N   UNL     1      48.324   1.615   6.766  0.00  0.00    +0.000 NA
ATOM     11  H   UNL     1      49.017   2.122   7.313  0.00  0.00    +0.000 HD
ATOM     12  H   UNL     1      48.796   1.301   5.921  0.00  0.00    +0.000 HD
ENDBRANCH   9  10
ENDBRANCH   3   9
ENDBRANCH   2   6
ENDBRANCH   1   2
BRANCH   1  13
ATOM     13  C   UNL     1      43.873   4.342  12.883  0.00  0.00    +0.000 C 
BRANCH  13  14
ATOM     14  C   UNL     1      44.826   5.476  12.608  0.00  0.00    +0.000 A 
ATOM     15  C   UNL     1      44.437   6.543  11.818  0.00  0.00    +0.000 A 
ATOM     16  C   UNL     1      45.356   7.554  11.648  0.00  0.00    +0.000 A 
ATOM     17  N   UNL     1      46.583   7.544  12.195  0.00  0.00    +0.000 NA
ATOM     18  C   UNL     1      46.873   6.450  12.941  0.00  0.00    +0.000 A 
ATOM     19  N   UNL     1      46.047   5.409  13.176  0.00  0.00    +0.000 NA
BRANCH  18  20
ATOM     20  C   UNL     1      48.247   6.418  13.568  0.00  0.00    +0.000 C 
ATOM     21  N   UNL     1      49.284   6.816  12.751  0.00  0.00    +0.000 N 
ATOM     22  O   UNL     1      48.470   6.073  14.723  0.00  0.00    +0.000 OA
ATOM     23  H   UNL     1      49.095   7.099  11.797  0.00  0.00    +0.000 HD
ATOM     24  H   UNL     1      50.226   6.815  13.114  0.00  0.00    +0.000 HD
ENDBRANCH  18  20
ENDBRANCH  13  14
ENDBRANCH   1  13
TORSDOF 7
ENDMDL
MODEL 4
REMARK VINA RESULT:    -6.958      2.015      2.616
REMARK INTER + INTRA:         -10.271
REMARK INTER:                  -9.652
REMARK INTRA:                  -0.619
REMARK UNBOUND:                -0.669
REMARK  Name = 
REMARK  7 active torsions:
REMARK  status: ('A' for Active; 'I' for Inactive)
REMARK    1  A    between atoms: N_1  and  C_2
REMARK    2  A    between atoms: C_2  and  C_3
REMARK    3  A    between atoms: C_6  and  O_7
REMARK    4  A    between atoms: O_7  and  C_8
REMARK    5  A    between atoms: C_8  and  C_9
REMARK    6  A    between atoms: C_9  and  C_10
REMARK    7  A    between atoms: C_14  and  C_15
REMARK                            x       y       z     vdW  Elec       q    Type
REMARK                         _______ _______ _______ _____ _____    ______ ____
ROOT
ATOM      1  C   UNL     1      44.467   5.750  10.675  0.00  0.00    +0.000 C 
ENDROOT
BRANCH   1   2
ATOM      2  O   UNL     1      43.761   4.803   9.862  0.00  0.00    +0.000 OA
BRANCH   2   6
ATOM      3  C   UNL     1      46.215   2.018   7.912  0.00  0.00    +0.000 A 
ATOM      4  C   UNL     1      45.292   1.568   8.864  0.00  0.00    +0.000 A 
ATOM      5  C   UNL     1      44.456   2.465   9.535  0.00  0.00    +0.000 A 
ATOM      6  C   UNL     1      44.528   3.833   9.269  0.00  0.00    +0.000 A 
ATOM      7  C   UNL     1      45.442   4.288   8.316  0.00  0.00    +0.000 A 
ATOM      8  C   UNL     1      46.281   3.390   7.644  0.00  0.00    +0.000 A 
BRANCH   3   9
ATOM      9  C   UNL     1      47.138   1.043   7.227  0.00  0.00    +0.000 C 
BRANCH   9  10
ATOM     10  N   UNL     1      46.910  -0.327   7.676  0.00  0.00    +0.000 NA
ATOM     11  H   UNL     1      46.422  -0.840   6.945  0.00  0.00    +0.000 HD
ATOM     12  H   UNL     1      46.287  -0.309   8.481  0.00  0.00    +0.000 HD
ENDBRANCH   9  10
ENDBRANCH   3   9
ENDBRANCH   2   6
ENDBRANCH   1   2
BRANCH   1  13
ATOM     13  C   UNL     1      44.375   5.359  12.147  0.00  0.00    +0.000 C 
BRANCH  13  14
ATOM     14  C   UNL     1      45.702   5.429  12.858  0.00  0.00    +0.000 A 
ATOM     15  C   UNL     1      45.935   4.664  13.986  0.00  0.00    +0.000 A 
ATOM     16  C   UNL     1      47.186   4.762  14.553  0.00  0.00    +0.000 A 
ATOM     17  N   UNL     1      48.160   5.552  14.074  0.00  0.00    +0.000 NA
ATOM     18  C   UNL     1      47.830   6.272  12.973  0.00  0.00    +0.000 A 
ATOM     19  N   UNL     1      46.640   6.247  12.337  0.00  0.00    +0.000 NA
BRANCH  18  20
ATOM     20  C   UNL     1      48.912   7.166  12.415  0.00  0.00    +0.000 C 
ATOM     21  N   UNL     1      50.023   7.328  13.214  0.00  0.00    +0.000 N 
ATOM     22  O   UNL     1      48.848   7.728  11.327  0.00  0.00    +0.000 OA
ATOM     23  H   UNL     1      50.069   6.863  14.114  0.00  0.00    +0.000 HD
ATOM     24  H   UNL     1      50.779   7.915  12.895  0.00  0.00    +0.000 HD
ENDBRANCH  18  20
ENDBRANCH  13  14
ENDBRANCH   1  13
TORSDOF 7
ENDMDL
MODEL 5
REMARK VINA RESULT:    -6.342      1.581      2.082
REMARK INTER + INTRA:          -9.421
REMARK INTER:                  -9.089
REMARK INTRA:                  -0.331
REMARK UNBOUND:                -0.669
REMARK  Name = 
REMARK  7 active torsions:
REMARK  status: ('A' for Active; 'I' for Inactive)
REMARK    1  A    between atoms: N_1  and  C_2
REMARK    2  A    between atoms: C_2  and  C_3
REMARK    3  A    between atoms: C_6  and  O_7
REMARK    4  A    between atoms: O_7  and  C_8
REMARK    5  A    between atoms: C_8  and  C_9
REMARK    6  A    between atoms: C_9  and  C_10
REMARK    7  A    between atoms: C_14  and  C_15
REMARK                            x       y       z     vdW  Elec       q    Type
REMARK                         _______ _______ _______ _____ _____    ______ ____
ROOT
ATOM      1  C   UNL     1      44.599   5.947  10.735  0.00  0.00    +0.000 C 
ENDROOT
BRANCH   1   2
ATOM      2  O   UNL     1      43.931   4.832  10.131  0.00  0.00    +0.000 OA
BRANCH   2   6
ATOM      3  C   UNL     1      46.212   2.133   7.873  0.00  0.00    +0.000 A 
ATOM      4  C   UNL     1      46.400   3.508   7.689  0.00  0.00    +0.000 A 
ATOM      5  C   UNL     1      45.660   4.440   8.424  0.00  0.00    +0.000 A 
ATOM      6  C   UNL     1      44.713   4.013   9.355  0.00  0.00    +0.000 A 
ATOM      7  C   UNL     1      44.524   2.643   9.548  0.00  0.00    +0.000 A 
ATOM      8  C   UNL     1      45.265   1.709   8.812  0.00  0.00    +0.000 A 
BRANCH   3   9
ATOM      9  C   UNL     1      46.989   1.142   7.045  0.00  0.00    +0.000 C 
BRANCH   9  10
ATOM     10  N   UNL     1      47.107  -0.150   7.714  0.00  0.00    +0.000 NA
ATOM     11  H   UNL     1      47.392  -0.000   8.679  0.00  0.00    +0.000 HD
ATOM     12  H   UNL     1      47.853  -0.682   7.271  0.00  0.00    +0.000 HD
ENDBRANCH   9  10
ENDBRANCH   3   9
ENDBRANCH   2   6
ENDBRANCH   1   2
BRANCH   1  13
ATOM     13  C   UNL     1      44.401   5.929  12.248  0.00  0.00    +0.000 C 
BRANCH  13  14
ATOM     14  C   UNL     1      45.400   5.054  12.961  0.00  0.00    +0.000 A 
ATOM     15  C   UNL     1      45.496   3.708  12.658  0.00  0.00    +0.000 A 
ATOM     16  C   UNL     1      46.459   2.990  13.331  0.00  0.00    +0.000 A 
ATOM     17  N   UNL     1      47.281   3.525  14.249  0.00  0.00    +0.000 NA
ATOM     18  C   UNL     1      47.100   4.847  14.485  0.00  0.00    +0.000 A 
ATOM     19  N   UNL     1      46.193   5.644  13.880  0.00  0.00    +0.000 NA
BRANCH  18  20
ATOM     20  C   UNL     1      48.015   5.472  15.512  0.00  0.00    +0.000 C 
ATOM     21  N   UNL     1      48.244   4.717  16.642  0.00  0.00    +0.000 N 
ATOM     22  O   UNL     1      48.542   6.572  15.387  0.00  0.00    +0.000 OA
ATOM     23  H   UNL     1      47.803   3.809  16.740  0.00  0.00    +0.000 HD
ATOM     24  H   UNL     1      48.846   5.082  17.365  0.00  0.00    +0.000 HD
ENDBRANCH  18  20
ENDBRANCH  13  14
ENDBRANCH   1  13
TORSDOF 7
ENDMDL
MODEL 6
REMARK VINA RESULT:    -6.134      3.165      4.741
REMARK INTER + INTRA:          -9.134
REMARK INTER:                  -8.497
REMARK INTRA:                  -0.637
REMARK UNBOUND:                -0.669
REMARK  Name = 
REMARK  7 active torsions:
REMARK  status: ('A' for Active; 'I' for Inactive)
REMARK    1  A    between atoms: N_1  and  C_2
REMARK    2  A    between atoms: C_2  and  C_3
REMARK    3  A    between atoms: C_6  and  O_7
REMARK    4  A    between atoms: O_7  and  C_8
REMARK    5  A    between atoms: C_8  and  C_9
REMARK    6  A    between atoms: C_9  and  C_10
REMARK    7  A    between atoms: C_14  and  C_15
REMARK                            x       y       z     vdW  Elec       q    Type
REMARK                         _______ _______ _______ _____ _____    ______ ____
ROOT
ATOM      1  C   UNL     1      48.622   6.772  13.090  0.00  0.00    +0.000 C 
ENDROOT
BRANCH   1   2
ATOM      2  O   UNL     1      47.220   7.057  13.016  0.00  0.00    +0.000 OA
BRANCH   2   6
ATOM      3  C   UNL     1      44.790   4.094  11.314  0.00  0.00    +0.000 A 
ATOM      4  C   UNL     1      45.192   3.964  12.648  0.00  0.00    +0.000 A 
ATOM      5  C   UNL     1      46.001   4.932  13.252  0.00  0.00    +0.000 A 
ATOM      6  C   UNL     1      46.427   6.047  12.531  0.00  0.00    +0.000 A 
ATOM      7  C   UNL     1      46.025   6.186  11.200  0.00  0.00    +0.000 A 
ATOM      8  C   UNL     1      45.215   5.217  10.595  0.00  0.00    +0.000 A 
BRANCH   3   9
ATOM      9  C   UNL     1      43.951   3.022  10.665  0.00  0.00    +0.000 C 
BRANCH   9  10
ATOM     10  N   UNL     1      43.059   2.377  11.623  0.00  0.00    +0.000 NA
ATOM     11  H   UNL     1      42.096   2.609  11.390  0.00  0.00    +0.000 HD
ATOM     12  H   UNL     1      43.235   2.766  12.547  0.00  0.00    +0.000 HD
ENDBRANCH   9  10
ENDBRANCH   3   9
ENDBRANCH   2   6
ENDBRANCH   1   2
BRANCH   1  13
ATOM     13  C   UNL     1      49.233   7.421  14.329  0.00  0.00    +0.000 C 
BRANCH  13  14
ATOM     14  C   UNL     1      48.875   6.702  15.605  0.00  0.00    +0.000 A 
ATOM     15  C   UNL     1      48.843   7.384  16.808  0.00  0.00    +0.000 A 
ATOM     16  C   UNL     1      48.473   6.660  17.919  0.00  0.00    +0.000 A 
ATOM     17  N   UNL     1      48.157   5.355  17.886  0.00  0.00    +0.000 NA
ATOM     18  C   UNL     1      48.232   4.774  16.664  0.00  0.00    +0.000 A 
ATOM     19  N   UNL     1      48.576   5.390  15.513  0.00  0.00    +0.000 NA
BRANCH  18  20
ATOM     20  C   UNL     1      47.879   3.307  16.601  0.00  0.00    +0.000 C 
ATOM     21  N   UNL     1      47.039   2.854  17.596  0.00  0.00    +0.000 N 
ATOM     22  O   UNL     1      48.287   2.536  15.740  0.00  0.00    +0.000 OA
ATOM     23  H   UNL     1      46.706   3.495  18.307  0.00  0.00    +0.000 HD
ATOM     24  H   UNL     1      46.769   1.881  17.608  0.00  0.00    +0.000 HD
ENDBRANCH  18  20
ENDBRANCH  13  14
ENDBRANCH   1  13
TORSDOF 7
ENDMDL
MODEL 7
REMARK VINA RESULT:    -6.123      2.538      6.938
REMARK INTER + INTRA:          -9.118
REMARK INTER:                  -8.571
REMARK INTRA:                  -0.547
REMARK UNBOUND:                -0.669
REMARK  Name = 
REMARK  7 active torsions:
REMARK  status: ('A' for Active; 'I' for Inactive)
REMARK    1  A    between atoms: N_1  and  C_2
REMARK    2  A    between atoms: C_2  and  C_3
REMARK    3  A    between atoms: C_6  and  O_7
REMARK    4  A    between atoms: O_7  and  C_8
REMARK    5  A    between atoms: C_8  and  C_9
REMARK    6  A    between atoms: C_9  and  C_10
REMARK    7  A    between atoms: C_14  and  C_15
REMARK                            x       y       z     vdW  Elec       q    Type
REMARK                         _______ _______ _______ _____ _____    ______ ____
ROOT
ATOM      1  C   UNL     1      47.281   6.593  11.818  0.00  0.00    +0.000 C 
ENDROOT
BRANCH   1   2
ATOM      2  O   UNL     1      47.782   7.110  13.058  0.00  0.00    +0.000 OA
BRANCH   2   6
ATOM      3  C   UNL     1      47.866   4.617  16.428  0.00  0.00    +0.000 A 
ATOM      4  C   UNL     1      47.094   4.244  15.321  0.00  0.00    +0.000 A 
ATOM      5  C   UNL     1      47.042   5.047  14.178  0.00  0.00    +0.000 A 
ATOM      6  C   UNL     1      47.757   6.244  14.121  0.00  0.00    +0.000 A 
ATOM      7  C   UNL     1      48.533   6.620  15.220  0.00  0.00    +0.000 A 
ATOM      8  C   UNL     1      48.586   5.815  16.366  0.00  0.00    +0.000 A 
BRANCH   3   9
ATOM      9  C   UNL     1      47.880   3.760  17.669  0.00  0.00    +0.000 C 
BRANCH   9  10
ATOM     10  N   UNL     1      46.751   2.837  17.704  0.00  0.00    +0.000 NA
ATOM     11  H   UNL     1      46.189   3.028  18.531  0.00  0.00    +0.000 HD
ATOM     12  H   UNL     1      47.106   1.888  17.809  0.00  0.00    +0.000 HD
ENDBRANCH   9  10
ENDBRANCH   3   9
ENDBRANCH   2   6
ENDBRANCH   1   2
BRANCH   1  13
ATOM     13  C   UNL     1      45.832   7.025  11.608  0.00  0.00    +0.000 C 
BRANCH  13  14
ATOM     14  C   UNL     1      44.889   5.860  11.451  0.00  0.00    +0.000 A 
ATOM     15  C   UNL     1      43.825   5.697  12.320  0.00  0.00    +0.000 A 
ATOM     16  C   UNL     1      42.992   4.627  12.084  0.00  0.00    +0.000 A 
ATOM     17  N   UNL     1      43.168   3.755  11.078  0.00  0.00    +0.000 NA
ATOM     18  C   UNL     1      44.245   3.992  10.290  0.00  0.00    +0.000 A 
ATOM     19  N   UNL     1      45.119   5.011  10.428  0.00  0.00    +0.000 NA
BRANCH  18  20
ATOM     20  C   UNL     1      44.462   3.025   9.150  0.00  0.00    +0.000 C 
ATOM     21  N   UNL     1      44.479   3.584   7.890  0.00  0.00    +0.000 N 
ATOM     22  O   UNL     1      44.620   1.817   9.291  0.00  0.00    +0.000 OA
ATOM     23  H   UNL     1      44.346   4.583   7.779  0.00  0.00    +0.000 HD
ATOM     24  H   UNL     1      44.619   2.988   7.088  0.00  0.00    +0.000 HD
ENDBRANCH  18  20
ENDBRANCH  13  14
ENDBRANCH   1  13
TORSDOF 7
ENDMDL
MODEL 8
REMARK VINA RESULT:    -5.655      1.578      2.197
REMARK INTER + INTRA:          -8.472
REMARK INTER:                  -8.589
REMARK INTRA:                   0.117
REMARK UNBOUND:                -0.669
REMARK  Name = 
REMARK  7 active torsions:
REMARK  status: ('A' for Active; 'I' for Inactive)
REMARK    1  A    between atoms: N_1  and  C_2
REMARK    2  A    between atoms: C_2  and  C_3
REMARK    3  A    between atoms: C_6  and  O_7
REMARK    4  A    between atoms: O_7  and  C_8
REMARK    5  A    between atoms: C_8  and  C_9
REMARK    6  A    between atoms: C_9  and  C_10
REMARK    7  A    between atoms: C_14  and  C_15
REMARK                            x       y       z     vdW  Elec       q    Type
REMARK                         _______ _______ _______ _____ _____    ______ ____
ROOT
ATOM      1  C   UNL     1      44.531   4.404  12.868  0.00  0.00    +0.000 C 
ENDROOT
BRANCH   1   2
ATOM      2  O   UNL     1      43.733   4.126  11.710  0.00  0.00    +0.000 OA
BRANCH   2   6
ATOM      3  C   UNL     1      45.813   3.134   8.207  0.00  0.00    +0.000 A 
ATOM      4  C   UNL     1      45.665   4.482   8.556  0.00  0.00    +0.000 A 
ATOM      5  C   UNL     1      44.980   4.853   9.716  0.00  0.00    +0.000 A 
ATOM      6  C   UNL     1      44.424   3.882  10.550  0.00  0.00    +0.000 A 
ATOM      7  C   UNL     1      44.573   2.535  10.212  0.00  0.00    +0.000 A 
ATOM      8  C   UNL     1      45.259   2.163   9.049  0.00  0.00    +0.000 A 
BRANCH   3   9
ATOM      9  C   UNL     1      46.520   2.751   6.932  0.00  0.00    +0.000 C 
BRANCH   9  10
ATOM     10  N   UNL     1      47.252   1.497   7.073  0.00  0.00    +0.000 NA
ATOM     11  H   UNL     1      48.242   1.700   7.193  0.00  0.00    +0.000 HD
ATOM     12  H   UNL     1      47.169   0.969   6.206  0.00  0.00    +0.000 HD
ENDBRANCH   9  10
ENDBRANCH   3   9
ENDBRANCH   2   6
ENDBRANCH   1   2
BRANCH   1  13
ATOM     13  C   UNL     1      46.002   4.528  12.482  0.00  0.00    +0.000 C 
BRANCH  13  14
ATOM     14  C   UNL     1      46.873   4.985  13.624  0.00  0.00    +0.000 A 
ATOM     15  C   UNL     1      47.778   6.016  13.447  0.00  0.00    +0.000 A 
ATOM     16  C   UNL     1      48.509   6.394  14.551  0.00  0.00    +0.000 A 
ATOM     17  N   UNL     1      48.388   5.816  15.757  0.00  0.00    +0.000 NA
ATOM     18  C   UNL     1      47.484   4.808  15.826  0.00  0.00    +0.000 A 
ATOM     19  N   UNL     1      46.715   4.363  14.811  0.00  0.00    +0.000 NA
BRANCH  18  20
ATOM     20  C   UNL     1      47.329   4.144  17.174  0.00  0.00    +0.000 C 
ATOM     21  N   UNL     1      47.223   2.770  17.152  0.00  0.00    +0.000 N 
ATOM     22  O   UNL     1      47.298   4.748  18.240  0.00  0.00    +0.000 OA
ATOM     23  H   UNL     1      47.247   2.276  16.267  0.00  0.00    +0.000 HD
ATOM     24  H   UNL     1      47.115   2.270  18.022  0.00  0.00    +0.000 HD
ENDBRANCH  18  20
ENDBRANCH  13  14
ENDBRANCH   1  13
TORSDOF 7
ENDMDL
MODEL 9
REMARK VINA RESULT:    -5.622      3.744      7.845
REMARK INTER + INTRA:          -8.428
REMARK INTER:                  -8.004
REMARK INTRA:                  -0.424
REMARK UNBOUND:                -0.669
REMARK  Name = 
REMARK  7 active torsions:
REMARK  status: ('A' for Active; 'I' for Inactive)
REMARK    1  A    between atoms: N_1  and  C_2
REMARK    2  A    between atoms: C_2  and  C_3
REMARK    3  A    between atoms: C_6  and  O_7
REMARK    4  A    between atoms: O_7  and  C_8
REMARK    5  A    between atoms: C_8  and  C_9
REMARK    6  A    between atoms: C_9  and  C_10
REMARK    7  A    between atoms: C_14  and  C_15
REMARK                            x       y       z     vdW  Elec       q    Type
REMARK                         _______ _______ _______ _____ _____    ______ ____
ROOT
ATOM      1  C   UNL     1      47.478   4.745  15.784  0.00  0.00    +0.000 C 
ENDROOT
BRANCH   1   2
ATOM      2  O   UNL     1      47.632   3.815  16.864  0.00  0.00    +0.000 OA
BRANCH   2   6
ATOM      3  C   UNL     1      51.604   2.820  17.763  0.00  0.00    +0.000 A 
ATOM      4  C   UNL     1      50.766   1.848  17.204  0.00  0.00    +0.000 A 
ATOM      5  C   UNL     1      49.436   2.141  16.889  0.00  0.00    +0.000 A 
ATOM      6  C   UNL     1      48.916   3.413  17.131  0.00  0.00    +0.000 A 
ATOM      7  C   UNL     1      49.749   4.389  17.683  0.00  0.00    +0.000 A 
ATOM      8  C   UNL     1      51.081   4.096  17.999  0.00  0.00    +0.000 A 
BRANCH   3   9
ATOM      9  C   UNL     1      53.025   2.476  18.135  0.00  0.00    +0.000 C 
BRANCH   9  10
ATOM     10  N   UNL     1      53.162   1.075  18.515  0.00  0.00    +0.000 NA
ATOM     11  H   UNL     1      52.285   0.750  18.916  0.00  0.00    +0.000 HD
ATOM     12  H   UNL     1      53.861   1.002  19.253  0.00  0.00    +0.000 HD
ENDBRANCH   9  10
ENDBRANCH   3   9
ENDBRANCH   2   6
ENDBRANCH   1   2
BRANCH   1  13
ATOM     13  C   UNL     1      47.046   4.018  14.514  0.00  0.00    +0.000 C 
BRANCH  13  14
ATOM     14  C   UNL     1      46.353   4.921  13.527  0.00  0.00    +0.000 A 
ATOM     15  C   UNL     1      46.992   6.045  13.035  0.00  0.00    +0.000 A 
ATOM     16  C   UNL     1      46.301   6.796  12.111  0.00  0.00    +0.000 A 
ATOM     17  N   UNL     1      45.064   6.495  11.684  0.00  0.00    +0.000 NA
ATOM     18  C   UNL     1      44.518   5.383  12.234  0.00  0.00    +0.000 A 
ATOM     19  N   UNL     1      45.108   4.576  13.140  0.00  0.00    +0.000 NA
BRANCH  18  20
ATOM     20  C   UNL     1      43.127   5.024  11.767  0.00  0.00    +0.000 C 
ATOM     21  N   UNL     1      42.215   6.057  11.763  0.00  0.00    +0.000 N 
ATOM     22  O   UNL     1      42.790   3.903  11.403  0.00  0.00    +0.000 OA
ATOM     23  H   UNL     1      42.498   6.982  12.067  0.00  0.00    +0.000 HD
ATOM     24  H   UNL     1      41.268   5.878  11.462  0.00  0.00    +0.000 HD
ENDBRANCH  18  20
ENDBRANCH  13  14
ENDBRANCH   1  13
TORSDOF 7
ENDMDL
