MODEL 1
REMARK VINA RESULT:    -8.168      0.000      0.000
REMARK INTER + INTRA:         -10.927
REMARK INTER:                 -10.078
REMARK INTRA:                  -0.849
REMARK UNBOUND:                -0.849
REMARK  Name = 
REMARK  5 active torsions:
REMARK  status: ('A' for Active; 'I' for Inactive)
REMARK    1  A    between atoms: C_1  and  C_2
REMARK    2  A    between atoms: C_2  and  O_3
REMARK    3  A    between atoms: C_2  and  C_13
REMARK    4  A    between atoms: O_3  and  C_4
REMARK    5  A    between atoms: C_7  and  C_8
REMARK                            x       y       z     vdW  Elec       q    Type
REMARK                         _______ _______ _______ _____ _____    ______ ____
ROOT
ATOM      1  C   UNL     1      44.538   3.835   9.273  0.00  0.00    +0.000 A 
ATOM      2  C   UNL     1      45.472   4.432   8.421  0.00  0.00    +0.000 A 
ATOM      3  C   UNL     1      46.370   3.652   7.684  0.00  0.00    +0.000 A 
ATOM      4  C   UNL     1      46.376   2.260   7.831  0.00  0.00    +0.000 A 
ATOM      5  C   UNL     1      45.475   1.664   8.719  0.00  0.00    +0.000 A 
ATOM      6  C   UNL     1      44.559   2.448   9.432  0.00  0.00    +0.000 A 
ENDROOT
BRANCH   4   7
ATOM      7  C   UNL     1      47.332   1.473   7.007  0.00  0.00    +0.000 C 
ATOM      8  N   UNL     1      48.426   2.127   6.511  0.00  0.00    +0.000 N 
ATOM      9  O   UNL     1      47.138   0.294   6.755  0.00  0.00    +0.000 OA
ATOM     10  H   UNL     1      48.548   3.126   6.550  0.00  0.00    +0.000 HD
ATOM     11  H   UNL     1      49.016   1.601   5.883  0.00  0.00    +0.000 HD
ENDBRANCH   4   7
BRANCH   1  12
ATOM     12  O   UNL     1      43.683   4.695   9.903  0.00  0.00    +0.000 OA
BRANCH  12  14
ATOM     13  C   UNL     1      42.378   5.506  11.809  0.00  0.00    +0.000 C 
ATOM     14  C   UNL     1      43.504   4.587  11.329  0.00  0.00    +0.000 C 
BRANCH  14  15
ATOM     15  C   UNL     1      44.793   5.004  12.030  0.00  0.00    +0.000 A 
ATOM     16  C   UNL     1      45.359   6.263  11.764  0.00  0.00    +0.000 A 
ATOM     17  C   UNL     1      46.562   6.642  12.360  0.00  0.00    +0.000 A 
ATOM     18  C   UNL     1      47.215   5.770  13.229  0.00  0.00    +0.000 A 
ATOM     19  C   UNL     1      46.672   4.514  13.491  0.00  0.00    +0.000 A 
ATOM     20  C   UNL     1      45.473   4.129  12.888  0.00  0.00    +0.000 A 
ENDBRANCH  14  15
ENDBRANCH  12  14
ENDBRANCH   1  12
TORSDOF 4
ENDMDL
MODEL 2
REMARK VINA RESULT:    -7.681      0.811      1.893
REMARK INTER + INTRA:         -10.326
REMARK INTER:                  -9.545
REMARK INTRA:                  -0.781
REMARK UNBOUND:                -0.849
REMARK  Name = 
REMARK  5 active torsions:
REMARK  status: ('A' for Active; 'I' for Inactive)
REMARK    1  A    between atoms: C_1  and  C_2
REMARK    2  A    between atoms: C_2  and  O_3
REMARK    3  A    between atoms: C_2  and  C_13
REMARK    4  A    between atoms: O_3  and  C_4
REMARK    5  A    between atoms: C_7  and  C_8
REMARK                            x       y       z     vdW  Elec       q    Type
REMARK                         _______ _______ _______ _____ _____    ______ ____
ROOT
ATOM      1  C   UNL     1      44.669   3.837   9.478  0.00  0.00    +0.000 A 
ATOM      2  C   UNL     1      44.753   2.442   9.504  0.00  0.00    +0.000 A 
ATOM      3  C   UNL     1      45.647   1.762   8.669  0.00  0.00    +0.000 A 
ATOM      4  C   UNL     1      46.434   2.474   7.757  0.00  0.00    +0.000 A 
ATOM      5  C   UNL     1      46.317   3.866   7.694  0.00  0.00    +0.000 A 
ATOM      6  C   UNL     1      45.442   4.543   8.553  0.00  0.00    +0.000 A 
ENDROOT
BRANCH   4   7
ATOM      7  C   UNL     1      47.387   1.708   6.909  0.00  0.00    +0.000 C 
ATOM      8  N   UNL     1      48.475   2.378   6.418  0.00  0.00    +0.000 N 
ATOM      9  O   UNL     1      47.198   0.533   6.635  0.00  0.00    +0.000 OA
ATOM     10  H   UNL     1      48.591   3.377   6.476  0.00  0.00    +0.000 HD
ATOM     11  H   UNL     1      49.062   1.867   5.775  0.00  0.00    +0.000 HD
ENDBRANCH   4   7
BRANCH   1  12
ATOM     12  O   UNL     1      43.796   4.391  10.371  0.00  0.00    +0.000 OA
BRANCH  12  14
ATOM     13  C   UNL     1      42.982   4.735  12.654  0.00  0.00    +0.000 C 
ATOM     14  C   UNL     1      44.199   4.542  11.746  0.00  0.00    +0.000 C 
BRANCH  14  15
ATOM     15  C   UNL     1      45.090   5.773  11.875  0.00  0.00    +0.000 A 
ATOM     16  C   UNL     1      46.413   5.634  12.331  0.00  0.00    +0.000 A 
ATOM     17  C   UNL     1      47.227   6.754  12.502  0.00  0.00    +0.000 A 
ATOM     18  C   UNL     1      46.733   8.027  12.219  0.00  0.00    +0.000 A 
ATOM     19  C   UNL     1      45.419   8.179  11.781  0.00  0.00    +0.000 A 
ATOM     20  C   UNL     1      44.600   7.060  11.618  0.00  0.00    +0.000 A 
ENDBRANCH  14  15
ENDBRANCH  12  14
ENDBRANCH   1  12
TORSDOF 4
ENDMDL
MODEL 3
REMARK VINA RESULT:    -6.435      2.984      5.753
REMARK INTER + INTRA:          -8.789
REMARK INTER:                  -8.929
REMARK INTRA:                   0.140
REMARK UNBOUND:                -0.849
REMARK  Name = 
REMARK  5 active torsions:
REMARK  status: ('A' for Active; 'I' for Inactive)
REMARK    1  A    between atoms: C_1  and  C_2
REMARK    2  A    between atoms: C_2  and  O_3
REMARK    3  A    between atoms: C_2  and  C_13
REMARK    4  A    between atoms: O_3  and  C_4
REMARK    5  A    between atoms: C_7  and  C_8
REMARK                            x       y       z     vdW  Elec       q    Type
REMARK                         _______ _______ _______ _____ _____    ______ ____
ROOT
ATOM      1  C   UNL     1      45.051   5.322  11.372  0.00  0.00    +0.000 A 
ATOM      2  C   UNL     1      46.170   6.117  11.107  0.00  0.00    +0.000 A 
ATOM      3  C   UNL     1      47.137   6.345  12.092  0.00  0.00    +0.000 A 
ATOM      4  C   UNL     1      46.968   5.816  13.377  0.00  0.00    +0.000 A 
ATOM      5  C   UNL     1      45.825   5.061  13.659  0.00  0.00    +0.000 A 
ATOM      6  C   UNL     1      44.875   4.812  12.660  0.00  0.00    +0.000 A 
ENDROOT
BRANCH   4   7
ATOM      7  C   UNL     1      48.037   6.064  14.382  0.00  0.00    +0.000 C 
ATOM      8  N   UNL     1      47.799   5.663  15.668  0.00  0.00    +0.000 N 
ATOM      9  O   UNL     1      49.078   6.627  14.082  0.00  0.00    +0.000 OA
ATOM     10  H   UNL     1      46.903   5.347  16.001  0.00  0.00    +0.000 HD
ATOM     11  H   UNL     1      48.497   5.918  16.352  0.00  0.00    +0.000 HD
ENDBRANCH   4   7
BRANCH   1  12
ATOM     12  O   UNL     1      44.200   5.134  10.320  0.00  0.00    +0.000 OA
BRANCH  12  14
ATOM     13  C   UNL     1      43.788   2.852  11.106  0.00  0.00    +0.000 C 
ATOM     14  C   UNL     1      43.889   3.791   9.901  0.00  0.00    +0.000 C 
BRANCH  14  15
ATOM     15  C   UNL     1      44.998   3.279   8.988  0.00  0.00    +0.000 A 
ATOM     16  C   UNL     1      45.651   4.166   8.114  0.00  0.00    +0.000 A 
ATOM     17  C   UNL     1      46.635   3.706   7.238  0.00  0.00    +0.000 A 
ATOM     18  C   UNL     1      46.980   2.356   7.224  0.00  0.00    +0.000 A 
ATOM     19  C   UNL     1      46.331   1.464   8.075  0.00  0.00    +0.000 A 
ATOM     20  C   UNL     1      45.340   1.920   8.945  0.00  0.00    +0.000 A 
ENDBRANCH  14  15
ENDBRANCH  12  14
ENDBRANCH   1  12
TORSDOF 4
ENDMDL
MODEL 4
REMARK VINA RESULT:    -6.407      3.337      6.458
REMARK INTER + INTRA:          -8.754
REMARK INTER:                  -8.064
REMARK INTRA:                  -0.690
REMARK UNBOUND:                -0.849
REMARK  Name = 
REMARK  5 active torsions:
REMARK  status: ('A' for Active; 'I' for Inactive)
REMARK    1  A    between atoms: C_1  and  C_2
REMARK    2  A    between atoms: C_2  and  O_3
REMARK    3  A    between atoms: C_2  and  C_13
REMARK    4  A    between atoms: O_3  and  C_4
REMARK    5  A    between atoms: C_7  and  C_8
REMARK                            x       y       z     vdW  Elec       q    Type
REMARK                         _______ _______ _______ _____ _____    ______ ____
ROOT
ATOM      1  C   UNL     1      45.420   5.491  11.788  0.00  0.00    +0.000 A 
ATOM      2  C   UNL     1      44.431   6.297  11.216  0.00  0.00    +0.000 A 
ATOM      3  C   UNL     1      44.467   7.688  11.363  0.00  0.00    +0.000 A 
ATOM      4  C   UNL     1      45.472   8.286  12.134  0.00  0.00    +0.000 A 
ATOM      5  C   UNL     1      46.433   7.478  12.747  0.00  0.00    +0.000 A 
ATOM      6  C   UNL     1      46.409   6.089  12.572  0.00  0.00    +0.000 A 
ENDROOT
BRANCH   4   7
ATOM      7  C   UNL     1      45.482   9.770  12.239  0.00  0.00    +0.000 C 
ATOM      8  N   UNL     1      44.283  10.399  12.432  0.00  0.00    +0.000 N 
ATOM      9  O   UNL     1      46.516  10.411  12.130  0.00  0.00    +0.000 OA
ATOM     10  H   UNL     1      43.390   9.937  12.364  0.00  0.00    +0.000 HD
ATOM     11  H   UNL     1      44.298  11.408  12.413  0.00  0.00    +0.000 HD
ENDBRANCH   4   7
BRANCH   1  12
ATOM     12  O   UNL     1      45.305   4.153  11.537  0.00  0.00    +0.000 OA
BRANCH  12  14
ATOM     13  C   UNL     1      43.565   2.513  11.011  0.00  0.00    +0.000 C 
ATOM     14  C   UNL     1      44.390   3.705  10.519  0.00  0.00    +0.000 C 
BRANCH  14  15
ATOM     15  C   UNL     1      45.181   3.264   9.291  0.00  0.00    +0.000 A 
ATOM     16  C   UNL     1      45.473   1.902   9.099  0.00  0.00    +0.000 A 
ATOM     17  C   UNL     1      46.235   1.486   8.007  0.00  0.00    +0.000 A 
ATOM     18  C   UNL     1      46.716   2.422   7.094  0.00  0.00    +0.000 A 
ATOM     19  C   UNL     1      46.446   3.776   7.281  0.00  0.00    +0.000 A 
ATOM     20  C   UNL     1      45.691   4.196   8.377  0.00  0.00    +0.000 A 
ENDBRANCH  14  15
ENDBRANCH  12  14
ENDBRANCH   1  12
TORSDOF 4
ENDMDL
MODEL 5
REMARK VINA RESULT:    -6.197      3.444      6.471
REMARK INTER + INTRA:          -8.494
REMARK INTER:                  -7.808
REMARK INTRA:                  -0.687
REMARK UNBOUND:                -0.849
REMARK  Name = 
REMARK  5 active torsions:
REMARK  status: ('A' for Active; 'I' for Inactive)
REMARK    1  A    between atoms: C_1  and  C_2
REMARK    2  A    between atoms: C_2  and  O_3
REMARK    3  A    between atoms: C_2  and  C_13
REMARK    4  A    between atoms: O_3  and  C_4
REMARK    5  A    between atoms: C_7  and  C_8
REMARK                            x       y       z     vdW  Elec       q    Type
REMARK                         _______ _______ _______ _____ _____    ______ ____
ROOT
ATOM      1  C   UNL     1      45.781   5.214  12.541  0.00  0.00    +0.000 A 
ATOM      2  C   UNL     1      47.093   5.207  13.022  0.00  0.00    +0.000 A 
ATOM      3  C   UNL     1      47.697   6.385  13.476  0.00  0.00    +0.000 A 
ATOM      4  C   UNL     1      47.006   7.600  13.404  0.00  0.00    +0.000 A 
ATOM      5  C   UNL     1      45.710   7.618  12.878  0.00  0.00    +0.000 A 
ATOM      6  C   UNL     1      45.101   6.431  12.453  0.00  0.00    +0.000 A 
ENDROOT
BRANCH   4   7
ATOM      7  C   UNL     1      47.680   8.820  13.923  0.00  0.00    +0.000 C 
ATOM      8  N   UNL     1      47.383   9.212  15.200  0.00  0.00    +0.000 N 
ATOM      9  O   UNL     1      48.451   9.468  13.232  0.00  0.00    +0.000 OA
ATOM     10  H   UNL     1      46.638   8.814  15.750  0.00  0.00    +0.000 HD
ATOM     11  H   UNL     1      47.781  10.089  15.503  0.00  0.00    +0.000 HD
ENDBRANCH   4   7
BRANCH   1  12
ATOM     12  O   UNL     1      45.283   3.997  12.170  0.00  0.00    +0.000 OA
BRANCH  12  14
ATOM     13  C   UNL     1      43.231   2.872  11.450  0.00  0.00    +0.000 C 
ATOM     14  C   UNL     1      44.288   3.933  11.130  0.00  0.00    +0.000 C 
BRANCH  14  15
ATOM     15  C   UNL     1      44.960   3.555   9.814  0.00  0.00    +0.000 A 
ATOM     16  C   UNL     1      45.157   2.201   9.492  0.00  0.00    +0.000 A 
ATOM     17  C   UNL     1      45.813   1.839   8.315  0.00  0.00    +0.000 A 
ATOM     18  C   UNL     1      46.279   2.822   7.444  0.00  0.00    +0.000 A 
ATOM     19  C   UNL     1      46.102   4.168   7.758  0.00  0.00    +0.000 A 
ATOM     20  C   UNL     1      45.455   4.533   8.940  0.00  0.00    +0.000 A 
ENDBRANCH  14  15
ENDBRANCH  12  14
ENDBRANCH   1  12
TORSDOF 4
ENDMDL
MODEL 6
REMARK VINA RESULT:    -6.019      3.252      6.243
REMARK INTER + INTRA:          -8.275
REMARK INTER:                  -7.617
REMARK INTRA:                  -0.658
REMARK UNBOUND:                -0.849
REMARK  Name = 
REMARK  5 active torsions:
REMARK  status: ('A' for Active; 'I' for Inactive)
REMARK    1  A    between atoms: C_1  and  C_2
REMARK    2  A    between atoms: C_2  and  O_3
REMARK    3  A    between atoms: C_2  and  C_13
REMARK    4  A    between atoms: O_3  and  C_4
REMARK    5  A    between atoms: C_7  and  C_8
REMARK                            x       y       z     vdW  Elec       q    Type
REMARK                         _______ _______ _______ _____ _____    ______ ____
ROOT
ATOM      1  C   UNL     1      46.287   5.722  12.475  0.00  0.00    +0.000 A 
ATOM      2  C   UNL     1      46.874   5.414  13.706  0.00  0.00    +0.000 A 
ATOM      3  C   UNL     1      48.020   6.089  14.142  0.00  0.00    +0.000 A 
ATOM      4  C   UNL     1      48.622   7.051  13.323  0.00  0.00    +0.000 A 
ATOM      5  C   UNL     1      48.064   7.327  12.071  0.00  0.00    +0.000 A 
ATOM      6  C   UNL     1      46.901   6.669  11.652  0.00  0.00    +0.000 A 
ENDROOT
BRANCH   4   7
ATOM      7  C   UNL     1      49.822   7.761  13.843  0.00  0.00    +0.000 C 
ATOM      8  N   UNL     1      50.947   7.753  13.064  0.00  0.00    +0.000 N 
ATOM      9  O   UNL     1      49.818   8.308  14.934  0.00  0.00    +0.000 OA
ATOM     10  H   UNL     1      51.055   7.184  12.240  0.00  0.00    +0.000 HD
ATOM     11  H   UNL     1      51.775   8.163  13.471  0.00  0.00    +0.000 HD
ENDBRANCH   4   7
BRANCH   1  12
ATOM     12  O   UNL     1      45.147   5.030  12.178  0.00  0.00    +0.000 OA
BRANCH  12  14
ATOM     13  C   UNL     1      42.934   5.212  11.148  0.00  0.00    +0.000 C 
ATOM     14  C   UNL     1      44.448   5.322  10.953  0.00  0.00    +0.000 C 
BRANCH  14  15
ATOM     15  C   UNL     1      44.866   4.317   9.883  0.00  0.00    +0.000 A 
ATOM     16  C   UNL     1      44.550   2.957  10.040  0.00  0.00    +0.000 A 
ATOM     17  C   UNL     1      44.965   2.017   9.096  0.00  0.00    +0.000 A 
ATOM     18  C   UNL     1      45.701   2.423   7.984  0.00  0.00    +0.000 A 
ATOM     19  C   UNL     1      46.033   3.767   7.825  0.00  0.00    +0.000 A 
ATOM     20  C   UNL     1      45.626   4.707   8.773  0.00  0.00    +0.000 A 
ENDBRANCH  14  15
ENDBRANCH  12  14
ENDBRANCH   1  12
TORSDOF 4
ENDMDL
MODEL 7
REMARK VINA RESULT:    -5.654      3.489      5.776
REMARK INTER + INTRA:          -7.825
REMARK INTER:                  -7.255
REMARK INTRA:                  -0.570
REMARK UNBOUND:                -0.849
REMARK  Name = 
REMARK  5 active torsions:
REMARK  status: ('A' for Active; 'I' for Inactive)
REMARK    1  A    between atoms: C_1  and  C_2
REMARK    2  A    between atoms: C_2  and  O_3
REMARK    3  A    between atoms: C_2  and  C_13
REMARK    4  A    between atoms: O_3  and  C_4
REMARK    5  A    between atoms: C_7  and  C_8
REMARK                            x       y       z     vdW  Elec       q    Type
REMARK                         _______ _______ _______ _____ _____    ______ ____
ROOT
ATOM      1  C   UNL     1      47.182   5.278  13.201  0.00  0.00    +0.000 A 
ATOM      2  C   UNL     1      46.573   4.025  13.324  0.00  0.00    +0.000 A 
ATOM      3  C   UNL     1      45.498   3.668  12.502  0.00  0.00    +0.000 A 
ATOM      4  C   UNL     1      44.985   4.586  11.578  0.00  0.00    +0.000 A 
ATOM      5  C   UNL     1      45.562   5.857  11.487  0.00  0.00    +0.000 A 
ATOM      6  C   UNL     1      46.656   6.198  12.292  0.00  0.00    +0.000 A 
ENDROOT
BRANCH   4   7
ATOM      7  C   UNL     1      43.859   4.150  10.709  0.00  0.00    +0.000 C 
ATOM      8  N   UNL     1      43.810   4.654   9.438  0.00  0.00    +0.000 N 
ATOM      9  O   UNL     1      42.993   3.393  11.118  0.00  0.00    +0.000 OA
ATOM     10  H   UNL     1      44.399   5.401   9.108  0.00  0.00    +0.000 HD
ATOM     11  H   UNL     1      42.993   4.417   8.894  0.00  0.00    +0.000 HD
ENDBRANCH   4   7
BRANCH   1  12
ATOM     12  O   UNL     1      48.250   5.495  14.024  0.00  0.00    +0.000 OA
BRANCH  12  14
ATOM     13  C   UNL     1      49.042   7.254  15.533  0.00  0.00    +0.000 C 
ATOM     14  C   UNL     1      48.035   6.123  15.303  0.00  0.00    +0.000 C 
BRANCH  14  15
ATOM     15  C   UNL     1      48.219   5.089  16.409  0.00  0.00    +0.000 A 
ATOM     16  C   UNL     1      49.446   5.003  17.089  0.00  0.00    +0.000 A 
ATOM     17  C   UNL     1      49.648   4.031  18.070  0.00  0.00    +0.000 A 
ATOM     18  C   UNL     1      48.629   3.134  18.384  0.00  0.00    +0.000 A 
ATOM     19  C   UNL     1      47.413   3.199  17.707  0.00  0.00    +0.000 A 
ATOM     20  C   UNL     1      47.212   4.165  16.719  0.00  0.00    +0.000 A 
ENDBRANCH  14  15
ENDBRANCH  12  14
ENDBRANCH   1  12
TORSDOF 4
ENDMDL
MODEL 8
REMARK VINA RESULT:    -5.470      3.877      6.906
REMARK INTER + INTRA:          -7.598
REMARK INTER:                  -6.970
REMARK INTRA:                  -0.628
REMARK UNBOUND:                -0.849
REMARK  Name = 
REMARK  5 active torsions:
REMARK  status: ('A' for Active; 'I' for Inactive)
REMARK    1  A    between atoms: C_1  and  C_2
REMARK    2  A    between atoms: C_2  and  O_3
REMARK    3  A    between atoms: C_2  and  C_13
REMARK    4  A    between atoms: O_3  and  C_4
REMARK    5  A    between atoms: C_7  and  C_8
REMARK                            x       y       z     vdW  Elec       q    Type
REMARK                         _______ _______ _______ _____ _____    ______ ____
ROOT
ATOM      1  C   UNL     1      46.670   4.735  13.824  0.00  0.00    +0.000 A 
ATOM      2  C   UNL     1      47.016   4.329  15.116  0.00  0.00    +0.000 A 
ATOM      3  C   UNL     1      47.909   5.080  15.888  0.00  0.00    +0.000 A 
ATOM      4  C   UNL     1      48.508   6.226  15.353  0.00  0.00    +0.000 A 
ATOM      5  C   UNL     1      48.201   6.608  14.043  0.00  0.00    +0.000 A 
ATOM      6  C   UNL     1      47.284   5.869  13.285  0.00  0.00    +0.000 A 
ENDROOT
BRANCH   4   7
ATOM      7  C   UNL     1      49.430   7.005  16.222  0.00  0.00    +0.000 C 
ATOM      8  N   UNL     1      50.703   6.530  16.380  0.00  0.00    +0.000 N 
ATOM      9  O   UNL     1      49.063   8.017  16.798  0.00  0.00    +0.000 OA
ATOM     10  H   UNL     1      51.006   5.622  16.064  0.00  0.00    +0.000 HD
ATOM     11  H   UNL     1      51.286   7.022  17.041  0.00  0.00    +0.000 HD
ENDBRANCH   4   7
BRANCH   1  12
ATOM     12  O   UNL     1      45.755   3.948  13.185  0.00  0.00    +0.000 OA
BRANCH  12  14
ATOM     13  C   UNL     1      43.323   4.106  12.944  0.00  0.00    +0.000 C 
ATOM     14  C   UNL     1      44.691   4.572  12.439  0.00  0.00    +0.000 C 
BRANCH  14  15
ATOM     15  C   UNL     1      44.814   4.185  10.969  0.00  0.00    +0.000 A 
ATOM     16  C   UNL     1      44.347   2.933  10.533  0.00  0.00    +0.000 A 
ATOM     17  C   UNL     1      44.494   2.543   9.202  0.00  0.00    +0.000 A 
ATOM     18  C   UNL     1      45.109   3.397   8.288  0.00  0.00    +0.000 A 
ATOM     19  C   UNL     1      45.590   4.635   8.710  0.00  0.00    +0.000 A 
ATOM     20  C   UNL     1      45.451   5.023  10.044  0.00  0.00    +0.000 A 
ENDBRANCH  14  15
ENDBRANCH  12  14
ENDBRANCH   1  12
TORSDOF 4
ENDMDL
MODEL 9
REMARK VINA RESULT:    -5.451      4.075      6.250
REMARK INTER + INTRA:          -7.574
REMARK INTER:                  -7.018
REMARK INTRA:                  -0.556
REMARK UNBOUND:                -0.849
REMARK  Name = 
REMARK  5 active torsions:
REMARK  status: ('A' for Active; 'I' for Inactive)
REMARK    1  A    between atoms: C_1  and  C_2
REMARK    2  A    between atoms: C_2  and  O_3
REMARK    3  A    between atoms: C_2  and  C_13
REMARK    4  A    between atoms: O_3  and  C_4
REMARK    5  A    between atoms: C_7  and  C_8
REMARK                            x       y       z     vdW  Elec       q    Type
REMARK                         _______ _______ _______ _____ _____    ______ ____
ROOT
ATOM      1  C   UNL     1      47.116   4.770  14.132  0.00  0.00    +0.000 A 
ATOM      2  C   UNL     1      46.996   5.942  13.380  0.00  0.00    +0.000 A 
ATOM      3  C   UNL     1      46.189   5.981  12.238  0.00  0.00    +0.000 A 
ATOM      4  C   UNL     1      45.530   4.825  11.805  0.00  0.00    +0.000 A 
ATOM      5  C   UNL     1      45.686   3.638  12.528  0.00  0.00    +0.000 A 
ATOM      6  C   UNL     1      46.472   3.613  13.688  0.00  0.00    +0.000 A 
ENDROOT
BRANCH   4   7
ATOM      7  C   UNL     1      44.663   4.923  10.600  0.00  0.00    +0.000 C 
ATOM      8  N   UNL     1      45.272   5.178   9.402  0.00  0.00    +0.000 N 
ATOM      9  O   UNL     1      43.449   4.810  10.675  0.00  0.00    +0.000 OA
ATOM     10  H   UNL     1      46.240   5.441   9.310  0.00  0.00    +0.000 HD
ATOM     11  H   UNL     1      44.661   5.328   8.612  0.00  0.00    +0.000 HD
ENDBRANCH   4   7
BRANCH   1  12
ATOM     12  O   UNL     1      47.894   4.866  15.252  0.00  0.00    +0.000 OA
BRANCH  12  14
ATOM     13  C   UNL     1      46.973   4.448  17.481  0.00  0.00    +0.000 C 
ATOM     14  C   UNL     1      47.752   3.880  16.292  0.00  0.00    +0.000 C 
BRANCH  14  15
ATOM     15  C   UNL     1      49.135   3.463  16.782  0.00  0.00    +0.000 A 
ATOM     16  C   UNL     1      49.531   2.117  16.698  0.00  0.00    +0.000 A 
ATOM     17  C   UNL     1      50.774   1.710  17.185  0.00  0.00    +0.000 A 
ATOM     18  C   UNL     1      51.636   2.641  17.762  0.00  0.00    +0.000 A 
ATOM     19  C   UNL     1      51.250   3.975  17.864  0.00  0.00    +0.000 A 
ATOM     20  C   UNL     1      50.003   4.383  17.386  0.00  0.00    +0.000 A 
ENDBRANCH  14  15
ENDBRANCH  12  14
ENDBRANCH   1  12
TORSDOF 4
ENDMDL
