MODEL 1
REMARK VINA RESULT:    -6.319      0.000      0.000
REMARK INTER + INTRA:          -9.384
REMARK INTER:                  -8.535
REMARK INTRA:                  -0.849
REMARK UNBOUND:                -0.849
REMARK  Name = 
REMARK  10 active torsions:
REMARK  status: ('A' for Active; 'I' for Inactive)
REMARK    1  A    between atoms: C_1  and  C_2
REMARK    2  A    between atoms: C_2  and  C_3
REMARK    3  A    between atoms: C_2  and  C_4
REMARK    4  A    between atoms: C_2  and  C_5
REMARK    5  A    between atoms: C_9  and  C_10
REMARK    6  A    between atoms: C_10  and  N_11
REMARK    7  A    between atoms: C_12  and  C_13
REMARK    8  A    between atoms: N_15  and  C_16
REMARK    9  A    between atoms: C_16  and  C_17
REMARK   10  A    between atoms: C_17  and  N_18
REMARK                            x       y       z     vdW  Elec       q    Type
REMARK                         _______ _______ _______ _____ _____    ______ ____
ROOT
ATOM      1  C   UNL     1      45.756   4.818  12.273  0.00  0.00    +0.000 A 
ATOM      2  N   UNL     1      45.656   3.691  13.001  0.00  0.00    +0.000 NA
ATOM      3  N   UNL     1      46.338   3.588  14.170  0.00  0.00    +0.000 NA
ATOM      4  C   UNL     1      47.090   4.607  14.610  0.00  0.00    +0.000 A 
ATOM      5  C   UNL     1      47.814   4.558  15.825  0.00  0.00    +0.000 A 
ATOM      6  C   UNL     1      48.575   5.672  16.210  0.00  0.00    +0.000 A 
ATOM      7  C   UNL     1      48.602   6.747  15.330  0.00  0.00    +0.000 A 
ATOM      8  N   UNL     1      47.913   6.807  14.170  0.00  0.00    +0.000 NA
ATOM      9  C   UNL     1      47.164   5.765  13.813  0.00  0.00    +0.000 A 
ATOM     10  N   UNL     1      46.497   5.868  12.665  0.00  0.00    +0.000 NA
ENDROOT
BRANCH   1  12
ATOM     11  C   UNL     1      44.374   3.539  10.650  0.00  0.00    +0.000 C 
ATOM     12  C   UNL     1      44.907   4.935  11.011  0.00  0.00    +0.000 C 
ATOM     13  C   UNL     1      45.739   5.468   9.827  0.00  0.00    +0.000 C 
ATOM     14  C   UNL     1      43.721   5.896  11.225  0.00  0.00    +0.000 C 
ENDBRANCH   1  12
BRANCH   6  15
ATOM     15  C   UNL     1      49.392   5.754  17.458  0.00  0.00    +0.000 C 
ATOM     16  O   UNL     1      50.594   5.992  17.404  0.00  0.00    +0.000 OA
ATOM     17  N   UNL     1      48.728   5.540  18.651  0.00  0.00    +0.000 N 
ATOM     18  H   UNL     1      47.759   5.253  18.672  0.00  0.00    +0.000 HD
BRANCH  17  19
ATOM     19  C   UNL     1      49.378   5.631  19.955  0.00  0.00    +0.000 C 
BRANCH  19  20
ATOM     20  C   UNL     1      48.819   4.619  20.966  0.00  0.00    +0.000 C 
BRANCH  20  21
ATOM     21  N   UNL     1      48.342   3.393  20.314  0.00  0.00    +0.000 NA
ATOM     22  H   UNL     1      47.660   3.646  19.603  0.00  0.00    +0.000 HD
ATOM     23  H   UNL     1      47.833   2.834  20.999  0.00  0.00    +0.000 HD
ENDBRANCH  20  21
ENDBRANCH  19  20
ENDBRANCH  17  19
ENDBRANCH   6  15
BRANCH   5  24
ATOM     24  C   UNL     1      47.764   3.272  16.626  0.00  0.00    +0.000 C 
BRANCH  24  25
ATOM     25  N   UNL     1      46.629   3.201  17.542  0.00  0.00    +0.000 NA
ATOM     26  H   UNL     1      46.993   3.138  18.495  0.00  0.00    +0.000 HD
ATOM     27  H   UNL     1      46.181   2.292  17.401  0.00  0.00    +0.000 HD
ENDBRANCH  24  25
ENDBRANCH   5  24
TORSDOF 7
ENDMDL
MODEL 2
REMARK VINA RESULT:    -5.913      2.910      7.800
REMARK INTER + INTRA:          -8.836
REMARK INTER:                  -8.140
REMARK INTRA:                  -0.696
REMARK UNBOUND:                -0.849
REMARK  Name = 
REMARK  10 active torsions:
REMARK  status: ('A' for Active; 'I' for Inactive)
REMARK    1  A    between atoms: C_1  and  C_2
REMARK    2  A    between atoms: C_2  and  C_3
REMARK    3  A    between atoms: C_2  and  C_4
REMARK    4  A    between atoms: C_2  and  C_5
REMARK    5  A    between atoms: C_9  and  C_10
REMARK    6  A    between atoms: C_10  and  N_11
REMARK    7  A    between atoms: C_12  and  C_13
REMARK    8  A    between atoms: N_15  and  C_16
REMARK    9  A    between atoms: C_16  and  C_17
REMARK   10  A    between atoms: C_17  and  N_18
REMARK                            x       y       z     vdW  Elec       q    Type
REMARK                         _______ _______ _______ _____ _____    ______ ____
ROOT
ATOM      1  C   UNL     1      48.492   5.617  15.958  0.00  0.00    +0.000 A 
ATOM      2  N   UNL     1      48.567   6.766  15.262  0.00  0.00    +0.000 NA
ATOM      3  N   UNL     1      47.888   6.884  14.093  0.00  0.00    +0.000 NA
ATOM      4  C   UNL     1      47.130   5.874  13.642  0.00  0.00    +0.000 A 
ATOM      5  C   UNL     1      46.393   5.945  12.437  0.00  0.00    +0.000 A 
ATOM      6  C   UNL     1      45.624   4.840  12.041  0.00  0.00    +0.000 A 
ATOM      7  C   UNL     1      45.680   3.715  12.856  0.00  0.00    +0.000 A 
ATOM      8  N   UNL     1      46.376   3.635  14.010  0.00  0.00    +0.000 NA
ATOM      9  C   UNL     1      47.083   4.692  14.407  0.00  0.00    +0.000 A 
ATOM     10  N   UNL     1      47.751   4.573  15.553  0.00  0.00    +0.000 NA
ENDROOT
BRANCH   1  12
ATOM     11  C   UNL     1      48.378   6.367  18.327  0.00  0.00    +0.000 C 
ATOM     12  C   UNL     1      49.195   5.552  17.311  0.00  0.00    +0.000 C 
ATOM     13  C   UNL     1      50.616   6.145  17.229  0.00  0.00    +0.000 C 
ATOM     14  C   UNL     1      49.320   4.097  17.804  0.00  0.00    +0.000 C 
ENDBRANCH   1  12
BRANCH   6  15
ATOM     15  C   UNL     1      44.807   4.774  10.792  0.00  0.00    +0.000 C 
ATOM     16  O   UNL     1      43.671   5.233  10.764  0.00  0.00    +0.000 OA
ATOM     17  N   UNL     1      45.393   4.166   9.698  0.00  0.00    +0.000 N 
ATOM     18  H   UNL     1      46.293   3.710   9.766  0.00  0.00    +0.000 HD
BRANCH  17  19
ATOM     19  C   UNL     1      44.741   4.065   8.396  0.00  0.00    +0.000 C 
BRANCH  19  20
ATOM     20  C   UNL     1      45.601   3.326   7.360  0.00  0.00    +0.000 C 
BRANCH  20  21
ATOM     21  N   UNL     1      46.736   4.139   6.903  0.00  0.00    +0.000 NA
ATOM     22  H   UNL     1      46.882   4.896   7.568  0.00  0.00    +0.000 HD
ATOM     23  H   UNL     1      46.482   4.589   6.023  0.00  0.00    +0.000 HD
ENDBRANCH  20  21
ENDBRANCH  19  20
ENDBRANCH  17  19
ENDBRANCH   6  15
BRANCH   5  24
ATOM     24  C   UNL     1      46.517   7.207  11.606  0.00  0.00    +0.000 C 
BRANCH  24  25
ATOM     25  N   UNL     1      45.839   8.359  12.195  0.00  0.00    +0.000 NA
ATOM     26  H   UNL     1      46.362   9.199  11.938  0.00  0.00    +0.000 HD
ATOM     27  H   UNL     1      45.969   8.302  13.208  0.00  0.00    +0.000 HD
ENDBRANCH  24  25
ENDBRANCH   5  24
TORSDOF 7
ENDMDL
MODEL 3
REMARK VINA RESULT:    -5.861      2.851      7.214
REMARK INTER + INTRA:          -8.766
REMARK INTER:                  -7.880
REMARK INTRA:                  -0.886
REMARK UNBOUND:                -0.849
REMARK  Name = 
REMARK  10 active torsions:
REMARK  status: ('A' for Active; 'I' for Inactive)
REMARK    1  A    between atoms: C_1  and  C_2
REMARK    2  A    between atoms: C_2  and  C_3
REMARK    3  A    between atoms: C_2  and  C_4
REMARK    4  A    between atoms: C_2  and  C_5
REMARK    5  A    between atoms: C_9  and  C_10
REMARK    6  A    between atoms: C_10  and  N_11
REMARK    7  A    between atoms: C_12  and  C_13
REMARK    8  A    between atoms: N_15  and  C_16
REMARK    9  A    between atoms: C_16  and  C_17
REMARK   10  A    between atoms: C_17  and  N_18
REMARK                            x       y       z     vdW  Elec       q    Type
REMARK                         _______ _______ _______ _____ _____    ______ ____
ROOT
ATOM      1  C   UNL     1      48.732   4.210  16.434  0.00  0.00    +0.000 A 
ATOM      2  N   UNL     1      49.137   5.481  16.254  0.00  0.00    +0.000 NA
ATOM      3  N   UNL     1      48.565   6.232  15.278  0.00  0.00    +0.000 NA
ATOM      4  C   UNL     1      47.589   5.722  14.513  0.00  0.00    +0.000 A 
ATOM      5  C   UNL     1      46.951   6.462  13.489  0.00  0.00    +0.000 A 
ATOM      6  C   UNL     1      45.937   5.850  12.737  0.00  0.00    +0.000 A 
ATOM      7  C   UNL     1      45.659   4.519  13.026  0.00  0.00    +0.000 A 
ATOM      8  N   UNL     1      46.258   3.804  14.002  0.00  0.00    +0.000 NA
ATOM      9  C   UNL     1      47.200   4.388  14.741  0.00  0.00    +0.000 A 
ATOM     10  N   UNL     1      47.761   3.649  15.696  0.00  0.00    +0.000 NA
ENDROOT
BRANCH   1  12
ATOM     11  C   UNL     1      49.912   2.110  17.050  0.00  0.00    +0.000 C 
ATOM     12  C   UNL     1      49.333   3.425  17.596  0.00  0.00    +0.000 C 
ATOM     13  C   UNL     1      48.262   3.091  18.656  0.00  0.00    +0.000 C 
ATOM     14  C   UNL     1      50.450   4.227  18.292  0.00  0.00    +0.000 C 
ENDBRANCH   1  12
BRANCH   6  15
ATOM     15  C   UNL     1      45.187   6.507  11.624  0.00  0.00    +0.000 C 
ATOM     16  O   UNL     1      45.261   6.075  10.480  0.00  0.00    +0.000 OA
ATOM     17  N   UNL     1      44.430   7.616  11.955  0.00  0.00    +0.000 N 
ATOM     18  H   UNL     1      44.455   8.014  12.884  0.00  0.00    +0.000 HD
BRANCH  17  19
ATOM     19  C   UNL     1      43.608   8.338  10.990  0.00  0.00    +0.000 C 
BRANCH  19  20
ATOM     20  C   UNL     1      43.823   9.858  11.050  0.00  0.00    +0.000 C 
BRANCH  20  21
ATOM     21  N   UNL     1      44.332  10.292  12.357  0.00  0.00    +0.000 NA
ATOM     22  H   UNL     1      45.021   9.616  12.680  0.00  0.00    +0.000 HD
ATOM     23  H   UNL     1      43.569  10.255  13.034  0.00  0.00    +0.000 HD
ENDBRANCH  20  21
ENDBRANCH  19  20
ENDBRANCH  17  19
ENDBRANCH   6  15
BRANCH   5  24
ATOM     24  C   UNL     1      47.439   7.873  13.228  0.00  0.00    +0.000 C 
BRANCH  24  25
ATOM     25  N   UNL     1      46.725   8.887  14.000  0.00  0.00    +0.000 NA
ATOM     26  H   UNL     1      47.311   9.724  14.041  0.00  0.00    +0.000 HD
ATOM     27  H   UNL     1      46.703   8.568  14.972  0.00  0.00    +0.000 HD
ENDBRANCH  24  25
ENDBRANCH   5  24
TORSDOF 7
ENDMDL
MODEL 4
REMARK VINA RESULT:    -5.820      3.013      7.587
REMARK INTER + INTRA:          -8.710
REMARK INTER:                  -8.193
REMARK INTRA:                  -0.517
REMARK UNBOUND:                -0.849
REMARK  Name = 
REMARK  10 active torsions:
REMARK  status: ('A' for Active; 'I' for Inactive)
REMARK    1  A    between atoms: C_1  and  C_2
REMARK    2  A    between atoms: C_2  and  C_3
REMARK    3  A    between atoms: C_2  and  C_4
REMARK    4  A    between atoms: C_2  and  C_5
REMARK    5  A    between atoms: C_9  and  C_10
REMARK    6  A    between atoms: C_10  and  N_11
REMARK    7  A    between atoms: C_12  and  C_13
REMARK    8  A    between atoms: N_15  and  C_16
REMARK    9  A    between atoms: C_16  and  C_17
REMARK   10  A    between atoms: C_17  and  N_18
REMARK                            x       y       z     vdW  Elec       q    Type
REMARK                         _______ _______ _______ _____ _____    ______ ____
ROOT
ATOM      1  C   UNL     1      48.355   5.543  15.759  0.00  0.00    +0.000 A 
ATOM      2  N   UNL     1      47.817   4.311  15.815  0.00  0.00    +0.000 NA
ATOM      3  N   UNL     1      47.011   3.888  14.807  0.00  0.00    +0.000 NA
ATOM      4  C   UNL     1      46.769   4.680  13.753  0.00  0.00    +0.000 A 
ATOM      5  C   UNL     1      45.947   4.287  12.671  0.00  0.00    +0.000 A 
ATOM      6  C   UNL     1      45.748   5.179  11.606  0.00  0.00    +0.000 A 
ATOM      7  C   UNL     1      46.348   6.428  11.716  0.00  0.00    +0.000 A 
ATOM      8  N   UNL     1      47.138   6.814  12.741  0.00  0.00    +0.000 NA
ATOM      9  C   UNL     1      47.355   5.960  13.741  0.00  0.00    +0.000 A 
ATOM     10  N   UNL     1      48.144   6.379  14.729  0.00  0.00    +0.000 NA
ENDROOT
BRANCH   1  12
ATOM     11  C   UNL     1      49.782   4.686  17.607  0.00  0.00    +0.000 C 
ATOM     12  C   UNL     1      49.325   5.952  16.863  0.00  0.00    +0.000 C 
ATOM     13  C   UNL     1      48.651   6.902  17.874  0.00  0.00    +0.000 C 
ATOM     14  C   UNL     1      50.556   6.677  16.283  0.00  0.00    +0.000 C 
ENDBRANCH   1  12
BRANCH   6  15
ATOM     15  C   UNL     1      44.901   4.900  10.408  0.00  0.00    +0.000 C 
ATOM     16  O   UNL     1      43.707   5.178  10.408  0.00  0.00    +0.000 OA
ATOM     17  N   UNL     1      45.529   4.310   9.326  0.00  0.00    +0.000 N 
ATOM     18  H   UNL     1      46.491   4.002   9.378  0.00  0.00    +0.000 HD
BRANCH  17  19
ATOM     19  C   UNL     1      44.848   4.018   8.070  0.00  0.00    +0.000 C 
BRANCH  19  20
ATOM     20  C   UNL     1      45.737   3.247   7.081  0.00  0.00    +0.000 C 
BRANCH  20  21
ATOM     21  N   UNL     1      46.799   4.091   6.520  0.00  0.00    +0.000 NA
ATOM     22  H   UNL     1      46.818   3.963   5.511  0.00  0.00    +0.000 HD
ATOM     23  H   UNL     1      47.700   3.750   6.858  0.00  0.00    +0.000 HD
ENDBRANCH  20  21
ENDBRANCH  19  20
ENDBRANCH  17  19
ENDBRANCH   6  15
BRANCH   5  24
ATOM     24  C   UNL     1      45.279   2.928  12.747  0.00  0.00    +0.000 C 
BRANCH  24  25
ATOM     25  N   UNL     1      43.827   3.001  12.883  0.00  0.00    +0.000 NA
ATOM     26  H   UNL     1      43.613   3.329  13.827  0.00  0.00    +0.000 HD
ATOM     27  H   UNL     1      43.473   2.041  12.881  0.00  0.00    +0.000 HD
ENDBRANCH  24  25
ENDBRANCH   5  24
TORSDOF 7
ENDMDL
MODEL 5
REMARK VINA RESULT:    -5.778      2.894      7.062
REMARK INTER + INTRA:          -8.654
REMARK INTER:                  -8.050
REMARK INTRA:                  -0.605
REMARK UNBOUND:                -0.849
REMARK  Name = 
REMARK  10 active torsions:
REMARK  status: ('A' for Active; 'I' for Inactive)
REMARK    1  A    between atoms: C_1  and  C_2
REMARK    2  A    between atoms: C_2  and  C_3
REMARK    3  A    between atoms: C_2  and  C_4
REMARK    4  A    between atoms: C_2  and  C_5
REMARK    5  A    between atoms: C_9  and  C_10
REMARK    6  A    between atoms: C_10  and  N_11
REMARK    7  A    between atoms: C_12  and  C_13
REMARK    8  A    between atoms: N_15  and  C_16
REMARK    9  A    between atoms: C_16  and  C_17
REMARK   10  A    between atoms: C_17  and  N_18
REMARK                            x       y       z     vdW  Elec       q    Type
REMARK                         _______ _______ _______ _____ _____    ______ ____
ROOT
ATOM      1  C   UNL     1      48.575   4.281  16.516  0.00  0.00    +0.000 A 
ATOM      2  N   UNL     1      47.623   3.390  16.186  0.00  0.00    +0.000 NA
ATOM      3  N   UNL     1      46.765   3.673  15.172  0.00  0.00    +0.000 NA
ATOM      4  C   UNL     1      46.876   4.822  14.490  0.00  0.00    +0.000 A 
ATOM      5  C   UNL     1      46.017   5.165  13.419  0.00  0.00    +0.000 A 
ATOM      6  C   UNL     1      46.206   6.388  12.758  0.00  0.00    +0.000 A 
ATOM      7  C   UNL     1      47.214   7.213  13.244  0.00  0.00    +0.000 A 
ATOM      8  N   UNL     1      48.042   6.896  14.262  0.00  0.00    +0.000 NA
ATOM      9  C   UNL     1      47.888   5.723  14.873  0.00  0.00    +0.000 A 
ATOM     10  N   UNL     1      48.730   5.448  15.869  0.00  0.00    +0.000 NA
ENDROOT
BRANCH   1  12
ATOM     11  C   UNL     1      49.985   2.426  17.383  0.00  0.00    +0.000 C 
ATOM     12  C   UNL     1      49.576   3.892  17.599  0.00  0.00    +0.000 C 
ATOM     13  C   UNL     1      48.958   4.030  19.006  0.00  0.00    +0.000 C 
ATOM     14  C   UNL     1      50.830   4.787  17.546  0.00  0.00    +0.000 C 
ENDBRANCH   1  12
BRANCH   6  15
ATOM     15  C   UNL     1      45.370   6.880  11.621  0.00  0.00    +0.000 C 
ATOM     16  O   UNL     1      45.353   6.279  10.553  0.00  0.00    +0.000 OA
ATOM     17  N   UNL     1      44.644   8.036  11.839  0.00  0.00    +0.000 N 
ATOM     18  H   UNL     1      44.743   8.569  12.692  0.00  0.00    +0.000 HD
BRANCH  17  19
ATOM     19  C   UNL     1      43.748   8.614  10.843  0.00  0.00    +0.000 C 
BRANCH  19  20
ATOM     20  C   UNL     1      43.804  10.150  10.819  0.00  0.00    +0.000 C 
BRANCH  20  21
ATOM     21  N   UNL     1      43.407  10.737  12.104  0.00  0.00    +0.000 NA
ATOM     22  H   UNL     1      42.472  11.128  12.009  0.00  0.00    +0.000 HD
ATOM     23  H   UNL     1      44.019  11.529  12.305  0.00  0.00    +0.000 HD
ENDBRANCH  20  21
ENDBRANCH  19  20
ENDBRANCH  17  19
ENDBRANCH   6  15
BRANCH   5  24
ATOM     24  C   UNL     1      44.898   4.202  13.075  0.00  0.00    +0.000 C 
BRANCH  24  25
ATOM     25  N   UNL     1      45.372   2.927  12.542  0.00  0.00    +0.000 NA
ATOM     26  H   UNL     1      44.646   2.226  12.706  0.00  0.00    +0.000 HD
ATOM     27  H   UNL     1      46.141   2.616  13.140  0.00  0.00    +0.000 HD
ENDBRANCH  24  25
ENDBRANCH   5  24
TORSDOF 7
ENDMDL
MODEL 6
REMARK VINA RESULT:    -5.653      0.950      2.452
REMARK INTER + INTRA:          -8.486
REMARK INTER:                  -7.761
REMARK INTRA:                  -0.724
REMARK UNBOUND:                -0.849
REMARK  Name = 
REMARK  10 active torsions:
REMARK  status: ('A' for Active; 'I' for Inactive)
REMARK    1  A    between atoms: C_1  and  C_2
REMARK    2  A    between atoms: C_2  and  C_3
REMARK    3  A    between atoms: C_2  and  C_4
REMARK    4  A    between atoms: C_2  and  C_5
REMARK    5  A    between atoms: C_9  and  C_10
REMARK    6  A    between atoms: C_10  and  N_11
REMARK    7  A    between atoms: C_12  and  C_13
REMARK    8  A    between atoms: N_15  and  C_16
REMARK    9  A    between atoms: C_16  and  C_17
REMARK   10  A    between atoms: C_17  and  N_18
REMARK                            x       y       z     vdW  Elec       q    Type
REMARK                         _______ _______ _______ _____ _____    ______ ____
ROOT
ATOM      1  C   UNL     1      45.674   5.002  11.805  0.00  0.00    +0.000 A 
ATOM      2  N   UNL     1      46.276   6.205  11.786  0.00  0.00    +0.000 NA
ATOM      3  N   UNL     1      47.055   6.579  12.833  0.00  0.00    +0.000 NA
ATOM      4  C   UNL     1      47.242   5.751  13.871  0.00  0.00    +0.000 A 
ATOM      5  C   UNL     1      48.051   6.084  14.983  0.00  0.00    +0.000 A 
ATOM      6  C   UNL     1      48.194   5.155  16.025  0.00  0.00    +0.000 A 
ATOM      7  C   UNL     1      47.478   3.969  15.908  0.00  0.00    +0.000 A 
ATOM      8  N   UNL     1      46.706   3.638  14.851  0.00  0.00    +0.000 NA
ATOM      9  C   UNL     1      46.592   4.503  13.844  0.00  0.00    +0.000 A 
ATOM     10  N   UNL     1      45.825   4.134  12.819  0.00  0.00    +0.000 NA
ENDROOT
BRANCH   1  12
ATOM     11  C   UNL     1      45.572   5.149   9.325  0.00  0.00    +0.000 C 
ATOM     12  C   UNL     1      44.880   4.578  10.574  0.00  0.00    +0.000 C 
ATOM     13  C   UNL     1      43.436   5.119  10.628  0.00  0.00    +0.000 C 
ATOM     14  C   UNL     1      44.804   3.043  10.460  0.00  0.00    +0.000 C 
ENDBRANCH   1  12
BRANCH   6  15
ATOM     15  C   UNL     1      49.006   5.377  17.259  0.00  0.00    +0.000 C 
ATOM     16  O   UNL     1      50.226   5.263  17.233  0.00  0.00    +0.000 OA
ATOM     17  N   UNL     1      48.312   5.702  18.409  0.00  0.00    +0.000 N 
ATOM     18  H   UNL     1      47.301   5.700  18.435  0.00  0.00    +0.000 HD
BRANCH  17  19
ATOM     19  C   UNL     1      48.966   5.992  19.681  0.00  0.00    +0.000 C 
BRANCH  19  20
ATOM     20  C   UNL     1      48.436   5.123  20.831  0.00  0.00    +0.000 C 
BRANCH  20  21
ATOM     21  N   UNL     1      48.446   3.694  20.493  0.00  0.00    +0.000 NA
ATOM     22  H   UNL     1      47.638   3.491  19.908  0.00  0.00    +0.000 HD
ATOM     23  H   UNL     1      48.311   3.154  21.349  0.00  0.00    +0.000 HD
ENDBRANCH  20  21
ENDBRANCH  19  20
ENDBRANCH  17  19
ENDBRANCH   6  15
BRANCH   5  24
ATOM     24  C   UNL     1      48.684   7.461  15.009  0.00  0.00    +0.000 C 
BRANCH  24  25
ATOM     25  N   UNL     1      47.719   8.540  15.203  0.00  0.00    +0.000 NA
ATOM     26  H   UNL     1      48.171   9.420  14.944  0.00  0.00    +0.000 HD
ATOM     27  H   UNL     1      47.574   8.639  16.211  0.00  0.00    +0.000 HD
ENDBRANCH  24  25
ENDBRANCH   5  24
TORSDOF 7
ENDMDL
MODEL 7
REMARK VINA RESULT:    -5.558      3.362      6.986
REMARK INTER + INTRA:          -8.357
REMARK INTER:                  -7.492
REMARK INTRA:                  -0.865
REMARK UNBOUND:                -0.849
REMARK  Name = 
REMARK  10 active torsions:
REMARK  status: ('A' for Active; 'I' for Inactive)
REMARK    1  A    between atoms: C_1  and  C_2
REMARK    2  A    between atoms: C_2  and  C_3
REMARK    3  A    between atoms: C_2  and  C_4
REMARK    4  A    between atoms: C_2  and  C_5
REMARK    5  A    between atoms: C_9  and  C_10
REMARK    6  A    between atoms: C_10  and  N_11
REMARK    7  A    between atoms: C_12  and  C_13
REMARK    8  A    between atoms: N_15  and  C_16
REMARK    9  A    between atoms: C_16  and  C_17
REMARK   10  A    between atoms: C_17  and  N_18
REMARK                            x       y       z     vdW  Elec       q    Type
REMARK                         _______ _______ _______ _____ _____    ______ ____
ROOT
ATOM      1  C   UNL     1      50.520   7.528  15.002  0.00  0.00    +0.000 A 
ATOM      2  N   UNL     1      49.992   6.471  15.647  0.00  0.00    +0.000 NA
ATOM      3  N   UNL     1      48.856   5.899  15.173  0.00  0.00    +0.000 NA
ATOM      4  C   UNL     1      48.273   6.366  14.060  0.00  0.00    +0.000 A 
ATOM      5  C   UNL     1      47.095   5.803  13.516  0.00  0.00    +0.000 A 
ATOM      6  C   UNL     1      46.552   6.355  12.346  0.00  0.00    +0.000 A 
ATOM      7  C   UNL     1      47.199   7.467  11.820  0.00  0.00    +0.000 A 
ATOM      8  N   UNL     1      48.325   8.012  12.327  0.00  0.00    +0.000 NA
ATOM      9  C   UNL     1      48.863   7.474  13.421  0.00  0.00    +0.000 A 
ATOM     10  N   UNL     1      49.976   8.039  13.885  0.00  0.00    +0.000 NA
ENDROOT
BRANCH   1  12
ATOM     11  C   UNL     1      52.497   7.045  16.430  0.00  0.00    +0.000 C 
ATOM     12  C   UNL     1      51.844   8.089  15.510  0.00  0.00    +0.000 C 
ATOM     13  C   UNL     1      51.628   9.389  16.312  0.00  0.00    +0.000 C 
ATOM     14  C   UNL     1      52.798   8.410  14.342  0.00  0.00    +0.000 C 
ENDBRANCH   1  12
BRANCH   6  15
ATOM     15  C   UNL     1      45.312   5.868  11.669  0.00  0.00    +0.000 C 
ATOM     16  O   UNL     1      44.352   6.614  11.512  0.00  0.00    +0.000 OA
ATOM     17  N   UNL     1      45.309   4.550  11.252  0.00  0.00    +0.000 N 
ATOM     18  H   UNL     1      46.071   3.924  11.473  0.00  0.00    +0.000 HD
BRANCH  17  19
ATOM     19  C   UNL     1      44.191   3.942  10.537  0.00  0.00    +0.000 C 
BRANCH  19  20
ATOM     20  C   UNL     1      43.409   2.943  11.404  0.00  0.00    +0.000 C 
BRANCH  20  21
ATOM     21  N   UNL     1      44.174   2.519  12.584  0.00  0.00    +0.000 NA
ATOM     22  H   UNL     1      44.248   1.504  12.576  0.00  0.00    +0.000 HD
ATOM     23  H   UNL     1      43.639   2.751  13.422  0.00  0.00    +0.000 HD
ENDBRANCH  20  21
ENDBRANCH  19  20
ENDBRANCH  17  19
ENDBRANCH   6  15
BRANCH   5  24
ATOM     24  C   UNL     1      46.450   4.653  14.265  0.00  0.00    +0.000 C 
BRANCH  24  25
ATOM     25  N   UNL     1      47.042   3.354  13.956  0.00  0.00    +0.000 NA
ATOM     26  H   UNL     1      47.436   3.402  13.015  0.00  0.00    +0.000 HD
ATOM     27  H   UNL     1      46.273   2.687  13.856  0.00  0.00    +0.000 HD
ENDBRANCH  24  25
ENDBRANCH   5  24
TORSDOF 7
ENDMDL
MODEL 8
REMARK VINA RESULT:    -5.513      1.817      3.140
REMARK INTER + INTRA:          -8.296
REMARK INTER:                  -7.361
REMARK INTRA:                  -0.935
REMARK UNBOUND:                -0.849
REMARK  Name = 
REMARK  10 active torsions:
REMARK  status: ('A' for Active; 'I' for Inactive)
REMARK    1  A    between atoms: C_1  and  C_2
REMARK    2  A    between atoms: C_2  and  C_3
REMARK    3  A    between atoms: C_2  and  C_4
REMARK    4  A    between atoms: C_2  and  C_5
REMARK    5  A    between atoms: C_9  and  C_10
REMARK    6  A    between atoms: C_10  and  N_11
REMARK    7  A    between atoms: C_12  and  C_13
REMARK    8  A    between atoms: N_15  and  C_16
REMARK    9  A    between atoms: C_16  and  C_17
REMARK   10  A    between atoms: C_17  and  N_18
REMARK                            x       y       z     vdW  Elec       q    Type
REMARK                         _______ _______ _______ _____ _____    ______ ____
ROOT
ATOM      1  C   UNL     1      45.286   4.392  11.740  0.00  0.00    +0.000 A 
ATOM      2  N   UNL     1      45.754   5.613  11.423  0.00  0.00    +0.000 NA
ATOM      3  N   UNL     1      46.578   6.258  12.288  0.00  0.00    +0.000 NA
ATOM      4  C   UNL     1      46.940   5.678  13.441  0.00  0.00    +0.000 A 
ATOM      5  C   UNL     1      47.803   6.299  14.375  0.00  0.00    +0.000 A 
ATOM      6  C   UNL     1      48.132   5.619  15.557  0.00  0.00    +0.000 A 
ATOM      7  C   UNL     1      47.537   4.377  15.751  0.00  0.00    +0.000 A 
ATOM      8  N   UNL     1      46.716   3.772  14.866  0.00  0.00    +0.000 NA
ATOM      9  C   UNL     1      46.424   4.400  13.728  0.00  0.00    +0.000 A 
ATOM     10  N   UNL     1      45.614   3.766  12.882  0.00  0.00    +0.000 NA
ENDROOT
BRANCH   1  12
ATOM     11  C   UNL     1      43.372   2.832  11.445  0.00  0.00    +0.000 C 
ATOM     12  C   UNL     1      44.436   3.660  10.706  0.00  0.00    +0.000 C 
ATOM     13  C   UNL     1      45.297   2.707   9.851  0.00  0.00    +0.000 C 
ATOM     14  C   UNL     1      43.742   4.651   9.752  0.00  0.00    +0.000 C 
ENDBRANCH   1  12
BRANCH   6  15
ATOM     15  C   UNL     1      49.021   6.157  16.630  0.00  0.00    +0.000 C 
ATOM     16  O   UNL     1      50.220   5.899  16.637  0.00  0.00    +0.000 OA
ATOM     17  N   UNL     1      48.421   6.936  17.602  0.00  0.00    +0.000 N 
ATOM     18  H   UNL     1      47.418   7.060  17.634  0.00  0.00    +0.000 HD
BRANCH  17  19
ATOM     19  C   UNL     1      49.161   7.569  18.688  0.00  0.00    +0.000 C 
BRANCH  19  20
ATOM     20  C   UNL     1      49.038   9.100  18.674  0.00  0.00    +0.000 C 
BRANCH  20  21
ATOM     21  N   UNL     1      48.470   9.596  17.414  0.00  0.00    +0.000 NA
ATOM     22  H   UNL     1      49.097  10.301  17.030  0.00  0.00    +0.000 HD
ATOM     23  H   UNL     1      47.597  10.085  17.619  0.00  0.00    +0.000 HD
ENDBRANCH  20  21
ENDBRANCH  19  20
ENDBRANCH  17  19
ENDBRANCH   6  15
BRANCH   5  24
ATOM     24  C   UNL     1      48.289   7.701  14.064  0.00  0.00    +0.000 C 
BRANCH  24  25
ATOM     25  N   UNL     1      47.353   8.745  14.478  0.00  0.00    +0.000 NA
ATOM     26  H   UNL     1      47.874   9.619  14.568  0.00  0.00    +0.000 HD
ATOM     27  H   UNL     1      47.073   8.537  15.440  0.00  0.00    +0.000 HD
ENDBRANCH  24  25
ENDBRANCH   5  24
TORSDOF 7
ENDMDL
MODEL 9
REMARK VINA RESULT:    -5.284      2.269      3.359
REMARK INTER + INTRA:          -7.987
REMARK INTER:                  -7.314
REMARK INTRA:                  -0.673
REMARK UNBOUND:                -0.849
REMARK  Name = 
REMARK  10 active torsions:
REMARK  status: ('A' for Active; 'I' for Inactive)
REMARK    1  A    between atoms: C_1  and  C_2
REMARK    2  A    between atoms: C_2  and  C_3
REMARK    3  A    between atoms: C_2  and  C_4
REMARK    4  A    between atoms: C_2  and  C_5
REMARK    5  A    between atoms: C_9  and  C_10
REMARK    6  A    between atoms: C_10  and  N_11
REMARK    7  A    between atoms: C_12  and  C_13
REMARK    8  A    between atoms: N_15  and  C_16
REMARK    9  A    between atoms: C_16  and  C_17
REMARK   10  A    between atoms: C_17  and  N_18
REMARK                            x       y       z     vdW  Elec       q    Type
REMARK                         _______ _______ _______ _____ _____    ______ ____
ROOT
ATOM      1  C   UNL     1      46.298   5.052  13.680  0.00  0.00    +0.000 A 
ATOM      2  N   UNL     1      47.168   6.075  13.606  0.00  0.00    +0.000 NA
ATOM      3  N   UNL     1      48.091   6.240  14.589  0.00  0.00    +0.000 NA
ATOM      4  C   UNL     1      48.151   5.380  15.615  0.00  0.00    +0.000 A 
ATOM      5  C   UNL     1      49.097   5.496  16.660  0.00  0.00    +0.000 A 
ATOM      6  C   UNL     1      49.090   4.550  17.696  0.00  0.00    +0.000 A 
ATOM      7  C   UNL     1      48.103   3.572  17.643  0.00  0.00    +0.000 A 
ATOM      8  N   UNL     1      47.197   3.447  16.650  0.00  0.00    +0.000 NA
ATOM      9  C   UNL     1      47.218   4.325  15.648  0.00  0.00    +0.000 A 
ATOM     10  N   UNL     1      46.311   4.162  14.686  0.00  0.00    +0.000 NA
ENDROOT
BRANCH   1  12
ATOM     11  C   UNL     1      45.822   5.684  11.322  0.00  0.00    +0.000 C 
ATOM     12  C   UNL     1      45.335   4.845  12.515  0.00  0.00    +0.000 C 
ATOM     13  C   UNL     1      43.907   5.297  12.886  0.00  0.00    +0.000 C 
ATOM     14  C   UNL     1      45.267   3.361  12.105  0.00  0.00    +0.000 C 
ENDBRANCH   1  12
BRANCH   6  15
ATOM     15  C   UNL     1      50.022   4.556  18.863  0.00  0.00    +0.000 C 
ATOM     16  O   UNL     1      49.655   4.977  19.954  0.00  0.00    +0.000 OA
ATOM     17  N   UNL     1      51.301   4.081  18.639  0.00  0.00    +0.000 N 
ATOM     18  H   UNL     1      51.616   3.827  17.713  0.00  0.00    +0.000 HD
BRANCH  17  19
ATOM     19  C   UNL     1      52.311   3.982  19.688  0.00  0.00    +0.000 C 
BRANCH  19  20
ATOM     20  C   UNL     1      53.538   3.168  19.252  0.00  0.00    +0.000 C 
BRANCH  20  21
ATOM     21  N   UNL     1      53.181   1.800  18.856  0.00  0.00    +0.000 NA
ATOM     22  H   UNL     1      52.175   1.756  18.708  0.00  0.00    +0.000 HD
ATOM     23  H   UNL     1      53.373   1.172  19.638  0.00  0.00    +0.000 HD
ENDBRANCH  20  21
ENDBRANCH  19  20
ENDBRANCH  17  19
ENDBRANCH   6  15
BRANCH   5  24
ATOM     24  C   UNL     1      50.043   6.680  16.628  0.00  0.00    +0.000 C 
BRANCH  24  25
ATOM     25  N   UNL     1      50.995   6.633  15.520  0.00  0.00    +0.000 NA
ATOM     26  H   UNL     1      50.896   7.496  14.981  0.00  0.00    +0.000 HD
ATOM     27  H   UNL     1      50.670   5.912  14.872  0.00  0.00    +0.000 HD
ENDBRANCH  24  25
ENDBRANCH   5  24
TORSDOF 7
ENDMDL
