MODEL 1
REMARK VINA RESULT:    -8.412      0.000      0.000
REMARK INTER + INTRA:         -11.070
REMARK INTER:                 -10.871
REMARK INTRA:                  -0.199
REMARK UNBOUND:                -0.199
REMARK  Name = 
REMARK  5 active torsions:
REMARK  status: ('A' for Active; 'I' for Inactive)
REMARK    1  A    between atoms: C_2  and  C_3
REMARK    2  A    between atoms: C_6  and  N_7
REMARK    3  A    between atoms: N_7  and  C_8
REMARK    4  A    between atoms: C_8  and  C_9
REMARK    5  A    between atoms: C_13  and  C_14
REMARK                            x       y       z     vdW  Elec       q    Type
REMARK                         _______ _______ _______ _____ _____    ______ ____
ROOT
ATOM      1  C   UNL     1      44.082   4.819  11.437  0.00  0.00    +0.000 C 
ATOM      2  C   UNL     1      43.402   3.757  12.300  0.00  0.00    +0.000 C 
ATOM      3  C   UNL     1      42.870   5.150  12.288  0.00  0.00    +0.000 C 
ENDROOT
BRANCH   1   4
ATOM      4  C   UNL     1      45.425   5.351  11.937  0.00  0.00    +0.000 A 
ATOM      5  C   UNL     1      46.094   6.373  11.249  0.00  0.00    +0.000 A 
ATOM      6  C   UNL     1      47.198   7.012  11.805  0.00  0.00    +0.000 A 
ATOM      7  C   UNL     1      47.675   6.619  13.055  0.00  0.00    +0.000 A 
ATOM      8  C   UNL     1      47.091   5.554  13.759  0.00  0.00    +0.000 A 
ATOM      9  C   UNL     1      45.975   4.929  13.167  0.00  0.00    +0.000 A 
BRANCH   8  10
ATOM     10  C   UNL     1      47.605   5.131  15.083  0.00  0.00    +0.000 A 
ATOM     11  C   UNL     1      48.501   5.928  15.811  0.00  0.00    +0.000 A 
ATOM     12  C   UNL     1      48.970   5.484  17.040  0.00  0.00    +0.000 A 
ATOM     13  N   UNL     1      48.606   4.318  17.605  0.00  0.00    +0.000 NA
ATOM     14  C   UNL     1      47.739   3.559  16.906  0.00  0.00    +0.000 A 
ATOM     15  C   UNL     1      47.224   3.914  15.667  0.00  0.00    +0.000 A 
ENDBRANCH   8  10
ENDBRANCH   1   4
BRANCH   1  16
ATOM     16  N   UNL     1      43.986   4.589   9.999  0.00  0.00    +0.000 N 
ATOM     17  H   UNL     1      43.115   4.770   9.514  0.00  0.00    +0.000 HD
BRANCH  16  21
ATOM     18  C   UNL     1      46.623   2.624   7.544  0.00  0.00    +0.000 A 
ATOM     19  C   UNL     1      46.394   3.986   7.461  0.00  0.00    +0.000 A 
ATOM     20  N   UNL     1      45.508   4.627   8.267  0.00  0.00    +0.000 NA
ATOM     21  C   UNL     1      44.842   3.875   9.175  0.00  0.00    +0.000 A 
ATOM     22  C   UNL     1      45.084   2.505   9.245  0.00  0.00    +0.000 A 
ATOM     23  N   UNL     1      45.968   1.847   8.439  0.00  0.00    +0.000 NA
BRANCH  18  25
ATOM     24  N   UNL     1      48.389   1.532   5.985  0.00  0.00    +0.000 NA
ATOM     25  C   UNL     1      47.583   1.995   6.681  0.00  0.00    +0.000 C 
ENDBRANCH  18  25
ENDBRANCH  16  21
ENDBRANCH   1  16
TORSDOF 5
ENDMDL
MODEL 2
REMARK VINA RESULT:    -8.399      2.267      3.553
REMARK INTER + INTRA:         -11.053
REMARK INTER:                 -10.184
REMARK INTRA:                  -0.869
REMARK UNBOUND:                -0.199
REMARK  Name = 
REMARK  5 active torsions:
REMARK  status: ('A' for Active; 'I' for Inactive)
REMARK    1  A    between atoms: C_2  and  C_3
REMARK    2  A    between atoms: C_6  and  N_7
REMARK    3  A    between atoms: N_7  and  C_8
REMARK    4  A    between atoms: C_8  and  C_9
REMARK    5  A    between atoms: C_13  and  C_14
REMARK                            x       y       z     vdW  Elec       q    Type
REMARK                         _______ _______ _______ _____ _____    ______ ____
ROOT
ATOM      1  C   UNL     1      43.866   4.964  11.292  0.00  0.00    +0.000 C 
ATOM      2  C   UNL     1      42.533   5.190  12.006  0.00  0.00    +0.000 C 
ATOM      3  C   UNL     1      43.015   6.187  11.007  0.00  0.00    +0.000 C 
ENDROOT
BRANCH   1   4
ATOM      4  C   UNL     1      45.131   5.198  12.115  0.00  0.00    +0.000 A 
ATOM      5  C   UNL     1      45.568   4.246  13.048  0.00  0.00    +0.000 A 
ATOM      6  C   UNL     1      46.823   4.342  13.642  0.00  0.00    +0.000 A 
ATOM      7  C   UNL     1      47.659   5.415  13.335  0.00  0.00    +0.000 A 
ATOM      8  C   UNL     1      47.248   6.437  12.464  0.00  0.00    +0.000 A 
ATOM      9  C   UNL     1      45.972   6.308  11.881  0.00  0.00    +0.000 A 
BRANCH   8  10
ATOM     10  C   UNL     1      48.134   7.582  12.146  0.00  0.00    +0.000 A 
ATOM     11  C   UNL     1      49.507   7.407  11.923  0.00  0.00    +0.000 A 
ATOM     12  C   UNL     1      50.302   8.510  11.644  0.00  0.00    +0.000 A 
ATOM     13  N   UNL     1      49.834   9.769  11.557  0.00  0.00    +0.000 NA
ATOM     14  C   UNL     1      48.513   9.932  11.764  0.00  0.00    +0.000 A 
ATOM     15  C   UNL     1      47.641   8.892  12.057  0.00  0.00    +0.000 A 
ENDBRANCH   8  10
ENDBRANCH   1   4
BRANCH   1  16
ATOM     16  N   UNL     1      43.892   3.807  10.403  0.00  0.00    +0.000 N 
ATOM     17  H   UNL     1      43.295   3.009  10.591  0.00  0.00    +0.000 HD
BRANCH  16  21
ATOM     18  C   UNL     1      46.597   2.652   7.541  0.00  0.00    +0.000 A 
ATOM     19  C   UNL     1      45.990   1.756   8.404  0.00  0.00    +0.000 A 
ATOM     20  N   UNL     1      45.107   2.148   9.359  0.00  0.00    +0.000 NA
ATOM     21  C   UNL     1      44.833   3.471   9.441  0.00  0.00    +0.000 A 
ATOM     22  C   UNL     1      45.452   4.359   8.566  0.00  0.00    +0.000 A 
ATOM     23  N   UNL     1      46.345   3.980   7.605  0.00  0.00    +0.000 NA
BRANCH  18  25
ATOM     24  N   UNL     1      48.263   1.769   5.756  0.00  0.00    +0.000 NA
ATOM     25  C   UNL     1      47.511   2.186   6.536  0.00  0.00    +0.000 C 
ENDBRANCH  18  25
ENDBRANCH  16  21
ENDBRANCH   1  16
TORSDOF 5
ENDMDL
MODEL 3
REMARK VINA RESULT:    -7.499      2.330      3.039
REMARK INTER + INTRA:          -9.890
REMARK INTER:                  -9.583
REMARK INTRA:                  -0.307
REMARK UNBOUND:                -0.199
REMARK  Name = 
REMARK  5 active torsions:
REMARK  status: ('A' for Active; 'I' for Inactive)
REMARK    1  A    between atoms: C_2  and  C_3
REMARK    2  A    between atoms: C_6  and  N_7
REMARK    3  A    between atoms: N_7  and  C_8
REMARK    4  A    between atoms: C_8  and  C_9
REMARK    5  A    between atoms: C_13  and  C_14
REMARK                            x       y       z     vdW  Elec       q    Type
REMARK                         _______ _______ _______ _____ _____    ______ ____
ROOT
ATOM      1  C   UNL     1      44.380   4.711  11.600  0.00  0.00    +0.000 C 
ATOM      2  C   UNL     1      44.917   3.730  12.642  0.00  0.00    +0.000 C 
ATOM      3  C   UNL     1      43.573   4.346  12.832  0.00  0.00    +0.000 C 
ENDROOT
BRANCH   1   4
ATOM      4  C   UNL     1      45.002   6.106  11.589  0.00  0.00    +0.000 A 
ATOM      5  C   UNL     1      44.210   7.245  11.386  0.00  0.00    +0.000 A 
ATOM      6  C   UNL     1      44.719   8.524  11.589  0.00  0.00    +0.000 A 
ATOM      7  C   UNL     1      46.050   8.691  11.971  0.00  0.00    +0.000 A 
ATOM      8  C   UNL     1      46.912   7.593  12.120  0.00  0.00    +0.000 A 
ATOM      9  C   UNL     1      46.362   6.313  11.907  0.00  0.00    +0.000 A 
BRANCH   8  10
ATOM     10  C   UNL     1      48.328   7.773  12.517  0.00  0.00    +0.000 A 
ATOM     11  C   UNL     1      49.299   8.198  11.599  0.00  0.00    +0.000 A 
ATOM     12  C   UNL     1      50.617   8.337  12.011  0.00  0.00    +0.000 A 
ATOM     13  N   UNL     1      51.040   8.101  13.267  0.00  0.00    +0.000 NA
ATOM     14  C   UNL     1      50.102   7.702  14.148  0.00  0.00    +0.000 A 
ATOM     15  C   UNL     1      48.763   7.525  13.827  0.00  0.00    +0.000 A 
ENDBRANCH   8  10
ENDBRANCH   1   4
BRANCH   1  16
ATOM     16  N   UNL     1      44.114   4.124  10.291  0.00  0.00    +0.000 N 
ATOM     17  H   UNL     1      43.183   3.791  10.064  0.00  0.00    +0.000 HD
BRANCH  16  21
ATOM     18  C   UNL     1      46.697   2.629   7.474  0.00  0.00    +0.000 A 
ATOM     19  C   UNL     1      46.033   1.826   8.384  0.00  0.00    +0.000 A 
ATOM     20  N   UNL     1      45.191   2.329   9.324  0.00  0.00    +0.000 NA
ATOM     21  C   UNL     1      45.018   3.672   9.341  0.00  0.00    +0.000 A 
ATOM     22  C   UNL     1      45.693   4.466   8.419  0.00  0.00    +0.000 A 
ATOM     23  N   UNL     1      46.546   3.974   7.473  0.00  0.00    +0.000 NA
BRANCH  18  25
ATOM     24  N   UNL     1      48.295   1.619   5.694  0.00  0.00    +0.000 NA
ATOM     25  C   UNL     1      47.563   2.047   6.488  0.00  0.00    +0.000 C 
ENDBRANCH  18  25
ENDBRANCH  16  21
ENDBRANCH   1  16
TORSDOF 5
ENDMDL
MODEL 4
REMARK VINA RESULT:    -7.457      1.754      7.411
REMARK INTER + INTRA:          -9.836
REMARK INTER:                  -9.139
REMARK INTRA:                  -0.697
REMARK UNBOUND:                -0.199
REMARK  Name = 
REMARK  5 active torsions:
REMARK  status: ('A' for Active; 'I' for Inactive)
REMARK    1  A    between atoms: C_2  and  C_3
REMARK    2  A    between atoms: C_6  and  N_7
REMARK    3  A    between atoms: N_7  and  C_8
REMARK    4  A    between atoms: C_8  and  C_9
REMARK    5  A    between atoms: C_13  and  C_14
REMARK                            x       y       z     vdW  Elec       q    Type
REMARK                         _______ _______ _______ _____ _____    ______ ____
ROOT
ATOM      1  C   UNL     1      46.251   7.074  12.436  0.00  0.00    +0.000 C 
ATOM      2  C   UNL     1      46.434   8.450  11.796  0.00  0.00    +0.000 C 
ATOM      3  C   UNL     1      45.583   8.308  13.012  0.00  0.00    +0.000 C 
ENDROOT
BRANCH   1   4
ATOM      4  C   UNL     1      45.339   6.093  11.701  0.00  0.00    +0.000 A 
ATOM      5  C   UNL     1      43.946   6.163  11.841  0.00  0.00    +0.000 A 
ATOM      6  C   UNL     1      43.101   5.427  11.018  0.00  0.00    +0.000 A 
ATOM      7  C   UNL     1      43.637   4.575  10.052  0.00  0.00    +0.000 A 
ATOM      8  C   UNL     1      45.023   4.408   9.913  0.00  0.00    +0.000 A 
ATOM      9  C   UNL     1      45.850   5.169  10.763  0.00  0.00    +0.000 A 
BRANCH   8  10
ATOM     10  C   UNL     1      45.591   3.495   8.892  0.00  0.00    +0.000 A 
ATOM     11  C   UNL     1      45.538   2.102   9.044  0.00  0.00    +0.000 A 
ATOM     12  C   UNL     1      46.097   1.285   8.071  0.00  0.00    +0.000 A 
ATOM     13  N   UNL     1      46.691   1.747   6.954  0.00  0.00    +0.000 NA
ATOM     14  C   UNL     1      46.731   3.086   6.808  0.00  0.00    +0.000 A 
ATOM     15  C   UNL     1      46.208   3.981   7.731  0.00  0.00    +0.000 A 
ENDBRANCH   8  10
ENDBRANCH   1   4
BRANCH   1  16
ATOM     16  N   UNL     1      47.465   6.504  13.012  0.00  0.00    +0.000 N 
ATOM     17  H   UNL     1      48.317   6.465  12.464  0.00  0.00    +0.000 HD
BRANCH  16  21
ATOM     18  C   UNL     1      47.908   4.327  16.463  0.00  0.00    +0.000 A 
ATOM     19  C   UNL     1      48.598   5.503  16.224  0.00  0.00    +0.000 A 
ATOM     20  N   UNL     1      48.457   6.210  15.072  0.00  0.00    +0.000 NA
ATOM     21  C   UNL     1      47.602   5.717  14.146  0.00  0.00    +0.000 A 
ATOM     22  C   UNL     1      46.916   4.533  14.402  0.00  0.00    +0.000 A 
ATOM     23  N   UNL     1      47.051   3.810  15.552  0.00  0.00    +0.000 NA
BRANCH  18  25
ATOM     24  N   UNL     1      48.226   3.105  18.732  0.00  0.00    +0.000 NA
ATOM     25  C   UNL     1      48.078   3.625  17.704  0.00  0.00    +0.000 C 
ENDBRANCH  18  25
ENDBRANCH  16  21
ENDBRANCH   1  16
TORSDOF 5
ENDMDL
MODEL 5
REMARK VINA RESULT:    -7.134      1.985      2.740
REMARK INTER + INTRA:          -9.419
REMARK INTER:                  -8.793
REMARK INTRA:                  -0.626
REMARK UNBOUND:                -0.199
REMARK  Name = 
REMARK  5 active torsions:
REMARK  status: ('A' for Active; 'I' for Inactive)
REMARK    1  A    between atoms: C_2  and  C_3
REMARK    2  A    between atoms: C_6  and  N_7
REMARK    3  A    between atoms: N_7  and  C_8
REMARK    4  A    between atoms: C_8  and  C_9
REMARK    5  A    between atoms: C_13  and  C_14
REMARK                            x       y       z     vdW  Elec       q    Type
REMARK                         _______ _______ _______ _____ _____    ______ ____
ROOT
ATOM      1  C   UNL     1      43.927   5.362  11.902  0.00  0.00    +0.000 C 
ATOM      2  C   UNL     1      42.958   5.074  13.048  0.00  0.00    +0.000 C 
ATOM      3  C   UNL     1      42.429   5.536  11.732  0.00  0.00    +0.000 C 
ENDROOT
BRANCH   1   4
ATOM      4  C   UNL     1      44.749   6.646  12.007  0.00  0.00    +0.000 A 
ATOM      5  C   UNL     1      44.304   7.835  11.410  0.00  0.00    +0.000 A 
ATOM      6  C   UNL     1      44.923   9.051  11.678  0.00  0.00    +0.000 A 
ATOM      7  C   UNL     1      46.026   9.099  12.530  0.00  0.00    +0.000 A 
ATOM      8  C   UNL     1      46.561   7.933  13.100  0.00  0.00    +0.000 A 
ATOM      9  C   UNL     1      45.910   6.718  12.807  0.00  0.00    +0.000 A 
BRANCH   8  10
ATOM     10  C   UNL     1      47.740   7.984  13.997  0.00  0.00    +0.000 A 
ATOM     11  C   UNL     1      48.341   6.816  14.486  0.00  0.00    +0.000 A 
ATOM     12  C   UNL     1      49.433   6.911  15.337  0.00  0.00    +0.000 A 
ATOM     13  N   UNL     1      49.981   8.077  15.726  0.00  0.00    +0.000 NA
ATOM     14  C   UNL     1      49.407   9.198  15.246  0.00  0.00    +0.000 A 
ATOM     15  C   UNL     1      48.307   9.202  14.400  0.00  0.00    +0.000 A 
ENDBRANCH   8  10
ENDBRANCH   1   4
BRANCH   1  16
ATOM     16  N   UNL     1      44.639   4.193  11.397  0.00  0.00    +0.000 N 
ATOM     17  H   UNL     1      45.014   3.508  12.044  0.00  0.00    +0.000 HD
BRANCH  16  21
ATOM     18  C   UNL     1      46.062   3.393   7.631  0.00  0.00    +0.000 A 
ATOM     19  C   UNL     1      45.597   2.406   8.483  0.00  0.00    +0.000 A 
ATOM     20  N   UNL     1      45.142   2.676   9.734  0.00  0.00    +0.000 NA
ATOM     21  C   UNL     1      45.157   3.971  10.129  0.00  0.00    +0.000 A 
ATOM     22  C   UNL     1      45.627   4.952   9.260  0.00  0.00    +0.000 A 
ATOM     23  N   UNL     1      46.092   4.694   8.003  0.00  0.00    +0.000 NA
BRANCH  18  25
ATOM     24  N   UNL     1      46.928   2.814   5.253  0.00  0.00    +0.000 NA
ATOM     25  C   UNL     1      46.516   3.058   6.311  0.00  0.00    +0.000 C 
ENDBRANCH  18  25
ENDBRANCH  16  21
ENDBRANCH   1  16
TORSDOF 5
ENDMDL
MODEL 6
REMARK VINA RESULT:    -6.790      2.367      7.421
REMARK INTER + INTRA:          -8.974
REMARK INTER:                  -8.385
REMARK INTRA:                  -0.589
REMARK UNBOUND:                -0.199
REMARK  Name = 
REMARK  5 active torsions:
REMARK  status: ('A' for Active; 'I' for Inactive)
REMARK    1  A    between atoms: C_2  and  C_3
REMARK    2  A    between atoms: C_6  and  N_7
REMARK    3  A    between atoms: N_7  and  C_8
REMARK    4  A    between atoms: C_8  and  C_9
REMARK    5  A    between atoms: C_13  and  C_14
REMARK                            x       y       z     vdW  Elec       q    Type
REMARK                         _______ _______ _______ _____ _____    ______ ____
ROOT
ATOM      1  C   UNL     1      45.390   6.433  11.573  0.00  0.00    +0.000 C 
ATOM      2  C   UNL     1      44.350   7.515  11.286  0.00  0.00    +0.000 C 
ATOM      3  C   UNL     1      44.499   6.984  12.671  0.00  0.00    +0.000 C 
ENDROOT
BRANCH   1   4
ATOM      4  C   UNL     1      45.065   5.023  11.082  0.00  0.00    +0.000 A 
ATOM      5  C   UNL     1      44.007   4.294  11.641  0.00  0.00    +0.000 A 
ATOM      6  C   UNL     1      43.563   3.109  11.063  0.00  0.00    +0.000 A 
ATOM      7  C   UNL     1      44.194   2.610   9.924  0.00  0.00    +0.000 A 
ATOM      8  C   UNL     1      45.305   3.258   9.360  0.00  0.00    +0.000 A 
ATOM      9  C   UNL     1      45.727   4.456   9.971  0.00  0.00    +0.000 A 
BRANCH   8  10
ATOM     10  C   UNL     1      45.981   2.722   8.155  0.00  0.00    +0.000 A 
ATOM     11  C   UNL     1      46.190   3.515   7.017  0.00  0.00    +0.000 A 
ATOM     12  C   UNL     1      46.813   2.966   5.905  0.00  0.00    +0.000 A 
ATOM     13  N   UNL     1      47.256   1.696   5.843  0.00  0.00    +0.000 NA
ATOM     14  C   UNL     1      47.062   0.941   6.942  0.00  0.00    +0.000 A 
ATOM     15  C   UNL     1      46.440   1.398   8.096  0.00  0.00    +0.000 A 
ENDBRANCH   8  10
ENDBRANCH   1   4
BRANCH   1  16
ATOM     16  N   UNL     1      46.776   6.860  11.405  0.00  0.00    +0.000 N 
ATOM     17  H   UNL     1      47.184   6.903  10.478  0.00  0.00    +0.000 HD
BRANCH  16  21
ATOM     18  C   UNL     1      49.734   7.361  14.205  0.00  0.00    +0.000 A 
ATOM     19  C   UNL     1      49.618   8.165  13.085  0.00  0.00    +0.000 A 
ATOM     20  N   UNL     1      48.645   7.984  12.154  0.00  0.00    +0.000 NA
ATOM     21  C   UNL     1      47.773   6.969  12.362  0.00  0.00    +0.000 A 
ATOM     22  C   UNL     1      47.904   6.169  13.494  0.00  0.00    +0.000 A 
ATOM     23  N   UNL     1      48.880   6.337  14.435  0.00  0.00    +0.000 NA
BRANCH  18  25
ATOM     24  N   UNL     1      51.575   7.782  15.987  0.00  0.00    +0.000 NA
ATOM     25  C   UNL     1      50.770   7.605  15.169  0.00  0.00    +0.000 C 
ENDBRANCH  18  25
ENDBRANCH  16  21
ENDBRANCH   1  16
TORSDOF 5
ENDMDL
MODEL 7
REMARK VINA RESULT:    -6.658      2.147      8.049
REMARK INTER + INTRA:          -8.803
REMARK INTER:                  -8.027
REMARK INTRA:                  -0.776
REMARK UNBOUND:                -0.199
REMARK  Name = 
REMARK  5 active torsions:
REMARK  status: ('A' for Active; 'I' for Inactive)
REMARK    1  A    between atoms: C_2  and  C_3
REMARK    2  A    between atoms: C_6  and  N_7
REMARK    3  A    between atoms: N_7  and  C_8
REMARK    4  A    between atoms: C_8  and  C_9
REMARK    5  A    between atoms: C_13  and  C_14
REMARK                            x       y       z     vdW  Elec       q    Type
REMARK                         _______ _______ _______ _____ _____    ______ ____
ROOT
ATOM      1  C   UNL     1      48.900   7.878  12.786  0.00  0.00    +0.000 C 
ATOM      2  C   UNL     1      49.834   8.157  11.608  0.00  0.00    +0.000 C 
ATOM      3  C   UNL     1      49.446   9.270  12.522  0.00  0.00    +0.000 C 
ENDROOT
BRANCH   1   4
ATOM      4  C   UNL     1      47.426   7.656  12.452  0.00  0.00    +0.000 A 
ATOM      5  C   UNL     1      46.472   8.651  12.711  0.00  0.00    +0.000 A 
ATOM      6  C   UNL     1      45.175   8.553  12.218  0.00  0.00    +0.000 A 
ATOM      7  C   UNL     1      44.795   7.434  11.477  0.00  0.00    +0.000 A 
ATOM      8  C   UNL     1      45.684   6.373  11.246  0.00  0.00    +0.000 A 
ATOM      9  C   UNL     1      46.989   6.506  11.760  0.00  0.00    +0.000 A 
BRANCH   8  10
ATOM     10  C   UNL     1      45.275   5.181  10.466  0.00  0.00    +0.000 A 
ATOM     11  C   UNL     1      44.509   4.156  11.041  0.00  0.00    +0.000 A 
ATOM     12  C   UNL     1      44.162   3.049  10.278  0.00  0.00    +0.000 A 
ATOM     13  N   UNL     1      44.506   2.891   8.986  0.00  0.00    +0.000 NA
ATOM     14  C   UNL     1      45.234   3.882   8.435  0.00  0.00    +0.000 A 
ATOM     15  C   UNL     1      45.636   5.020   9.121  0.00  0.00    +0.000 A 
ENDBRANCH   8  10
ENDBRANCH   1   4
BRANCH   1  16
ATOM     16  N   UNL     1      49.458   7.003  13.812  0.00  0.00    +0.000 N 
ATOM     17  H   UNL     1      50.085   6.251  13.551  0.00  0.00    +0.000 HD
BRANCH  16  21
ATOM     18  C   UNL     1      48.314   6.348  17.699  0.00  0.00    +0.000 A 
ATOM     19  C   UNL     1      48.313   5.351  16.738  0.00  0.00    +0.000 A 
ATOM     20  N   UNL     1      48.678   5.579  15.450  0.00  0.00    +0.000 NA
ATOM     21  C   UNL     1      49.053   6.840  15.128  0.00  0.00    +0.000 A 
ATOM     22  C   UNL     1      49.048   7.831  16.106  0.00  0.00    +0.000 A 
ATOM     23  N   UNL     1      48.679   7.617  17.403  0.00  0.00    +0.000 NA
BRANCH  18  25
ATOM     24  N   UNL     1      47.644   5.863  20.160  0.00  0.00    +0.000 NA
ATOM     25  C   UNL     1      47.937   6.052  19.052  0.00  0.00    +0.000 C 
ENDBRANCH  18  25
ENDBRANCH  16  21
ENDBRANCH   1  16
TORSDOF 5
ENDMDL
MODEL 8
REMARK VINA RESULT:    -6.397      2.765      4.689
REMARK INTER + INTRA:          -8.466
REMARK INTER:                  -7.810
REMARK INTRA:                  -0.656
REMARK UNBOUND:                -0.199
REMARK  Name = 
REMARK  5 active torsions:
REMARK  status: ('A' for Active; 'I' for Inactive)
REMARK    1  A    between atoms: C_2  and  C_3
REMARK    2  A    between atoms: C_6  and  N_7
REMARK    3  A    between atoms: N_7  and  C_8
REMARK    4  A    between atoms: C_8  and  C_9
REMARK    5  A    between atoms: C_13  and  C_14
REMARK                            x       y       z     vdW  Elec       q    Type
REMARK                         _______ _______ _______ _____ _____    ______ ____
ROOT
ATOM      1  C   UNL     1      48.063   8.189  12.495  0.00  0.00    +0.000 C 
ATOM      2  C   UNL     1      48.765   9.281  11.689  0.00  0.00    +0.000 C 
ATOM      3  C   UNL     1      49.177   7.858  11.519  0.00  0.00    +0.000 C 
ENDROOT
BRANCH   1   4
ATOM      4  C   UNL     1      48.416   8.099  13.979  0.00  0.00    +0.000 A 
ATOM      5  C   UNL     1      48.409   9.243  14.790  0.00  0.00    +0.000 A 
ATOM      6  C   UNL     1      48.513   9.146  16.174  0.00  0.00    +0.000 A 
ATOM      7  C   UNL     1      48.658   7.897  16.776  0.00  0.00    +0.000 A 
ATOM      8  C   UNL     1      48.744   6.722  16.012  0.00  0.00    +0.000 A 
ATOM      9  C   UNL     1      48.635   6.857  14.613  0.00  0.00    +0.000 A 
BRANCH   8  10
ATOM     10  C   UNL     1      48.908   5.396  16.653  0.00  0.00    +0.000 A 
ATOM     11  C   UNL     1      50.070   5.064  17.365  0.00  0.00    +0.000 A 
ATOM     12  C   UNL     1      50.188   3.805  17.936  0.00  0.00    +0.000 A 
ATOM     13  N   UNL     1      49.234   2.857  17.865  0.00  0.00    +0.000 NA
ATOM     14  C   UNL     1      48.116   3.183  17.188  0.00  0.00    +0.000 A 
ATOM     15  C   UNL     1      47.912   4.412  16.576  0.00  0.00    +0.000 A 
ENDBRANCH   8  10
ENDBRANCH   1   4
BRANCH   1  16
ATOM     16  N   UNL     1      46.654   7.998  12.165  0.00  0.00    +0.000 N 
ATOM     17  H   UNL     1      46.002   8.768  12.261  0.00  0.00    +0.000 HD
BRANCH  16  21
ATOM     18  C   UNL     1      44.467   4.549  11.755  0.00  0.00    +0.000 A 
ATOM     19  C   UNL     1      44.491   5.287  12.926  0.00  0.00    +0.000 A 
ATOM     20  N   UNL     1      45.230   6.420  13.059  0.00  0.00    +0.000 NA
ATOM     21  C   UNL     1      45.957   6.812  11.986  0.00  0.00    +0.000 A 
ATOM     22  C   UNL     1      45.922   6.058  10.816  0.00  0.00    +0.000 A 
ATOM     23  N   UNL     1      45.188   4.916  10.670  0.00  0.00    +0.000 NA
BRANCH  18  25
ATOM     24  N   UNL     1      43.025   2.401  11.534  0.00  0.00    +0.000 NA
ATOM     25  C   UNL     1      43.656   3.368  11.659  0.00  0.00    +0.000 C 
ENDBRANCH  18  25
ENDBRANCH  16  21
ENDBRANCH   1  16
TORSDOF 5
ENDMDL
MODEL 9
REMARK VINA RESULT:    -5.682      2.738      5.630
REMARK INTER + INTRA:          -7.543
REMARK INTER:                  -6.945
REMARK INTRA:                  -0.598
REMARK UNBOUND:                -0.199
REMARK  Name = 
REMARK  5 active torsions:
REMARK  status: ('A' for Active; 'I' for Inactive)
REMARK    1  A    between atoms: C_2  and  C_3
REMARK    2  A    between atoms: C_6  and  N_7
REMARK    3  A    between atoms: N_7  and  C_8
REMARK    4  A    between atoms: C_8  and  C_9
REMARK    5  A    between atoms: C_13  and  C_14
REMARK                            x       y       z     vdW  Elec       q    Type
REMARK                         _______ _______ _______ _____ _____    ______ ____
ROOT
ATOM      1  C   UNL     1      48.449   8.956  14.872  0.00  0.00    +0.000 C 
ATOM      2  C   UNL     1      49.093  10.341  14.840  0.00  0.00    +0.000 C 
ATOM      3  C   UNL     1      49.711   9.222  14.072  0.00  0.00    +0.000 C 
ENDROOT
BRANCH   1   4
ATOM      4  C   UNL     1      48.622   8.150  16.158  0.00  0.00    +0.000 A 
ATOM      5  C   UNL     1      48.230   8.680  17.396  0.00  0.00    +0.000 A 
ATOM      6  C   UNL     1      48.178   7.884  18.536  0.00  0.00    +0.000 A 
ATOM      7  C   UNL     1      48.549   6.542  18.467  0.00  0.00    +0.000 A 
ATOM      8  C   UNL     1      49.018   5.973  17.273  0.00  0.00    +0.000 A 
ATOM      9  C   UNL     1      49.058   6.807  16.137  0.00  0.00    +0.000 A 
BRANCH   8  10
ATOM     10  C   UNL     1      49.422   4.549  17.203  0.00  0.00    +0.000 A 
ATOM     11  C   UNL     1      50.705   4.131  17.586  0.00  0.00    +0.000 A 
ATOM     12  C   UNL     1      51.045   2.788  17.489  0.00  0.00    +0.000 A 
ATOM     13  N   UNL     1      50.204   1.831  17.056  0.00  0.00    +0.000 NA
ATOM     14  C   UNL     1      48.970   2.235  16.698  0.00  0.00    +0.000 A 
ATOM     15  C   UNL     1      48.542   3.555  16.751  0.00  0.00    +0.000 A 
ENDBRANCH   8  10
ENDBRANCH   1   4
BRANCH   1  16
ATOM     16  N   UNL     1      47.132   8.882  14.248  0.00  0.00    +0.000 N 
ATOM     17  H   UNL     1      46.370   9.447  14.604  0.00  0.00    +0.000 HD
BRANCH  16  21
ATOM     18  C   UNL     1      45.585   6.184  11.569  0.00  0.00    +0.000 A 
ATOM     19  C   UNL     1      44.950   7.371  11.891  0.00  0.00    +0.000 A 
ATOM     20  N   UNL     1      45.460   8.252  12.790  0.00  0.00    +0.000 NA
ATOM     21  C   UNL     1      46.637   7.925  13.374  0.00  0.00    +0.000 A 
ATOM     22  C   UNL     1      47.264   6.727  13.040  0.00  0.00    +0.000 A 
ATOM     23  N   UNL     1      46.760   5.831  12.142  0.00  0.00    +0.000 NA
BRANCH  18  25
ATOM     24  N   UNL     1      44.585   4.594   9.777  0.00  0.00    +0.000 NA
ATOM     25  C   UNL     1      45.013   5.294  10.599  0.00  0.00    +0.000 C 
ENDBRANCH  18  25
ENDBRANCH  16  21
ENDBRANCH   1  16
TORSDOF 5
ENDMDL
