MODEL 1
REMARK VINA RESULT:    -7.982      0.000      0.000
REMARK INTER + INTRA:         -13.044
REMARK INTER:                 -11.716
REMARK INTRA:                  -1.328
REMARK UNBOUND:                -1.328
REMARK  Name = 
REMARK  9 active torsions:
REMARK  status: ('A' for Active; 'I' for Inactive)
REMARK    1  A    between atoms: C_1  and  O_2
REMARK    2  A    between atoms: O_2  and  C_3
REMARK    3  A    between atoms: C_10  and  C_11
REMARK    4  A    between atoms: N_13  and  C_14
REMARK    5  A    between atoms: C_14  and  C_15
REMARK    6  A    between atoms: C_18  and  C_19
REMARK    7  A    between atoms: C_19  and  N_20
REMARK    8  A    between atoms: N_20  and  C_21
REMARK    9  A    between atoms: C_21  and  C_22
REMARK                            x       y       z     vdW  Elec       q    Type
REMARK                         _______ _______ _______ _____ _____    ______ ____
ROOT
ATOM      1  C   UNL     1      46.979   8.021  13.291  0.00  0.00    +0.000 C 
ENDROOT
BRANCH   1   2
ATOM      2  C   UNL     1      46.104   7.101  12.477  0.00  0.00    +0.000 A 
ATOM      3  C   UNL     1      44.848   6.700  12.952  0.00  0.00    +0.000 A 
ATOM      4  C   UNL     1      44.028   5.866  12.183  0.00  0.00    +0.000 A 
ATOM      5  C   UNL     1      44.445   5.409  10.924  0.00  0.00    +0.000 A 
ATOM      6  C   UNL     1      45.722   5.771  10.472  0.00  0.00    +0.000 A 
ATOM      7  C   UNL     1      46.543   6.604  11.242  0.00  0.00    +0.000 A 
BRANCH   5   8
ATOM      8  C   UNL     1      43.540   4.537  10.079  0.00  0.00    +0.000 C 
BRANCH   8   9
ATOM      9  N   UNL     1      44.160   4.217   8.797  0.00  0.00    +0.000 NA
ATOM     10  H   UNL     1      44.965   4.826   8.642  0.00  0.00    +0.000 HD
BRANCH   9  11
ATOM     11  C   UNL     1      44.643   2.824   8.762  0.00  0.00    +0.000 C 
BRANCH  11  12
ATOM     12  C   UNL     1      45.801   2.618   7.794  0.00  0.00    +0.000 A 
ATOM     13  N   UNL     1      46.034   3.588   6.882  0.00  0.00    +0.000 NA
ATOM     14  C   UNL     1      47.055   3.375   6.029  0.00  0.00    +0.000 A 
ATOM     15  C   UNL     1      47.848   2.253   6.058  0.00  0.00    +0.000 A 
ATOM     16  C   UNL     1      47.540   1.333   7.030  0.00  0.00    +0.000 A 
ATOM     17  N   UNL     1      46.533   1.489   7.910  0.00  0.00    +0.000 NA
ENDBRANCH  11  12
ENDBRANCH   9  11
ENDBRANCH   8   9
ENDBRANCH   5   8
ENDBRANCH   1   2
BRANCH   1  20
ATOM     18  C   UNL     1      48.718   6.845  14.585  0.00  0.00    +0.000 C 
ATOM     19  O   UNL     1      49.511   6.899  13.648  0.00  0.00    +0.000 OA
ATOM     20  N   UNL     1      47.458   7.366  14.481  0.00  0.00    +0.000 N 
ATOM     21  H   UNL     1      46.804   7.269  15.247  0.00  0.00    +0.000 HD
BRANCH  18  29
ATOM     22  C   UNL     1      47.370   4.272  16.430  0.00  0.00    +0.000 A 
ATOM     23  N   UNL     1      47.056   3.318  17.330  0.00  0.00    +0.000 NA
ATOM     24  C   UNL     1      47.822   3.212  18.420  0.00  0.00    +0.000 A 
ATOM     25  N   UNL     1      48.884   3.952  18.730  0.00  0.00    +0.000 NA
ATOM     26  C   UNL     1      49.164   4.881  17.802  0.00  0.00    +0.000 A 
ATOM     27  S   UNL     1      50.489   5.919  18.032  0.00  0.00    +0.000 S 
ATOM     28  C   UNL     1      50.185   6.716  16.559  0.00  0.00    +0.000 A 
ATOM     29  C   UNL     1      49.084   6.218  15.868  0.00  0.00    +0.000 A 
ATOM     30  C   UNL     1      48.477   5.120  16.618  0.00  0.00    +0.000 A 
BRANCH  22  32
ATOM     31  C   UNL     1      47.099   3.575  14.210  0.00  0.00    +0.000 C 
ATOM     32  O   UNL     1      46.601   4.361  15.290  0.00  0.00    +0.000 OA
ENDBRANCH  22  32
ENDBRANCH  18  29
ENDBRANCH   1  20
TORSDOF 8
ENDMDL
MODEL 2
REMARK VINA RESULT:    -7.785      1.524      1.673
REMARK INTER + INTRA:         -12.753
REMARK INTER:                 -11.644
REMARK INTRA:                  -1.109
REMARK UNBOUND:                -1.328
REMARK  Name = 
REMARK  9 active torsions:
REMARK  status: ('A' for Active; 'I' for Inactive)
REMARK    1  A    between atoms: C_1  and  O_2
REMARK    2  A    between atoms: O_2  and  C_3
REMARK    3  A    between atoms: C_10  and  C_11
REMARK    4  A    between atoms: N_13  and  C_14
REMARK    5  A    between atoms: C_14  and  C_15
REMARK    6  A    between atoms: C_18  and  C_19
REMARK    7  A    between atoms: C_19  and  N_20
REMARK    8  A    between atoms: N_20  and  C_21
REMARK    9  A    between atoms: C_21  and  C_22
REMARK                            x       y       z     vdW  Elec       q    Type
REMARK                         _______ _______ _______ _____ _____    ______ ____
ROOT
ATOM      1  C   UNL     1      47.883   7.148  13.179  0.00  0.00    +0.000 C 
ENDROOT
BRANCH   1   2
ATOM      2  C   UNL     1      46.808   6.234  12.652  0.00  0.00    +0.000 A 
ATOM      3  C   UNL     1      46.238   5.249  13.470  0.00  0.00    +0.000 A 
ATOM      4  C   UNL     1      45.222   4.418  12.984  0.00  0.00    +0.000 A 
ATOM      5  C   UNL     1      44.754   4.548  11.668  0.00  0.00    +0.000 A 
ATOM      6  C   UNL     1      45.359   5.500  10.836  0.00  0.00    +0.000 A 
ATOM      7  C   UNL     1      46.376   6.331  11.321  0.00  0.00    +0.000 A 
BRANCH   5   8
ATOM      8  C   UNL     1      43.629   3.672  11.158  0.00  0.00    +0.000 C 
BRANCH   8   9
ATOM      9  N   UNL     1      43.796   3.369   9.739  0.00  0.00    +0.000 NA
ATOM     10  H   UNL     1      44.361   4.095   9.296  0.00  0.00    +0.000 HD
BRANCH   9  11
ATOM     11  C   UNL     1      44.489   2.082   9.539  0.00  0.00    +0.000 C 
BRANCH  11  12
ATOM     12  C   UNL     1      45.589   2.154   8.487  0.00  0.00    +0.000 A 
ATOM     13  N   UNL     1      45.795   3.343   7.879  0.00  0.00    +0.000 NA
ATOM     14  C   UNL     1      46.764   3.376   6.943  0.00  0.00    +0.000 A 
ATOM     15  C   UNL     1      47.532   2.288   6.604  0.00  0.00    +0.000 A 
ATOM     16  C   UNL     1      47.255   1.130   7.290  0.00  0.00    +0.000 A 
ATOM     17  N   UNL     1      46.299   1.034   8.234  0.00  0.00    +0.000 NA
ENDBRANCH  11  12
ENDBRANCH   9  11
ENDBRANCH   8   9
ENDBRANCH   5   8
ENDBRANCH   1   2
BRANCH   1  20
ATOM     18  C   UNL     1      49.028   7.075  15.363  0.00  0.00    +0.000 C 
ATOM     19  O   UNL     1      50.126   6.942  14.830  0.00  0.00    +0.000 OA
ATOM     20  N   UNL     1      47.884   7.175  14.620  0.00  0.00    +0.000 N 
ATOM     21  H   UNL     1      46.984   7.235  15.078  0.00  0.00    +0.000 HD
BRANCH  18  29
ATOM     22  C   UNL     1      48.804   4.674  17.818  0.00  0.00    +0.000 A 
ATOM     23  N   UNL     1      48.701   3.956  18.955  0.00  0.00    +0.000 NA
ATOM     24  C   UNL     1      48.573   4.623  20.105  0.00  0.00    +0.000 A 
ATOM     25  N   UNL     1      48.534   5.943  20.268  0.00  0.00    +0.000 NA
ATOM     26  C   UNL     1      48.649   6.617  19.112  0.00  0.00    +0.000 A 
ATOM     27  S   UNL     1      48.620   8.315  19.127  0.00  0.00    +0.000 S 
ATOM     28  C   UNL     1      48.800   8.384  17.437  0.00  0.00    +0.000 A 
ATOM     29  C   UNL     1      48.886   7.136  16.829  0.00  0.00    +0.000 A 
ATOM     30  C   UNL     1      48.794   6.081  17.837  0.00  0.00    +0.000 A 
BRANCH  22  32
ATOM     31  C   UNL     1      47.843   3.189  16.283  0.00  0.00    +0.000 C 
ATOM     32  O   UNL     1      48.969   3.988  16.634  0.00  0.00    +0.000 OA
ENDBRANCH  22  32
ENDBRANCH  18  29
ENDBRANCH   1  20
TORSDOF 8
ENDMDL
MODEL 3
REMARK VINA RESULT:    -7.324      2.558      3.398
REMARK INTER + INTRA:         -12.078
REMARK INTER:                 -10.859
REMARK INTRA:                  -1.219
REMARK UNBOUND:                -1.328
REMARK  Name = 
REMARK  9 active torsions:
REMARK  status: ('A' for Active; 'I' for Inactive)
REMARK    1  A    between atoms: C_1  and  O_2
REMARK    2  A    between atoms: O_2  and  C_3
REMARK    3  A    between atoms: C_10  and  C_11
REMARK    4  A    between atoms: N_13  and  C_14
REMARK    5  A    between atoms: C_14  and  C_15
REMARK    6  A    between atoms: C_18  and  C_19
REMARK    7  A    between atoms: C_19  and  N_20
REMARK    8  A    between atoms: N_20  and  C_21
REMARK    9  A    between atoms: C_21  and  C_22
REMARK                            x       y       z     vdW  Elec       q    Type
REMARK                         _______ _______ _______ _____ _____    ______ ____
ROOT
ATOM      1  C   UNL     1      48.350   6.578  13.787  0.00  0.00    +0.000 C 
ENDROOT
BRANCH   1   2
ATOM      2  C   UNL     1      47.121   6.163  13.018  0.00  0.00    +0.000 A 
ATOM      3  C   UNL     1      46.836   6.721  11.765  0.00  0.00    +0.000 A 
ATOM      4  C   UNL     1      45.708   6.315  11.043  0.00  0.00    +0.000 A 
ATOM      5  C   UNL     1      44.835   5.345  11.559  0.00  0.00    +0.000 A 
ATOM      6  C   UNL     1      45.094   4.824  12.834  0.00  0.00    +0.000 A 
ATOM      7  C   UNL     1      46.222   5.231  13.557  0.00  0.00    +0.000 A 
BRANCH   5   8
ATOM      8  C   UNL     1      43.635   4.882  10.758  0.00  0.00    +0.000 C 
BRANCH   8   9
ATOM      9  N   UNL     1      44.039   4.357   9.457  0.00  0.00    +0.000 NA
ATOM     10  H   UNL     1      44.846   4.878   9.111  0.00  0.00    +0.000 HD
BRANCH   9  11
ATOM     11  C   UNL     1      44.431   2.937   9.543  0.00  0.00    +0.000 C 
BRANCH  11  12
ATOM     12  C   UNL     1      45.534   2.562   8.563  0.00  0.00    +0.000 A 
ATOM     13  N   UNL     1      46.072   3.553   7.817  0.00  0.00    +0.000 NA
ATOM     14  C   UNL     1      47.036   3.192   6.948  0.00  0.00    +0.000 A 
ATOM     15  C   UNL     1      47.486   1.901   6.804  0.00  0.00    +0.000 A 
ATOM     16  C   UNL     1      46.888   0.970   7.617  0.00  0.00    +0.000 A 
ATOM     17  N   UNL     1      45.919   1.269   8.505  0.00  0.00    +0.000 NA
ENDBRANCH  11  12
ENDBRANCH   9  11
ENDBRANCH   8   9
ENDBRANCH   5   8
ENDBRANCH   1   2
BRANCH   1  20
ATOM     18  C   UNL     1      48.682   6.320  16.217  0.00  0.00    +0.000 C 
ATOM     19  O   UNL     1      49.581   5.500  16.049  0.00  0.00    +0.000 OA
ATOM     20  N   UNL     1      48.028   6.885  15.157  0.00  0.00    +0.000 N 
ATOM     21  H   UNL     1      47.257   7.521  15.317  0.00  0.00    +0.000 HD
BRANCH  18  29
ATOM     22  C   UNL     1      47.960   9.373  17.631  0.00  0.00    +0.000 A 
ATOM     23  N   UNL     1      47.626  10.416  18.418  0.00  0.00    +0.000 NA
ATOM     24  C   UNL     1      47.315  10.162  19.692  0.00  0.00    +0.000 A 
ATOM     25  N   UNL     1      47.293   8.974  20.292  0.00  0.00    +0.000 NA
ATOM     26  C   UNL     1      47.624   7.966  19.469  0.00  0.00    +0.000 A 
ATOM     27  S   UNL     1      47.650   6.375  20.065  0.00  0.00    +0.000 S 
ATOM     28  C   UNL     1      48.118   5.762  18.549  0.00  0.00    +0.000 A 
ATOM     29  C   UNL     1      48.263   6.737  17.567  0.00  0.00    +0.000 A 
ATOM     30  C   UNL     1      47.967   8.056  18.125  0.00  0.00    +0.000 A 
BRANCH  22  32
ATOM     31  C   UNL     1      49.504  10.277  16.120  0.00  0.00    +0.000 C 
ATOM     32  O   UNL     1      48.249   9.630  16.308  0.00  0.00    +0.000 OA
ENDBRANCH  22  32
ENDBRANCH  18  29
ENDBRANCH   1  20
TORSDOF 8
ENDMDL
MODEL 4
REMARK VINA RESULT:    -6.948      2.651      3.139
REMARK INTER + INTRA:         -11.525
REMARK INTER:                 -10.497
REMARK INTRA:                  -1.028
REMARK UNBOUND:                -1.328
REMARK  Name = 
REMARK  9 active torsions:
REMARK  status: ('A' for Active; 'I' for Inactive)
REMARK    1  A    between atoms: C_1  and  O_2
REMARK    2  A    between atoms: O_2  and  C_3
REMARK    3  A    between atoms: C_10  and  C_11
REMARK    4  A    between atoms: N_13  and  C_14
REMARK    5  A    between atoms: C_14  and  C_15
REMARK    6  A    between atoms: C_18  and  C_19
REMARK    7  A    between atoms: C_19  and  N_20
REMARK    8  A    between atoms: N_20  and  C_21
REMARK    9  A    between atoms: C_21  and  C_22
REMARK                            x       y       z     vdW  Elec       q    Type
REMARK                         _______ _______ _______ _____ _____    ______ ____
ROOT
ATOM      1  C   UNL     1      47.504   8.444  13.517  0.00  0.00    +0.000 C 
ENDROOT
BRANCH   1   2
ATOM      2  C   UNL     1      46.712   7.209  13.171  0.00  0.00    +0.000 A 
ATOM      3  C   UNL     1      47.213   5.932  13.459  0.00  0.00    +0.000 A 
ATOM      4  C   UNL     1      46.464   4.788  13.160  0.00  0.00    +0.000 A 
ATOM      5  C   UNL     1      45.199   4.893  12.561  0.00  0.00    +0.000 A 
ATOM      6  C   UNL     1      44.722   6.168  12.229  0.00  0.00    +0.000 A 
ATOM      7  C   UNL     1      45.471   7.312  12.527  0.00  0.00    +0.000 A 
BRANCH   5   8
ATOM      8  C   UNL     1      44.376   3.654  12.273  0.00  0.00    +0.000 C 
BRANCH   8   9
ATOM      9  N   UNL     1      44.986   2.848  11.219  0.00  0.00    +0.000 NA
ATOM     10  H   UNL     1      44.807   1.858  11.396  0.00  0.00    +0.000 HD
BRANCH   9  11
ATOM     11  C   UNL     1      44.423   3.172   9.895  0.00  0.00    +0.000 C 
BRANCH  11  12
ATOM     12  C   UNL     1      45.392   2.900   8.751  0.00  0.00    +0.000 A 
ATOM     13  N   UNL     1      45.898   1.651   8.645  0.00  0.00    +0.000 NA
ATOM     14  C   UNL     1      46.764   1.441   7.634  0.00  0.00    +0.000 A 
ATOM     15  C   UNL     1      47.129   2.411   6.731  0.00  0.00    +0.000 A 
ATOM     16  C   UNL     1      46.550   3.642   6.916  0.00  0.00    +0.000 A 
ATOM     17  N   UNL     1      45.679   3.914   7.908  0.00  0.00    +0.000 NA
ENDBRANCH  11  12
ENDBRANCH   9  11
ENDBRANCH   8   9
ENDBRANCH   5   8
ENDBRANCH   1   2
BRANCH   1  20
ATOM     18  C   UNL     1      48.402   8.660  15.804  0.00  0.00    +0.000 C 
ATOM     19  O   UNL     1      49.505   8.249  15.454  0.00  0.00    +0.000 OA
ATOM     20  N   UNL     1      47.371   8.774  14.913  0.00  0.00    +0.000 N 
ATOM     21  H   UNL     1      46.456   9.068  15.229  0.00  0.00    +0.000 HD
BRANCH  18  29
ATOM     22  C   UNL     1      47.922   6.877  18.708  0.00  0.00    +0.000 A 
ATOM     23  N   UNL     1      47.707   6.436  19.964  0.00  0.00    +0.000 NA
ATOM     24  C   UNL     1      47.489   7.345  20.918  0.00  0.00    +0.000 A 
ATOM     25  N   UNL     1      47.458   8.668  20.773  0.00  0.00    +0.000 NA
ATOM     26  C   UNL     1      47.686   9.063  19.510  0.00  0.00    +0.000 A 
ATOM     27  S   UNL     1      47.684  10.720  19.138  0.00  0.00    +0.000 S 
ATOM     28  C   UNL     1      48.014  10.404  17.499  0.00  0.00    +0.000 A 
ATOM     29  C   UNL     1      48.132   9.051  17.200  0.00  0.00    +0.000 A 
ATOM     30  C   UNL     1      47.933   8.252  18.408  0.00  0.00    +0.000 A 
BRANCH  22  32
ATOM     31  C   UNL     1      49.546   5.539  17.680  0.00  0.00    +0.000 C 
ATOM     32  O   UNL     1      48.179   5.941  17.730  0.00  0.00    +0.000 OA
ENDBRANCH  22  32
ENDBRANCH  18  29
ENDBRANCH   1  20
TORSDOF 8
ENDMDL
MODEL 5
REMARK VINA RESULT:    -6.948      2.018      3.437
REMARK INTER + INTRA:         -11.525
REMARK INTER:                 -10.343
REMARK INTRA:                  -1.181
REMARK UNBOUND:                -1.328
REMARK  Name = 
REMARK  9 active torsions:
REMARK  status: ('A' for Active; 'I' for Inactive)
REMARK    1  A    between atoms: C_1  and  O_2
REMARK    2  A    between atoms: O_2  and  C_3
REMARK    3  A    between atoms: C_10  and  C_11
REMARK    4  A    between atoms: N_13  and  C_14
REMARK    5  A    between atoms: C_14  and  C_15
REMARK    6  A    between atoms: C_18  and  C_19
REMARK    7  A    between atoms: C_19  and  N_20
REMARK    8  A    between atoms: N_20  and  C_21
REMARK    9  A    between atoms: C_21  and  C_22
REMARK                            x       y       z     vdW  Elec       q    Type
REMARK                         _______ _______ _______ _____ _____    ______ ____
ROOT
ATOM      1  C   UNL     1      47.270   4.071  14.771  0.00  0.00    +0.000 C 
ENDROOT
BRANCH   1   2
ATOM      2  C   UNL     1      46.312   4.331  13.636  0.00  0.00    +0.000 A 
ATOM      3  C   UNL     1      45.742   3.270  12.921  0.00  0.00    +0.000 A 
ATOM      4  C   UNL     1      44.834   3.514  11.885  0.00  0.00    +0.000 A 
ATOM      5  C   UNL     1      44.477   4.826  11.536  0.00  0.00    +0.000 A 
ATOM      6  C   UNL     1      45.085   5.887  12.219  0.00  0.00    +0.000 A 
ATOM      7  C   UNL     1      45.995   5.643  13.255  0.00  0.00    +0.000 A 
BRANCH   5   8
ATOM      8  C   UNL     1      43.465   5.085  10.439  0.00  0.00    +0.000 C 
BRANCH   8   9
ATOM      9  N   UNL     1      43.822   4.376   9.213  0.00  0.00    +0.000 NA
ATOM     10  H   UNL     1      43.181   4.641   8.463  0.00  0.00    +0.000 HD
BRANCH   9  11
ATOM     11  C   UNL     1      45.188   4.712   8.770  0.00  0.00    +0.000 C 
BRANCH  11  12
ATOM     12  C   UNL     1      45.912   3.537   8.126  0.00  0.00    +0.000 A 
ATOM     13  N   UNL     1      46.756   3.807   7.104  0.00  0.00    +0.000 NA
ATOM     14  C   UNL     1      47.372   2.749   6.542  0.00  0.00    +0.000 A 
ATOM     15  C   UNL     1      47.192   1.453   6.962  0.00  0.00    +0.000 A 
ATOM     16  C   UNL     1      46.327   1.285   8.015  0.00  0.00    +0.000 A 
ATOM     17  N   UNL     1      45.681   2.301   8.618  0.00  0.00    +0.000 NA
ENDBRANCH  11  12
ENDBRANCH   9  11
ENDBRANCH   8   9
ENDBRANCH   5   8
ENDBRANCH   1   2
BRANCH   1  20
ATOM     18  C   UNL     1      48.542   5.379  16.431  0.00  0.00    +0.000 C 
ATOM     19  O   UNL     1      49.293   4.435  16.661  0.00  0.00    +0.000 OA
ATOM     20  N   UNL     1      47.523   5.273  15.524  0.00  0.00    +0.000 N 
ATOM     21  H   UNL     1      46.885   6.045  15.384  0.00  0.00    +0.000 HD
BRANCH  18  29
ATOM     22  C   UNL     1      48.718   8.635  15.331  0.00  0.00    +0.000 A 
ATOM     23  N   UNL     1      48.811   9.971  15.176  0.00  0.00    +0.000 NA
ATOM     24  C   UNL     1      48.969  10.718  16.273  0.00  0.00    +0.000 A 
ATOM     25  N   UNL     1      49.047  10.290  17.531  0.00  0.00    +0.000 NA
ATOM     26  C   UNL     1      48.941   8.956  17.638  0.00  0.00    +0.000 A 
ATOM     27  S   UNL     1      49.019   8.231  19.172  0.00  0.00    +0.000 S 
ATOM     28  C   UNL     1      48.825   6.678  18.504  0.00  0.00    +0.000 A 
ATOM     29  C   UNL     1      48.698   6.674  17.119  0.00  0.00    +0.000 A 
ATOM     30  C   UNL     1      48.769   8.041  16.605  0.00  0.00    +0.000 A 
BRANCH  22  32
ATOM     31  C   UNL     1      49.736   7.509  13.547  0.00  0.00    +0.000 C 
ATOM     32  O   UNL     1      48.523   7.867  14.203  0.00  0.00    +0.000 OA
ENDBRANCH  22  32
ENDBRANCH  18  29
ENDBRANCH   1  20
TORSDOF 8
ENDMDL
MODEL 6
REMARK VINA RESULT:    -6.880      2.553      3.190
REMARK INTER + INTRA:         -11.426
REMARK INTER:                 -10.441
REMARK INTRA:                  -0.985
REMARK UNBOUND:                -1.328
REMARK  Name = 
REMARK  9 active torsions:
REMARK  status: ('A' for Active; 'I' for Inactive)
REMARK    1  A    between atoms: C_1  and  O_2
REMARK    2  A    between atoms: O_2  and  C_3
REMARK    3  A    between atoms: C_10  and  C_11
REMARK    4  A    between atoms: N_13  and  C_14
REMARK    5  A    between atoms: C_14  and  C_15
REMARK    6  A    between atoms: C_18  and  C_19
REMARK    7  A    between atoms: C_19  and  N_20
REMARK    8  A    between atoms: N_20  and  C_21
REMARK    9  A    between atoms: C_21  and  C_22
REMARK                            x       y       z     vdW  Elec       q    Type
REMARK                         _______ _______ _______ _____ _____    ______ ____
ROOT
ATOM      1  C   UNL     1      47.506   4.340  14.866  0.00  0.00    +0.000 C 
ENDROOT
BRANCH   1   2
ATOM      2  C   UNL     1      46.483   4.428  13.762  0.00  0.00    +0.000 A 
ATOM      3  C   UNL     1      46.044   3.275  13.098  0.00  0.00    +0.000 A 
ATOM      4  C   UNL     1      45.076   3.357  12.090  0.00  0.00    +0.000 A 
ATOM      5  C   UNL     1      44.528   4.594  11.719  0.00  0.00    +0.000 A 
ATOM      6  C   UNL     1      45.004   5.751  12.349  0.00  0.00    +0.000 A 
ATOM      7  C   UNL     1      45.974   5.669  13.356  0.00  0.00    +0.000 A 
BRANCH   5   8
ATOM      8  C   UNL     1      43.454   4.674  10.654  0.00  0.00    +0.000 C 
BRANCH   8   9
ATOM      9  N   UNL     1      43.783   3.834   9.506  0.00  0.00    +0.000 NA
ATOM     10  H   UNL     1      42.966   3.742   8.901  0.00  0.00    +0.000 HD
BRANCH   9  11
ATOM     11  C   UNL     1      44.871   4.420   8.700  0.00  0.00    +0.000 C 
BRANCH  11  12
ATOM     12  C   UNL     1      45.763   3.372   8.049  0.00  0.00    +0.000 A 
ATOM     13  N   UNL     1      46.562   3.772   7.035  0.00  0.00    +0.000 NA
ATOM     14  C   UNL     1      47.331   2.823   6.467  0.00  0.00    +0.000 A 
ATOM     15  C   UNL     1      47.342   1.510   6.875  0.00  0.00    +0.000 A 
ATOM     16  C   UNL     1      46.507   1.206   7.922  0.00  0.00    +0.000 A 
ATOM     17  N   UNL     1      45.715   2.111   8.529  0.00  0.00    +0.000 NA
ENDBRANCH  11  12
ENDBRANCH   9  11
ENDBRANCH   8   9
ENDBRANCH   5   8
ENDBRANCH   1   2
BRANCH   1  20
ATOM     18  C   UNL     1      48.619   5.991  16.322  0.00  0.00    +0.000 C 
ATOM     19  O   UNL     1      49.687   5.387  16.261  0.00  0.00    +0.000 OA
ATOM     20  N   UNL     1      47.506   5.534  15.671  0.00  0.00    +0.000 N 
ATOM     21  H   UNL     1      46.623   6.019  15.773  0.00  0.00    +0.000 HD
BRANCH  18  29
ATOM     22  C   UNL     1      47.765   6.665  19.586  0.00  0.00    +0.000 A 
ATOM     23  N   UNL     1      47.472   7.200  20.789  0.00  0.00    +0.000 NA
ATOM     24  C   UNL     1      47.506   8.530  20.907  0.00  0.00    +0.000 A 
ATOM     25  N   UNL     1      47.805   9.413  19.956  0.00  0.00    +0.000 NA
ATOM     26  C   UNL     1      48.099   8.836  18.780  0.00  0.00    +0.000 A 
ATOM     27  S   UNL     1      48.504   9.811  17.449  0.00  0.00    +0.000 S 
ATOM     28  C   UNL     1      48.713   8.449  16.451  0.00  0.00    +0.000 A 
ATOM     29  C   UNL     1      48.483   7.238  17.096  0.00  0.00    +0.000 A 
ATOM     30  C   UNL     1      48.114   7.476  18.491  0.00  0.00    +0.000 A 
BRANCH  22  32
ATOM     31  C   UNL     1      49.002   4.692  19.837  0.00  0.00    +0.000 C 
ATOM     32  O   UNL     1      47.762   5.292  19.472  0.00  0.00    +0.000 OA
ENDBRANCH  22  32
ENDBRANCH  18  29
ENDBRANCH   1  20
TORSDOF 8
ENDMDL
MODEL 7
REMARK VINA RESULT:    -6.493      2.550      3.867
REMARK INTER + INTRA:         -10.858
REMARK INTER:                  -9.739
REMARK INTRA:                  -1.118
REMARK UNBOUND:                -1.328
REMARK  Name = 
REMARK  9 active torsions:
REMARK  status: ('A' for Active; 'I' for Inactive)
REMARK    1  A    between atoms: C_1  and  O_2
REMARK    2  A    between atoms: O_2  and  C_3
REMARK    3  A    between atoms: C_10  and  C_11
REMARK    4  A    between atoms: N_13  and  C_14
REMARK    5  A    between atoms: C_14  and  C_15
REMARK    6  A    between atoms: C_18  and  C_19
REMARK    7  A    between atoms: C_19  and  N_20
REMARK    8  A    between atoms: N_20  and  C_21
REMARK    9  A    between atoms: C_21  and  C_22
REMARK                            x       y       z     vdW  Elec       q    Type
REMARK                         _______ _______ _______ _____ _____    ______ ____
ROOT
ATOM      1  C   UNL     1      46.871   8.333  13.127  0.00  0.00    +0.000 C 
ENDROOT
BRANCH   1   2
ATOM      2  C   UNL     1      46.082   7.136  12.660  0.00  0.00    +0.000 A 
ATOM      3  C   UNL     1      44.988   7.290  11.799  0.00  0.00    +0.000 A 
ATOM      4  C   UNL     1      44.274   6.174  11.347  0.00  0.00    +0.000 A 
ATOM      5  C   UNL     1      44.633   4.878  11.749  0.00  0.00    +0.000 A 
ATOM      6  C   UNL     1      45.697   4.730  12.649  0.00  0.00    +0.000 A 
ATOM      7  C   UNL     1      46.411   5.846  13.102  0.00  0.00    +0.000 A 
BRANCH   5   8
ATOM      8  C   UNL     1      43.881   3.671  11.228  0.00  0.00    +0.000 C 
BRANCH   8   9
ATOM      9  N   UNL     1      44.799   2.628  10.782  0.00  0.00    +0.000 NA
ATOM     10  H   UNL     1      44.765   1.839  11.430  0.00  0.00    +0.000 HD
BRANCH   9  11
ATOM     11  C   UNL     1      44.435   2.121   9.445  0.00  0.00    +0.000 C 
BRANCH  11  12
ATOM     12  C   UNL     1      45.583   2.193   8.447  0.00  0.00    +0.000 A 
ATOM     13  N   UNL     1      46.269   1.055   8.200  0.00  0.00    +0.000 NA
ATOM     14  C   UNL     1      47.289   1.148   7.324  0.00  0.00    +0.000 A 
ATOM     15  C   UNL     1      47.638   2.314   6.685  0.00  0.00    +0.000 A 
ATOM     16  C   UNL     1      46.871   3.412   6.993  0.00  0.00    +0.000 A 
ATOM     17  N   UNL     1      45.841   3.381   7.860  0.00  0.00    +0.000 NA
ENDBRANCH  11  12
ENDBRANCH   9  11
ENDBRANCH   8   9
ENDBRANCH   5   8
ENDBRANCH   1   2
BRANCH   1  20
ATOM     18  C   UNL     1      48.565   8.321  14.920  0.00  0.00    +0.000 C 
ATOM     19  O   UNL     1      47.876   9.047  15.632  0.00  0.00    +0.000 OA
ATOM     20  N   UNL     1      48.142   7.936  13.677  0.00  0.00    +0.000 N 
ATOM     21  H   UNL     1      48.744   7.378  13.086  0.00  0.00    +0.000 HD
BRANCH  18  29
ATOM     22  C   UNL     1      51.741   8.540  13.615  0.00  0.00    +0.000 A 
ATOM     23  N   UNL     1      53.059   8.479  13.336  0.00  0.00    +0.000 NA
ATOM     24  C   UNL     1      53.849   7.820  14.188  0.00  0.00    +0.000 A 
ATOM     25  N   UNL     1      53.482   7.203  15.309  0.00  0.00    +0.000 NA
ATOM     26  C   UNL     1      52.165   7.297  15.551  0.00  0.00    +0.000 A 
ATOM     27  S   UNL     1      51.516   6.566  16.940  0.00  0.00    +0.000 S 
ATOM     28  C   UNL     1      49.947   7.093  16.547  0.00  0.00    +0.000 A 
ATOM     29  C   UNL     1      49.880   7.827  15.367  0.00  0.00    +0.000 A 
ATOM     30  C   UNL     1      51.211   7.945  14.774  0.00  0.00    +0.000 A 
BRANCH  22  32
ATOM     31  C   UNL     1      50.881   8.691  11.442  0.00  0.00    +0.000 C 
ATOM     32  O   UNL     1      50.931   9.247  12.753  0.00  0.00    +0.000 OA
ENDBRANCH  22  32
ENDBRANCH  18  29
ENDBRANCH   1  20
TORSDOF 8
ENDMDL
MODEL 8
REMARK VINA RESULT:    -6.482      2.765      3.887
REMARK INTER + INTRA:         -10.841
REMARK INTER:                  -9.670
REMARK INTRA:                  -1.171
REMARK UNBOUND:                -1.328
REMARK  Name = 
REMARK  9 active torsions:
REMARK  status: ('A' for Active; 'I' for Inactive)
REMARK    1  A    between atoms: C_1  and  O_2
REMARK    2  A    between atoms: O_2  and  C_3
REMARK    3  A    between atoms: C_10  and  C_11
REMARK    4  A    between atoms: N_13  and  C_14
REMARK    5  A    between atoms: C_14  and  C_15
REMARK    6  A    between atoms: C_18  and  C_19
REMARK    7  A    between atoms: C_19  and  N_20
REMARK    8  A    between atoms: N_20  and  C_21
REMARK    9  A    between atoms: C_21  and  C_22
REMARK                            x       y       z     vdW  Elec       q    Type
REMARK                         _______ _______ _______ _____ _____    ______ ____
ROOT
ATOM      1  C   UNL     1      46.257   8.371  12.501  0.00  0.00    +0.000 C 
ENDROOT
BRANCH   1   2
ATOM      2  C   UNL     1      45.645   7.042  12.136  0.00  0.00    +0.000 A 
ATOM      3  C   UNL     1      44.642   6.471  12.930  0.00  0.00    +0.000 A 
ATOM      4  C   UNL     1      44.059   5.250  12.574  0.00  0.00    +0.000 A 
ATOM      5  C   UNL     1      44.468   4.567  11.418  0.00  0.00    +0.000 A 
ATOM      6  C   UNL     1      45.506   5.115  10.652  0.00  0.00    +0.000 A 
ATOM      7  C   UNL     1      46.090   6.337  11.009  0.00  0.00    +0.000 A 
BRANCH   5   8
ATOM      8  C   UNL     1      43.809   3.264  11.017  0.00  0.00    +0.000 C 
BRANCH   8   9
ATOM      9  N   UNL     1      43.857   3.071   9.570  0.00  0.00    +0.000 NA
ATOM     10  H   UNL     1      44.367   3.842   9.137  0.00  0.00    +0.000 HD
BRANCH   9  11
ATOM     11  C   UNL     1      44.553   1.821   9.213  0.00  0.00    +0.000 C 
BRANCH  11  12
ATOM     12  C   UNL     1      45.698   2.034   8.232  0.00  0.00    +0.000 A 
ATOM     13  N   UNL     1      45.796   3.246   7.640  0.00  0.00    +0.000 NA
ATOM     14  C   UNL     1      46.809   3.404   6.765  0.00  0.00    +0.000 A 
ATOM     15  C   UNL     1      47.721   2.418   6.472  0.00  0.00    +0.000 A 
ATOM     16  C   UNL     1      47.544   1.229   7.136  0.00  0.00    +0.000 A 
ATOM     17  N   UNL     1      46.551   1.010   8.020  0.00  0.00    +0.000 NA
ENDBRANCH  11  12
ENDBRANCH   9  11
ENDBRANCH   8   9
ENDBRANCH   5   8
ENDBRANCH   1   2
BRANCH   1  20
ATOM     18  C   UNL     1      48.518   9.276  12.112  0.00  0.00    +0.000 C 
ATOM     19  O   UNL     1      48.066  10.302  11.610  0.00  0.00    +0.000 OA
ATOM     20  N   UNL     1      47.693   8.283  12.564  0.00  0.00    +0.000 N 
ATOM     21  H   UNL     1      48.085   7.425  12.930  0.00  0.00    +0.000 HD
BRANCH  18  29
ATOM     22  C   UNL     1      50.491   8.062  14.656  0.00  0.00    +0.000 A 
ATOM     23  N   UNL     1      51.477   7.632  15.471  0.00  0.00    +0.000 NA
ATOM     24  C   UNL     1      52.732   7.690  15.017  0.00  0.00    +0.000 A 
ATOM     25  N   UNL     1      53.136   8.131  13.828  0.00  0.00    +0.000 NA
ATOM     26  C   UNL     1      52.122   8.540  13.048  0.00  0.00    +0.000 A 
ATOM     27  S   UNL     1      52.451   9.136  11.492  0.00  0.00    +0.000 S 
ATOM     28  C   UNL     1      50.799   9.413  11.194  0.00  0.00    +0.000 A 
ATOM     29  C   UNL     1      49.970   9.064  12.255  0.00  0.00    +0.000 A 
ATOM     30  C   UNL     1      50.768   8.542  13.363  0.00  0.00    +0.000 A 
BRANCH  22  32
ATOM     31  C   UNL     1      48.877   6.699  15.666  0.00  0.00    +0.000 C 
ATOM     32  O   UNL     1      49.194   7.973  15.112  0.00  0.00    +0.000 OA
ENDBRANCH  22  32
ENDBRANCH  18  29
ENDBRANCH   1  20
TORSDOF 8
ENDMDL
MODEL 9
REMARK VINA RESULT:    -6.283      2.007      2.771
REMARK INTER + INTRA:         -10.549
REMARK INTER:                  -9.261
REMARK INTRA:                  -1.288
REMARK UNBOUND:                -1.328
REMARK  Name = 
REMARK  9 active torsions:
REMARK  status: ('A' for Active; 'I' for Inactive)
REMARK    1  A    between atoms: C_1  and  O_2
REMARK    2  A    between atoms: O_2  and  C_3
REMARK    3  A    between atoms: C_10  and  C_11
REMARK    4  A    between atoms: N_13  and  C_14
REMARK    5  A    between atoms: C_14  and  C_15
REMARK    6  A    between atoms: C_18  and  C_19
REMARK    7  A    between atoms: C_19  and  N_20
REMARK    8  A    between atoms: N_20  and  C_21
REMARK    9  A    between atoms: C_21  and  C_22
REMARK                            x       y       z     vdW  Elec       q    Type
REMARK                         _______ _______ _______ _____ _____    ______ ____
ROOT
ATOM      1  C   UNL     1      48.873   9.351  12.418  0.00  0.00    +0.000 C 
ENDROOT
BRANCH   1   2
ATOM      2  C   UNL     1      47.648   8.507  12.174  0.00  0.00    +0.000 A 
ATOM      3  C   UNL     1      47.766   7.167  11.782  0.00  0.00    +0.000 A 
ATOM      4  C   UNL     1      46.626   6.381  11.581  0.00  0.00    +0.000 A 
ATOM      5  C   UNL     1      45.341   6.915  11.760  0.00  0.00    +0.000 A 
ATOM      6  C   UNL     1      45.224   8.269  12.104  0.00  0.00    +0.000 A 
ATOM      7  C   UNL     1      46.364   9.057  12.305  0.00  0.00    +0.000 A 
BRANCH   5   8
ATOM      8  C   UNL     1      44.111   6.051  11.577  0.00  0.00    +0.000 C 
BRANCH   8   9
ATOM      9  N   UNL     1      44.041   5.513  10.221  0.00  0.00    +0.000 NA
ATOM     10  H   UNL     1      44.859   5.812   9.689  0.00  0.00    +0.000 HD
BRANCH   9  11
ATOM     11  C   UNL     1      44.027   4.038  10.224  0.00  0.00    +0.000 C 
BRANCH  11  12
ATOM     12  C   UNL     1      44.971   3.431   9.195  0.00  0.00    +0.000 A 
ATOM     13  N   UNL     1      45.528   4.264   8.288  0.00  0.00    +0.000 NA
ATOM     14  C   UNL     1      46.347   3.700   7.379  0.00  0.00    +0.000 A 
ATOM     15  C   UNL     1      46.639   2.357   7.349  0.00  0.00    +0.000 A 
ATOM     16  C   UNL     1      46.035   1.597   8.321  0.00  0.00    +0.000 A 
ATOM     17  N   UNL     1      45.206   2.102   9.255  0.00  0.00    +0.000 NA
ENDBRANCH  11  12
ENDBRANCH   9  11
ENDBRANCH   8   9
ENDBRANCH   5   8
ENDBRANCH   1   2
BRANCH   1  20
ATOM     18  C   UNL     1      50.866   8.427  13.541  0.00  0.00    +0.000 C 
ATOM     19  O   UNL     1      51.475   8.337  12.478  0.00  0.00    +0.000 OA
ATOM     20  N   UNL     1      49.586   8.906  13.589  0.00  0.00    +0.000 N 
ATOM     21  H   UNL     1      49.084   8.927  14.467  0.00  0.00    +0.000 HD
BRANCH  18  29
ATOM     22  C   UNL     1      49.897   6.302  16.068  0.00  0.00    +0.000 A 
ATOM     23  N   UNL     1      49.765   5.544  17.176  0.00  0.00    +0.000 NA
ATOM     24  C   UNL     1      50.739   5.596  18.089  0.00  0.00    +0.000 A 
ATOM     25  N   UNL     1      51.852   6.324  18.034  0.00  0.00    +0.000 NA
ATOM     26  C   UNL     1      51.946   7.055  16.912  0.00  0.00    +0.000 A 
ATOM     27  S   UNL     1      53.302   8.048  16.671  0.00  0.00    +0.000 S 
ATOM     28  C   UNL     1      52.709   8.580  15.167  0.00  0.00    +0.000 A 
ATOM     29  C   UNL     1      51.483   8.024  14.818  0.00  0.00    +0.000 A 
ATOM     30  C   UNL     1      51.030   7.112  15.867  0.00  0.00    +0.000 A 
BRANCH  22  32
ATOM     31  C   UNL     1      47.833   5.366  15.481  0.00  0.00    +0.000 C 
ATOM     32  O   UNL     1      48.909   6.223  15.111  0.00  0.00    +0.000 OA
ENDBRANCH  22  32
ENDBRANCH  18  29
ENDBRANCH   1  20
TORSDOF 8
ENDMDL
