MODEL 1
REMARK VINA RESULT:    -8.072      0.000      0.000
REMARK INTER + INTRA:         -12.276
REMARK INTER:                 -11.139
REMARK INTRA:                  -1.137
REMARK UNBOUND:                -1.137
REMARK  Name = 
REMARK  8 active torsions:
REMARK  status: ('A' for Active; 'I' for Inactive)
REMARK    1  A    between atoms: C_1  and  C_2
REMARK    2  A    between atoms: C_2  and  C_3
REMARK    3  A    between atoms: C_7  and  C_8
REMARK    4  A    between atoms: C_8  and  C_9
REMARK    5  A    between atoms: C_9  and  N_10
REMARK    6  A    between atoms: N_10  and  C_11
REMARK    7  A    between atoms: C_14  and  C_15
REMARK    8  A    between atoms: C_23  and  O_24
REMARK                            x       y       z     vdW  Elec       q    Type
REMARK                         _______ _______ _______ _____ _____    ______ ____
ROOT
ATOM      1  C   UNL     1      44.691   3.692   9.597  0.00  0.00    +0.000 A 
ATOM      2  C   UNL     1      44.007   2.863  10.497  0.00  0.00    +0.000 A 
ATOM      3  C   UNL     1      43.496   3.366  11.698  0.00  0.00    +0.000 A 
ATOM      4  C   UNL     1      43.673   4.707  12.038  0.00  0.00    +0.000 A 
ATOM      5  C   UNL     1      44.352   5.566  11.169  0.00  0.00    +0.000 A 
ATOM      6  C   UNL     1      44.809   5.043   9.945  0.00  0.00    +0.000 A 
ENDROOT
BRANCH   1   8
ATOM      7  C   UNL     1      44.288   2.988   7.264  0.00  0.00    +0.000 C 
ATOM      8  C   UNL     1      45.389   3.119   8.347  0.00  0.00    +0.000 C 
ATOM      9  C   UNL     1      46.516   4.076   7.877  0.00  0.00    +0.000 C 
ATOM     10  C   UNL     1      47.308   3.544   6.681  0.00  0.00    +0.000 C 
ATOM     11  C   UNL     1      47.877   2.150   6.939  0.00  0.00    +0.000 C 
ATOM     12  C   UNL     1      46.800   1.170   7.387  0.00  0.00    +0.000 C 
ATOM     13  C   UNL     1      46.024   1.712   8.583  0.00  0.00    +0.000 C 
BRANCH  11  14
ATOM     14  O   UNL     1      48.497   1.661   5.755  0.00  0.00    +0.000 OA
ATOM     15  H   UNL     1      47.816   1.591   5.064  0.00  0.00    +0.000 HD
ENDBRANCH  11  14
ENDBRANCH   1   8
BRANCH   5  16
ATOM     16  C   UNL     1      44.642   7.003  11.575  0.00  0.00    +0.000 C 
BRANCH  16  17
ATOM     17  C   UNL     1      45.513   7.108  12.836  0.00  0.00    +0.000 C 
BRANCH  17  18
ATOM     18  N   UNL     1      46.842   6.520  12.682  0.00  0.00    +0.000 N 
ATOM     19  H   UNL     1      47.558   7.222  12.499  0.00  0.00    +0.000 HD
BRANCH  18  20
ATOM     20  C   UNL     1      47.221   5.649  13.727  0.00  0.00    +0.000 A 
ATOM     21  C   UNL     1      47.837   6.092  14.905  0.00  0.00    +0.000 A 
ATOM     22  C   UNL     1      48.110   5.211  15.949  0.00  0.00    +0.000 A 
ATOM     23  C   UNL     1      47.724   3.891  15.803  0.00  0.00    +0.000 A 
ATOM     24  N   UNL     1      47.102   3.401  14.696  0.00  0.00    +0.000 NA
ATOM     25  C   UNL     1      46.860   4.297  13.703  0.00  0.00    +0.000 A 
BRANCH  23  26
ATOM     26  C   UNL     1      47.966   2.936  16.931  0.00  0.00    +0.000 C 
ATOM     27  N   UNL     1      46.894   2.723  17.751  0.00  0.00    +0.000 N 
ATOM     28  O   UNL     1      49.041   2.386  17.115  0.00  0.00    +0.000 OA
ATOM     29  H   UNL     1      46.036   3.234  17.594  0.00  0.00    +0.000 HD
ATOM     30  H   UNL     1      47.008   2.139  18.568  0.00  0.00    +0.000 HD
ENDBRANCH  23  26
ENDBRANCH  18  20
ENDBRANCH  17  18
ENDBRANCH  16  17
ENDBRANCH   5  16
TORSDOF 7
ENDMDL
MODEL 2
REMARK VINA RESULT:    -7.843      3.663      7.488
REMARK INTER + INTRA:         -11.960
REMARK INTER:                 -10.905
REMARK INTRA:                  -1.055
REMARK UNBOUND:                -1.137
REMARK  Name = 
REMARK  8 active torsions:
REMARK  status: ('A' for Active; 'I' for Inactive)
REMARK    1  A    between atoms: C_1  and  C_2
REMARK    2  A    between atoms: C_2  and  C_3
REMARK    3  A    between atoms: C_7  and  C_8
REMARK    4  A    between atoms: C_8  and  C_9
REMARK    5  A    between atoms: C_9  and  N_10
REMARK    6  A    between atoms: N_10  and  C_11
REMARK    7  A    between atoms: C_14  and  C_15
REMARK    8  A    between atoms: C_23  and  O_24
REMARK                            x       y       z     vdW  Elec       q    Type
REMARK                         _______ _______ _______ _____ _____    ______ ____
ROOT
ATOM      1  C   UNL     1      47.135   6.657  12.968  0.00  0.00    +0.000 A 
ATOM      2  C   UNL     1      47.531   5.562  13.749  0.00  0.00    +0.000 A 
ATOM      3  C   UNL     1      46.680   4.471  13.949  0.00  0.00    +0.000 A 
ATOM      4  C   UNL     1      45.402   4.457  13.389  0.00  0.00    +0.000 A 
ATOM      5  C   UNL     1      44.969   5.531  12.606  0.00  0.00    +0.000 A 
ATOM      6  C   UNL     1      45.866   6.590  12.380  0.00  0.00    +0.000 A 
ENDROOT
BRANCH   1   8
ATOM      7  C   UNL     1      48.702   8.081  14.241  0.00  0.00    +0.000 C 
ATOM      8  C   UNL     1      48.003   7.929  12.867  0.00  0.00    +0.000 C 
ATOM      9  C   UNL     1      49.047   7.774  11.729  0.00  0.00    +0.000 C 
ATOM     10  C   UNL     1      49.902   9.024  11.514  0.00  0.00    +0.000 C 
ATOM     11  C   UNL     1      49.054  10.272  11.282  0.00  0.00    +0.000 C 
ATOM     12  C   UNL     1      48.024  10.474  12.385  0.00  0.00    +0.000 C 
ATOM     13  C   UNL     1      47.175   9.222  12.584  0.00  0.00    +0.000 C 
BRANCH  11  14
ATOM     14  O   UNL     1      49.898  11.416  11.208  0.00  0.00    +0.000 OA
ATOM     15  H   UNL     1      50.792  11.117  10.968  0.00  0.00    +0.000 HD
ENDBRANCH  11  14
ENDBRANCH   1   8
BRANCH   5  16
ATOM     16  C   UNL     1      43.542   5.573  12.078  0.00  0.00    +0.000 C 
BRANCH  16  17
ATOM     17  C   UNL     1      43.422   5.088  10.626  0.00  0.00    +0.000 C 
BRANCH  17  18
ATOM     18  N   UNL     1      43.656   3.654  10.465  0.00  0.00    +0.000 N 
ATOM     19  H   UNL     1      42.795   3.140  10.283  0.00  0.00    +0.000 HD
BRANCH  18  20
ATOM     20  C   UNL     1      44.666   3.327   9.534  0.00  0.00    +0.000 A 
ATOM     21  C   UNL     1      45.075   2.011   9.282  0.00  0.00    +0.000 A 
ATOM     22  C   UNL     1      46.010   1.726   8.290  0.00  0.00    +0.000 A 
ATOM     23  C   UNL     1      46.499   2.779   7.536  0.00  0.00    +0.000 A 
ATOM     24  N   UNL     1      46.127   4.076   7.715  0.00  0.00    +0.000 NA
ATOM     25  C   UNL     1      45.215   4.304   8.697  0.00  0.00    +0.000 A 
BRANCH  23  26
ATOM     26  C   UNL     1      47.471   2.490   6.434  0.00  0.00    +0.000 C 
ATOM     27  N   UNL     1      47.350   3.288   5.331  0.00  0.00    +0.000 N 
ATOM     28  O   UNL     1      48.311   1.607   6.504  0.00  0.00    +0.000 OA
ATOM     29  H   UNL     1      46.611   3.977   5.291  0.00  0.00    +0.000 HD
ATOM     30  H   UNL     1      47.934   3.106   4.526  0.00  0.00    +0.000 HD
ENDBRANCH  23  26
ENDBRANCH  18  20
ENDBRANCH  17  18
ENDBRANCH  16  17
ENDBRANCH   5  16
TORSDOF 7
ENDMDL
MODEL 3
REMARK VINA RESULT:    -7.726      4.142      7.493
REMARK INTER + INTRA:         -11.799
REMARK INTER:                 -10.911
REMARK INTRA:                  -0.889
REMARK UNBOUND:                -1.137
REMARK  Name = 
REMARK  8 active torsions:
REMARK  status: ('A' for Active; 'I' for Inactive)
REMARK    1  A    between atoms: C_1  and  C_2
REMARK    2  A    between atoms: C_2  and  C_3
REMARK    3  A    between atoms: C_7  and  C_8
REMARK    4  A    between atoms: C_8  and  C_9
REMARK    5  A    between atoms: C_9  and  N_10
REMARK    6  A    between atoms: N_10  and  C_11
REMARK    7  A    between atoms: C_14  and  C_15
REMARK    8  A    between atoms: C_23  and  O_24
REMARK                            x       y       z     vdW  Elec       q    Type
REMARK                         _______ _______ _______ _____ _____    ______ ____
ROOT
ATOM      1  C   UNL     1      47.641   8.318  12.221  0.00  0.00    +0.000 A 
ATOM      2  C   UNL     1      46.628   9.288  12.212  0.00  0.00    +0.000 A 
ATOM      3  C   UNL     1      45.284   8.928  12.077  0.00  0.00    +0.000 A 
ATOM      4  C   UNL     1      44.919   7.590  11.928  0.00  0.00    +0.000 A 
ATOM      5  C   UNL     1      45.900   6.593  11.929  0.00  0.00    +0.000 A 
ATOM      6  C   UNL     1      47.238   6.981  12.119  0.00  0.00    +0.000 A 
ENDROOT
BRANCH   1   8
ATOM      7  C   UNL     1      49.593   8.666  13.696  0.00  0.00    +0.000 C 
ATOM      8  C   UNL     1      49.132   8.712  12.217  0.00  0.00    +0.000 C 
ATOM      9  C   UNL     1      49.947   7.714  11.352  0.00  0.00    +0.000 C 
ATOM     10  C   UNL     1      51.428   8.078  11.236  0.00  0.00    +0.000 C 
ATOM     11  C   UNL     1      51.636   9.503  10.729  0.00  0.00    +0.000 C 
ATOM     12  C   UNL     1      50.866  10.521  11.560  0.00  0.00    +0.000 C 
ATOM     13  C   UNL     1      49.391  10.149  11.662  0.00  0.00    +0.000 C 
BRANCH  11  14
ATOM     14  O   UNL     1      53.022   9.822  10.755  0.00  0.00    +0.000 OA
ATOM     15  H   UNL     1      53.162  10.503  11.437  0.00  0.00    +0.000 HD
ENDBRANCH  11  14
ENDBRANCH   1   8
BRANCH   5  16
ATOM     16  C   UNL     1      45.525   5.143  11.662  0.00  0.00    +0.000 C 
BRANCH  16  17
ATOM     17  C   UNL     1      44.044   4.960  11.299  0.00  0.00    +0.000 C 
BRANCH  17  18
ATOM     18  N   UNL     1      43.792   4.929   9.859  0.00  0.00    +0.000 N 
ATOM     19  H   UNL     1      43.837   5.856   9.438  0.00  0.00    +0.000 HD
BRANCH  18  20
ATOM     20  C   UNL     1      44.577   3.994   9.148  0.00  0.00    +0.000 A 
ATOM     21  C   UNL     1      45.574   4.369   8.240  0.00  0.00    +0.000 A 
ATOM     22  C   UNL     1      46.386   3.416   7.629  0.00  0.00    +0.000 A 
ATOM     23  C   UNL     1      46.201   2.089   7.972  0.00  0.00    +0.000 A 
ATOM     24  N   UNL     1      45.266   1.660   8.863  0.00  0.00    +0.000 NA
ATOM     25  C   UNL     1      44.496   2.626   9.431  0.00  0.00    +0.000 A 
BRANCH  23  26
ATOM     26  C   UNL     1      47.093   1.051   7.363  0.00  0.00    +0.000 C 
ATOM     27  N   UNL     1      46.787  -0.240   7.688  0.00  0.00    +0.000 N 
ATOM     28  O   UNL     1      48.031   1.330   6.632  0.00  0.00    +0.000 OA
ATOM     29  H   UNL     1      46.033  -0.427   8.336  0.00  0.00    +0.000 HD
ATOM     30  H   UNL     1      47.387  -0.985   7.361  0.00  0.00    +0.000 HD
ENDBRANCH  23  26
ENDBRANCH  18  20
ENDBRANCH  17  18
ENDBRANCH  16  17
ENDBRANCH   5  16
TORSDOF 7
ENDMDL
MODEL 4
REMARK VINA RESULT:    -7.548      2.725      8.819
REMARK INTER + INTRA:         -11.553
REMARK INTER:                 -10.702
REMARK INTRA:                  -0.851
REMARK UNBOUND:                -1.137
REMARK  Name = 
REMARK  8 active torsions:
REMARK  status: ('A' for Active; 'I' for Inactive)
REMARK    1  A    between atoms: C_1  and  C_2
REMARK    2  A    between atoms: C_2  and  C_3
REMARK    3  A    between atoms: C_7  and  C_8
REMARK    4  A    between atoms: C_8  and  C_9
REMARK    5  A    between atoms: C_9  and  N_10
REMARK    6  A    between atoms: N_10  and  C_11
REMARK    7  A    between atoms: C_14  and  C_15
REMARK    8  A    between atoms: C_23  and  O_24
REMARK                            x       y       z     vdW  Elec       q    Type
REMARK                         _______ _______ _______ _____ _____    ______ ____
ROOT
ATOM      1  C   UNL     1      47.762   5.097  15.487  0.00  0.00    +0.000 A 
ATOM      2  C   UNL     1      48.272   6.259  14.889  0.00  0.00    +0.000 A 
ATOM      3  C   UNL     1      47.853   6.661  13.616  0.00  0.00    +0.000 A 
ATOM      4  C   UNL     1      46.928   5.900  12.901  0.00  0.00    +0.000 A 
ATOM      5  C   UNL     1      46.397   4.734  13.462  0.00  0.00    +0.000 A 
ATOM      6  C   UNL     1      46.799   4.384  14.763  0.00  0.00    +0.000 A 
ENDROOT
BRANCH   1   8
ATOM      7  C   UNL     1      48.211   3.020  16.747  0.00  0.00    +0.000 C 
ATOM      8  C   UNL     1      48.327   4.564  16.819  0.00  0.00    +0.000 C 
ATOM      9  C   UNL     1      49.807   5.000  16.986  0.00  0.00    +0.000 C 
ATOM     10  C   UNL     1      50.421   4.572  18.320  0.00  0.00    +0.000 C 
ATOM     11  C   UNL     1      49.596   5.046  19.515  0.00  0.00    +0.000 C 
ATOM     12  C   UNL     1      48.137   4.624  19.402  0.00  0.00    +0.000 C 
ATOM     13  C   UNL     1      47.537   5.063  18.070  0.00  0.00    +0.000 C 
BRANCH  11  14
ATOM     14  O   UNL     1      50.149   4.518  20.715  0.00  0.00    +0.000 OA
ATOM     15  H   UNL     1      50.287   3.563  20.590  0.00  0.00    +0.000 HD
ENDBRANCH  11  14
ENDBRANCH   1   8
BRANCH   5  16
ATOM     16  C   UNL     1      45.469   3.843  12.651  0.00  0.00    +0.000 C 
BRANCH  16  17
ATOM     17  C   UNL     1      44.592   4.626  11.663  0.00  0.00    +0.000 C 
BRANCH  17  18
ATOM     18  N   UNL     1      44.018   3.798  10.603  0.00  0.00    +0.000 N 
ATOM     19  H   UNL     1      43.145   4.181  10.242  0.00  0.00    +0.000 HD
BRANCH  18  20
ATOM     20  C   UNL     1      44.917   3.475   9.563  0.00  0.00    +0.000 A 
ATOM     21  C   UNL     1      45.232   2.157   9.209  0.00  0.00    +0.000 A 
ATOM     22  C   UNL     1      46.052   1.882   8.117  0.00  0.00    +0.000 A 
ATOM     23  C   UNL     1      46.520   2.949   7.370  0.00  0.00    +0.000 A 
ATOM     24  N   UNL     1      46.232   4.251   7.647  0.00  0.00    +0.000 NA
ATOM     25  C   UNL     1      45.431   4.468   8.723  0.00  0.00    +0.000 A 
BRANCH  23  26
ATOM     26  C   UNL     1      47.365   2.676   6.165  0.00  0.00    +0.000 C 
ATOM     27  N   UNL     1      48.600   2.153   6.429  0.00  0.00    +0.000 N 
ATOM     28  O   UNL     1      46.989   2.904   5.025  0.00  0.00    +0.000 OA
ATOM     29  H   UNL     1      48.893   2.024   7.388  0.00  0.00    +0.000 HD
ATOM     30  H   UNL     1      49.245   2.003   5.665  0.00  0.00    +0.000 HD
ENDBRANCH  23  26
ENDBRANCH  18  20
ENDBRANCH  17  18
ENDBRANCH  16  17
ENDBRANCH   5  16
TORSDOF 7
ENDMDL
MODEL 5
REMARK VINA RESULT:    -7.527      3.074      7.177
REMARK INTER + INTRA:         -11.524
REMARK INTER:                 -10.645
REMARK INTRA:                  -0.879
REMARK UNBOUND:                -1.137
REMARK  Name = 
REMARK  8 active torsions:
REMARK  status: ('A' for Active; 'I' for Inactive)
REMARK    1  A    between atoms: C_1  and  C_2
REMARK    2  A    between atoms: C_2  and  C_3
REMARK    3  A    between atoms: C_7  and  C_8
REMARK    4  A    between atoms: C_8  and  C_9
REMARK    5  A    between atoms: C_9  and  N_10
REMARK    6  A    between atoms: N_10  and  C_11
REMARK    7  A    between atoms: C_14  and  C_15
REMARK    8  A    between atoms: C_23  and  O_24
REMARK                            x       y       z     vdW  Elec       q    Type
REMARK                         _______ _______ _______ _____ _____    ______ ____
ROOT
ATOM      1  C   UNL     1      46.172   7.402  12.545  0.00  0.00    +0.000 A 
ATOM      2  C   UNL     1      45.809   8.569  11.858  0.00  0.00    +0.000 A 
ATOM      3  C   UNL     1      44.525   8.725  11.326  0.00  0.00    +0.000 A 
ATOM      4  C   UNL     1      43.578   7.708  11.451  0.00  0.00    +0.000 A 
ATOM      5  C   UNL     1      43.902   6.528  12.127  0.00  0.00    +0.000 A 
ATOM      6  C   UNL     1      45.184   6.422  12.695  0.00  0.00    +0.000 A 
ENDROOT
BRANCH   1   8
ATOM      7  C   UNL     1      47.724   5.644  13.322  0.00  0.00    +0.000 C 
ATOM      8  C   UNL     1      47.626   7.157  13.001  0.00  0.00    +0.000 C 
ATOM      9  C   UNL     1      48.614   7.548  11.871  0.00  0.00    +0.000 C 
ATOM     10  C   UNL     1      50.084   7.403  12.271  0.00  0.00    +0.000 C 
ATOM     11  C   UNL     1      50.414   8.173  13.548  0.00  0.00    +0.000 C 
ATOM     12  C   UNL     1      49.477   7.807  14.692  0.00  0.00    +0.000 C 
ATOM     13  C   UNL     1      48.017   7.962  14.280  0.00  0.00    +0.000 C 
BRANCH  11  14
ATOM     14  O   UNL     1      51.757   7.904  13.933  0.00  0.00    +0.000 OA
ATOM     15  H   UNL     1      51.751   7.599  14.857  0.00  0.00    +0.000 HD
ENDBRANCH  11  14
ENDBRANCH   1   8
BRANCH   5  16
ATOM     16  C   UNL     1      42.913   5.373  12.178  0.00  0.00    +0.000 C 
BRANCH  16  17
ATOM     17  C   UNL     1      43.203   4.284  11.135  0.00  0.00    +0.000 C 
BRANCH  17  18
ATOM     18  N   UNL     1      43.726   4.805   9.873  0.00  0.00    +0.000 N 
ATOM     19  H   UNL     1      44.188   5.706   9.988  0.00  0.00    +0.000 HD
BRANCH  18  20
ATOM     20  C   UNL     1      44.529   3.894   9.153  0.00  0.00    +0.000 A 
ATOM     21  C   UNL     1      45.488   4.298   8.215  0.00  0.00    +0.000 A 
ATOM     22  C   UNL     1      46.322   3.370   7.594  0.00  0.00    +0.000 A 
ATOM     23  C   UNL     1      46.199   2.041   7.956  0.00  0.00    +0.000 A 
ATOM     24  N   UNL     1      45.304   1.585   8.875  0.00  0.00    +0.000 NA
ATOM     25  C   UNL     1      44.511   2.527   9.451  0.00  0.00    +0.000 A 
BRANCH  23  26
ATOM     26  C   UNL     1      47.116   1.032   7.336  0.00  0.00    +0.000 C 
ATOM     27  N   UNL     1      46.850  -0.269   7.657  0.00  0.00    +0.000 N 
ATOM     28  O   UNL     1      48.040   1.341   6.599  0.00  0.00    +0.000 OA
ATOM     29  H   UNL     1      46.107  -0.481   8.309  0.00  0.00    +0.000 HD
ATOM     30  H   UNL     1      47.469  -0.995   7.322  0.00  0.00    +0.000 HD
ENDBRANCH  23  26
ENDBRANCH  18  20
ENDBRANCH  17  18
ENDBRANCH  16  17
ENDBRANCH   5  16
TORSDOF 7
ENDMDL
MODEL 6
REMARK VINA RESULT:    -7.460      3.010      4.577
REMARK INTER + INTRA:         -11.432
REMARK INTER:                  -9.802
REMARK INTRA:                  -1.630
REMARK UNBOUND:                -1.137
REMARK  Name = 
REMARK  8 active torsions:
REMARK  status: ('A' for Active; 'I' for Inactive)
REMARK    1  A    between atoms: C_1  and  C_2
REMARK    2  A    between atoms: C_2  and  C_3
REMARK    3  A    between atoms: C_7  and  C_8
REMARK    4  A    between atoms: C_8  and  C_9
REMARK    5  A    between atoms: C_9  and  N_10
REMARK    6  A    between atoms: N_10  and  C_11
REMARK    7  A    between atoms: C_14  and  C_15
REMARK    8  A    between atoms: C_23  and  O_24
REMARK                            x       y       z     vdW  Elec       q    Type
REMARK                         _______ _______ _______ _____ _____    ______ ____
ROOT
ATOM      1  C   UNL     1      45.892   7.040  11.671  0.00  0.00    +0.000 A 
ATOM      2  C   UNL     1      45.133   8.150  12.069  0.00  0.00    +0.000 A 
ATOM      3  C   UNL     1      45.749   9.326  12.511  0.00  0.00    +0.000 A 
ATOM      4  C   UNL     1      47.139   9.414  12.585  0.00  0.00    +0.000 A 
ATOM      5  C   UNL     1      47.931   8.328  12.199  0.00  0.00    +0.000 A 
ATOM      6  C   UNL     1      47.285   7.178  11.711  0.00  0.00    +0.000 A 
ENDROOT
BRANCH   1   8
ATOM      7  C   UNL     1      45.658   5.356   9.878  0.00  0.00    +0.000 C 
ATOM      8  C   UNL     1      45.226   5.691  11.329  0.00  0.00    +0.000 C 
ATOM      9  C   UNL     1      45.702   4.593  12.316  0.00  0.00    +0.000 C 
ATOM     10  C   UNL     1      45.029   3.238  12.089  0.00  0.00    +0.000 C 
ATOM     11  C   UNL     1      43.506   3.337  12.109  0.00  0.00    +0.000 C 
ATOM     12  C   UNL     1      42.991   4.394  11.140  0.00  0.00    +0.000 C 
ATOM     13  C   UNL     1      43.666   5.740  11.383  0.00  0.00    +0.000 C 
BRANCH  11  14
ATOM     14  O   UNL     1      42.940   2.075  11.775  0.00  0.00    +0.000 OA
ATOM     15  H   UNL     1      42.201   2.228  11.161  0.00  0.00    +0.000 HD
ENDBRANCH  11  14
ENDBRANCH   1   8
BRANCH   5  16
ATOM     16  C   UNL     1      49.441   8.375  12.374  0.00  0.00    +0.000 C 
BRANCH  16  17
ATOM     17  C   UNL     1      49.939   7.527  13.554  0.00  0.00    +0.000 C 
BRANCH  17  18
ATOM     18  N   UNL     1      49.345   7.901  14.837  0.00  0.00    +0.000 N 
ATOM     19  H   UNL     1      48.681   8.669  14.747  0.00  0.00    +0.000 HD
BRANCH  18  20
ATOM     20  C   UNL     1      48.800   6.822  15.566  0.00  0.00    +0.000 A 
ATOM     21  C   UNL     1      47.985   5.842  14.984  0.00  0.00    +0.000 A 
ATOM     22  C   UNL     1      47.544   4.745  15.719  0.00  0.00    +0.000 A 
ATOM     23  C   UNL     1      47.962   4.632  17.033  0.00  0.00    +0.000 A 
ATOM     24  N   UNL     1      48.770   5.535  17.651  0.00  0.00    +0.000 NA
ATOM     25  C   UNL     1      49.173   6.590  16.894  0.00  0.00    +0.000 A 
BRANCH  23  26
ATOM     26  C   UNL     1      47.537   3.436  17.829  0.00  0.00    +0.000 C 
ATOM     27  N   UNL     1      48.319   3.154  18.913  0.00  0.00    +0.000 N 
ATOM     28  O   UNL     1      46.567   2.755  17.536  0.00  0.00    +0.000 OA
ATOM     29  H   UNL     1      49.142   3.713  19.095  0.00  0.00    +0.000 HD
ATOM     30  H   UNL     1      48.125   2.324  19.458  0.00  0.00    +0.000 HD
ENDBRANCH  23  26
ENDBRANCH  18  20
ENDBRANCH  17  18
ENDBRANCH  16  17
ENDBRANCH   5  16
TORSDOF 7
ENDMDL
MODEL 7
REMARK VINA RESULT:    -6.579      3.066      4.857
REMARK INTER + INTRA:         -10.216
REMARK INTER:                  -8.820
REMARK INTRA:                  -1.396
REMARK UNBOUND:                -1.137
REMARK  Name = 
REMARK  8 active torsions:
REMARK  status: ('A' for Active; 'I' for Inactive)
REMARK    1  A    between atoms: C_1  and  C_2
REMARK    2  A    between atoms: C_2  and  C_3
REMARK    3  A    between atoms: C_7  and  C_8
REMARK    4  A    between atoms: C_8  and  C_9
REMARK    5  A    between atoms: C_9  and  N_10
REMARK    6  A    between atoms: N_10  and  C_11
REMARK    7  A    between atoms: C_14  and  C_15
REMARK    8  A    between atoms: C_23  and  O_24
REMARK                            x       y       z     vdW  Elec       q    Type
REMARK                         _______ _______ _______ _____ _____    ______ ____
ROOT
ATOM      1  C   UNL     1      45.922   6.918  12.074  0.00  0.00    +0.000 A 
ATOM      2  C   UNL     1      45.036   8.004  12.097  0.00  0.00    +0.000 A 
ATOM      3  C   UNL     1      45.506   9.320  12.134  0.00  0.00    +0.000 A 
ATOM      4  C   UNL     1      46.876   9.583  12.170  0.00  0.00    +0.000 A 
ATOM      5  C   UNL     1      47.792   8.527  12.152  0.00  0.00    +0.000 A 
ATOM      6  C   UNL     1      47.290   7.217  12.062  0.00  0.00    +0.000 A 
ENDROOT
BRANCH   1   8
ATOM      7  C   UNL     1      46.447   4.719  13.073  0.00  0.00    +0.000 C 
ATOM      8  C   UNL     1      45.416   5.465  12.187  0.00  0.00    +0.000 C 
ATOM      9  C   UNL     1      44.007   5.437  12.835  0.00  0.00    +0.000 C 
ATOM     10  C   UNL     1      43.402   4.035  12.916  0.00  0.00    +0.000 C 
ATOM     11  C   UNL     1      43.368   3.340  11.556  0.00  0.00    +0.000 C 
ATOM     12  C   UNL     1      44.737   3.328  10.889  0.00  0.00    +0.000 C 
ATOM     13  C   UNL     1      45.325   4.733  10.810  0.00  0.00    +0.000 C 
BRANCH  11  14
ATOM     14  O   UNL     1      42.908   2.003  11.715  0.00  0.00    +0.000 OA
ATOM     15  H   UNL     1      42.966   1.773  12.659  0.00  0.00    +0.000 HD
ENDBRANCH  11  14
ENDBRANCH   1   8
BRANCH   5  16
ATOM     16  C   UNL     1      49.282   8.797  12.297  0.00  0.00    +0.000 C 
BRANCH  16  17
ATOM     17  C   UNL     1      49.733   8.924  13.759  0.00  0.00    +0.000 C 
BRANCH  17  18
ATOM     18  N   UNL     1      50.668   7.881  14.178  0.00  0.00    +0.000 N 
ATOM     19  H   UNL     1      51.601   8.249  14.360  0.00  0.00    +0.000 HD
BRANCH  18  20
ATOM     20  C   UNL     1      50.207   7.076  15.243  0.00  0.00    +0.000 A 
ATOM     21  C   UNL     1      48.877   6.651  15.358  0.00  0.00    +0.000 A 
ATOM     22  C   UNL     1      48.485   5.783  16.374  0.00  0.00    +0.000 A 
ATOM     23  C   UNL     1      49.456   5.324  17.247  0.00  0.00    +0.000 A 
ATOM     24  N   UNL     1      50.767   5.679  17.177  0.00  0.00    +0.000 NA
ATOM     25  C   UNL     1      51.101   6.531  16.171  0.00  0.00    +0.000 A 
BRANCH  23  26
ATOM     26  C   UNL     1      49.066   4.353  18.319  0.00  0.00    +0.000 C 
ATOM     27  N   UNL     1      48.316   3.293  17.896  0.00  0.00    +0.000 N 
ATOM     28  O   UNL     1      49.386   4.494  19.489  0.00  0.00    +0.000 OA
ATOM     29  H   UNL     1      48.030   3.237  16.928  0.00  0.00    +0.000 HD
ATOM     30  H   UNL     1      47.967   2.633  18.578  0.00  0.00    +0.000 HD
ENDBRANCH  23  26
ENDBRANCH  18  20
ENDBRANCH  17  18
ENDBRANCH  16  17
ENDBRANCH   5  16
TORSDOF 7
ENDMDL
MODEL 8
REMARK VINA RESULT:    -6.577      3.442      8.174
REMARK INTER + INTRA:         -10.213
REMARK INTER:                  -9.137
REMARK INTRA:                  -1.077
REMARK UNBOUND:                -1.137
REMARK  Name = 
REMARK  8 active torsions:
REMARK  status: ('A' for Active; 'I' for Inactive)
REMARK    1  A    between atoms: C_1  and  C_2
REMARK    2  A    between atoms: C_2  and  C_3
REMARK    3  A    between atoms: C_7  and  C_8
REMARK    4  A    between atoms: C_8  and  C_9
REMARK    5  A    between atoms: C_9  and  N_10
REMARK    6  A    between atoms: N_10  and  C_11
REMARK    7  A    between atoms: C_14  and  C_15
REMARK    8  A    between atoms: C_23  and  O_24
REMARK                            x       y       z     vdW  Elec       q    Type
REMARK                         _______ _______ _______ _____ _____    ______ ____
ROOT
ATOM      1  C   UNL     1      49.631   6.934  15.699  0.00  0.00    +0.000 A 
ATOM      2  C   UNL     1      50.909   7.503  15.602  0.00  0.00    +0.000 A 
ATOM      3  C   UNL     1      51.342   8.109  14.418  0.00  0.00    +0.000 A 
ATOM      4  C   UNL     1      50.516   8.143  13.295  0.00  0.00    +0.000 A 
ATOM      5  C   UNL     1      49.235   7.585  13.351  0.00  0.00    +0.000 A 
ATOM      6  C   UNL     1      48.808   7.029  14.570  0.00  0.00    +0.000 A 
ENDROOT
BRANCH   1   8
ATOM      7  C   UNL     1      48.681   7.176  17.967  0.00  0.00    +0.000 C 
ATOM      8  C   UNL     1      49.200   6.133  16.944  0.00  0.00    +0.000 C 
ATOM      9  C   UNL     1      48.083   5.122  16.570  0.00  0.00    +0.000 C 
ATOM     10  C   UNL     1      47.650   4.234  17.738  0.00  0.00    +0.000 C 
ATOM     11  C   UNL     1      48.828   3.502  18.376  0.00  0.00    +0.000 C 
ATOM     12  C   UNL     1      49.944   4.459  18.776  0.00  0.00    +0.000 C 
ATOM     13  C   UNL     1      50.369   5.333  17.600  0.00  0.00    +0.000 C 
BRANCH  11  14
ATOM     14  O   UNL     1      48.382   2.790  19.525  0.00  0.00    +0.000 OA
ATOM     15  H   UNL     1      49.083   2.835  20.199  0.00  0.00    +0.000 HD
ENDBRANCH  11  14
ENDBRANCH   1   8
BRANCH   5  16
ATOM     16  C   UNL     1      48.367   7.523  12.103  0.00  0.00    +0.000 C 
BRANCH  16  17
ATOM     17  C   UNL     1      47.052   8.304  12.245  0.00  0.00    +0.000 C 
BRANCH  17  18
ATOM     18  N   UNL     1      46.059   7.633  13.084  0.00  0.00    +0.000 N 
ATOM     19  H   UNL     1      45.278   8.243  13.320  0.00  0.00    +0.000 HD
BRANCH  18  20
ATOM     20  C   UNL     1      45.618   6.388  12.585  0.00  0.00    +0.000 A 
ATOM     21  C   UNL     1      45.648   5.209  13.342  0.00  0.00    +0.000 A 
ATOM     22  C   UNL     1      45.118   4.022  12.843  0.00  0.00    +0.000 A 
ATOM     23  C   UNL     1      44.529   4.047  11.591  0.00  0.00    +0.000 A 
ATOM     24  N   UNL     1      44.447   5.162  10.815  0.00  0.00    +0.000 NA
ATOM     25  C   UNL     1      44.981   6.296  11.343  0.00  0.00    +0.000 A 
BRANCH  23  26
ATOM     26  C   UNL     1      43.912   2.792  11.054  0.00  0.00    +0.000 C 
ATOM     27  N   UNL     1      44.468   2.322   9.898  0.00  0.00    +0.000 N 
ATOM     28  O   UNL     1      42.978   2.227  11.601  0.00  0.00    +0.000 OA
ATOM     29  H   UNL     1      45.208   2.845   9.450  0.00  0.00    +0.000 HD
ATOM     30  H   UNL     1      44.058   1.514   9.449  0.00  0.00    +0.000 HD
ENDBRANCH  23  26
ENDBRANCH  18  20
ENDBRANCH  17  18
ENDBRANCH  16  17
ENDBRANCH   5  16
TORSDOF 7
ENDMDL
MODEL 9
REMARK VINA RESULT:    -6.535      3.452      8.049
REMARK INTER + INTRA:         -10.155
REMARK INTER:                  -9.003
REMARK INTRA:                  -1.151
REMARK UNBOUND:                -1.137
REMARK  Name = 
REMARK  8 active torsions:
REMARK  status: ('A' for Active; 'I' for Inactive)
REMARK    1  A    between atoms: C_1  and  C_2
REMARK    2  A    between atoms: C_2  and  C_3
REMARK    3  A    between atoms: C_7  and  C_8
REMARK    4  A    between atoms: C_8  and  C_9
REMARK    5  A    between atoms: C_9  and  N_10
REMARK    6  A    between atoms: N_10  and  C_11
REMARK    7  A    between atoms: C_14  and  C_15
REMARK    8  A    between atoms: C_23  and  O_24
REMARK                            x       y       z     vdW  Elec       q    Type
REMARK                         _______ _______ _______ _____ _____    ______ ____
ROOT
ATOM      1  C   UNL     1      49.005   6.357  16.770  0.00  0.00    +0.000 A 
ATOM      2  C   UNL     1      48.857   7.549  17.493  0.00  0.00    +0.000 A 
ATOM      3  C   UNL     1      48.541   8.750  16.850  0.00  0.00    +0.000 A 
ATOM      4  C   UNL     1      48.385   8.793  15.465  0.00  0.00    +0.000 A 
ATOM      5  C   UNL     1      48.527   7.627  14.708  0.00  0.00    +0.000 A 
ATOM      6  C   UNL     1      48.793   6.424  15.387  0.00  0.00    +0.000 A 
ENDROOT
BRANCH   1   8
ATOM      7  C   UNL     1      49.125   5.190  18.944  0.00  0.00    +0.000 C 
ATOM      8  C   UNL     1      49.501   5.062  17.446  0.00  0.00    +0.000 C 
ATOM      9  C   UNL     1      48.814   3.827  16.806  0.00  0.00    +0.000 C 
ATOM     10  C   UNL     1      49.307   2.494  17.373  0.00  0.00    +0.000 C 
ATOM     11  C   UNL     1      50.825   2.355  17.284  0.00  0.00    +0.000 C 
ATOM     12  C   UNL     1      51.544   3.540  17.916  0.00  0.00    +0.000 C 
ATOM     13  C   UNL     1      51.046   4.860  17.337  0.00  0.00    +0.000 C 
BRANCH  11  14
ATOM     14  O   UNL     1      51.233   1.155  17.931  0.00  0.00    +0.000 OA
ATOM     15  H   UNL     1      52.190   1.046  17.791  0.00  0.00    +0.000 HD
ENDBRANCH  11  14
ENDBRANCH   1   8
BRANCH   5  16
ATOM     16  C   UNL     1      48.462   7.681  13.188  0.00  0.00    +0.000 C 
BRANCH  16  17
ATOM     17  C   UNL     1      47.155   8.291  12.662  0.00  0.00    +0.000 C 
BRANCH  17  18
ATOM     18  N   UNL     1      45.954   7.723  13.275  0.00  0.00    +0.000 N 
ATOM     19  H   UNL     1      45.184   8.389  13.305  0.00  0.00    +0.000 HD
BRANCH  18  20
ATOM     20  C   UNL     1      45.552   6.483  12.732  0.00  0.00    +0.000 A 
ATOM     21  C   UNL     1      45.675   5.271  13.424  0.00  0.00    +0.000 A 
ATOM     22  C   UNL     1      45.181   4.084  12.888  0.00  0.00    +0.000 A 
ATOM     23  C   UNL     1      44.534   4.142  11.666  0.00  0.00    +0.000 A 
ATOM     24  N   UNL     1      44.361   5.288  10.954  0.00  0.00    +0.000 NA
ATOM     25  C   UNL     1      44.863   6.420  11.516  0.00  0.00    +0.000 A 
BRANCH  23  26
ATOM     26  C   UNL     1      43.955   2.885  11.092  0.00  0.00    +0.000 C 
ATOM     27  N   UNL     1      44.633   2.369  10.025  0.00  0.00    +0.000 N 
ATOM     28  O   UNL     1      42.948   2.356  11.537  0.00  0.00    +0.000 OA
ATOM     29  H   UNL     1      45.434   2.863   9.655  0.00  0.00    +0.000 HD
ATOM     30  H   UNL     1      44.260   1.557   9.551  0.00  0.00    +0.000 HD
ENDBRANCH  23  26
ENDBRANCH  18  20
ENDBRANCH  17  18
ENDBRANCH  16  17
ENDBRANCH   5  16
TORSDOF 7
ENDMDL
