MODEL 1
REMARK VINA RESULT:    -6.667      0.000      0.000
REMARK INTER + INTRA:          -9.132
REMARK INTER:                  -8.226
REMARK INTRA:                  -0.906
REMARK UNBOUND:                -0.906
REMARK  Name = 
REMARK  7 active torsions:
REMARK  status: ('A' for Active; 'I' for Inactive)
REMARK    1  A    between atoms: C_1  and  C_2
REMARK    2  A    between atoms: C_2  and  C_3
REMARK    3  A    between atoms: C_2  and  C_4
REMARK    4  A    between atoms: C_2  and  C_5
REMARK    5  A    between atoms: C_9  and  C_10
REMARK    6  A    between atoms: N_16  and  C_17
REMARK    7  A    between atoms: C_17  and  C_18
REMARK                            x       y       z     vdW  Elec       q    Type
REMARK                         _______ _______ _______ _____ _____    ______ ____
ROOT
ATOM      1  C   UNL     1      44.567   4.032  11.095  0.00  0.00    +0.000 A 
ATOM      2  N   UNL     1      44.870   2.843  10.586  0.00  0.00    +0.000 NA
ATOM      3  C   UNL     1      45.547   3.067   9.426  0.00  0.00    +0.000 A 
ATOM      4  C   UNL     1      46.054   2.170   8.479  0.00  0.00    +0.000 A 
ATOM      5  C   UNL     1      46.680   2.718   7.355  0.00  0.00    +0.000 A 
ATOM      6  C   UNL     1      46.779   4.110   7.257  0.00  0.00    +0.000 A 
ATOM      7  N   UNL     1      46.309   5.016   8.162  0.00  0.00    +0.000 NA
ATOM      8  C   UNL     1      45.699   4.422   9.208  0.00  0.00    +0.000 A 
ATOM      9  N   UNL     1      45.052   5.034  10.261  0.00  0.00    +0.000 N 
ENDROOT
BRANCH   5  10
ATOM     10  C   UNL     1      47.229   1.903   6.247  0.00  0.00    +0.000 C 
ATOM     11  N   UNL     1      47.908   2.528   5.241  0.00  0.00    +0.000 N 
ATOM     12  O   UNL     1      47.091   0.684   6.229  0.00  0.00    +0.000 OA
ATOM     13  H   UNL     1      48.091   3.517   5.186  0.00  0.00    +0.000 HD
ATOM     14  H   UNL     1      48.288   1.940   4.510  0.00  0.00    +0.000 HD
ENDBRANCH   5  10
BRANCH   1  16
ATOM     15  C   UNL     1      43.262   2.783  12.828  0.00  0.00    +0.000 C 
ATOM     16  C   UNL     1      43.798   4.179  12.410  0.00  0.00    +0.000 C 
ATOM     17  C   UNL     1      42.570   5.089  12.286  0.00  0.00    +0.000 C 
ATOM     18  C   UNL     1      44.714   4.667  13.544  0.00  0.00    +0.000 C 
ENDBRANCH   1  16
BRANCH   9  19
ATOM     19  C   UNL     1      44.949   6.484  10.365  0.00  0.00    +0.000 C 
BRANCH  19  20
ATOM     20  C   UNL     1      45.825   7.081  11.445  0.00  0.00    +0.000 A 
ATOM     21  C   UNL     1      45.284   8.052  12.306  0.00  0.00    +0.000 A 
ATOM     22  C   UNL     1      46.085   8.685  13.257  0.00  0.00    +0.000 A 
ATOM     23  C   UNL     1      47.428   8.336  13.382  0.00  0.00    +0.000 A 
ATOM     24  C   UNL     1      47.962   7.333  12.580  0.00  0.00    +0.000 A 
ATOM     25  C   UNL     1      47.162   6.698  11.629  0.00  0.00    +0.000 A 
ENDBRANCH  19  20
ENDBRANCH   9  19
TORSDOF 4
ENDMDL
MODEL 2
REMARK VINA RESULT:    -5.992      3.256      5.513
REMARK INTER + INTRA:          -8.299
REMARK INTER:                  -7.453
REMARK INTRA:                  -0.847
REMARK UNBOUND:                -0.906
REMARK  Name = 
REMARK  7 active torsions:
REMARK  status: ('A' for Active; 'I' for Inactive)
REMARK    1  A    between atoms: C_1  and  C_2
REMARK    2  A    between atoms: C_2  and  C_3
REMARK    3  A    between atoms: C_2  and  C_4
REMARK    4  A    between atoms: C_2  and  C_5
REMARK    5  A    between atoms: C_9  and  C_10
REMARK    6  A    between atoms: N_16  and  C_17
REMARK    7  A    between atoms: C_17  and  C_18
REMARK                            x       y       z     vdW  Elec       q    Type
REMARK                         _______ _______ _______ _____ _____    ______ ____
ROOT
ATOM      1  C   UNL     1      48.076   6.749  14.336  0.00  0.00    +0.000 A 
ATOM      2  N   UNL     1      47.574   5.530  14.499  0.00  0.00    +0.000 NA
ATOM      3  C   UNL     1      46.782   5.277  13.421  0.00  0.00    +0.000 A 
ATOM      4  C   UNL     1      45.988   4.167  13.113  0.00  0.00    +0.000 A 
ATOM      5  C   UNL     1      45.250   4.222  11.926  0.00  0.00    +0.000 A 
ATOM      6  C   UNL     1      45.366   5.358  11.119  0.00  0.00    +0.000 A 
ATOM      7  N   UNL     1      46.137   6.453  11.376  0.00  0.00    +0.000 NA
ATOM      8  C   UNL     1      46.803   6.344  12.544  0.00  0.00    +0.000 A 
ATOM      9  N   UNL     1      47.609   7.290  13.142  0.00  0.00    +0.000 N 
ENDROOT
BRANCH   5  10
ATOM     10  C   UNL     1      44.332   3.146  11.485  0.00  0.00    +0.000 C 
ATOM     11  N   UNL     1      43.759   2.339  12.426  0.00  0.00    +0.000 N 
ATOM     12  O   UNL     1      44.076   2.980  10.297  0.00  0.00    +0.000 OA
ATOM     13  H   UNL     1      43.892   2.418  13.422  0.00  0.00    +0.000 HD
ATOM     14  H   UNL     1      43.121   1.628  12.093  0.00  0.00    +0.000 HD
ENDBRANCH   5  10
BRANCH   1  16
ATOM     15  C   UNL     1      49.007   6.512  16.648  0.00  0.00    +0.000 C 
ATOM     16  C   UNL     1      49.022   7.379  15.360  0.00  0.00    +0.000 C 
ATOM     17  C   UNL     1      48.586   8.786  15.788  0.00  0.00    +0.000 C 
ATOM     18  C   UNL     1      50.471   7.400  14.849  0.00  0.00    +0.000 C 
ENDBRANCH   1  16
BRANCH   9  19
ATOM     19  C   UNL     1      47.844   8.595  12.540  0.00  0.00    +0.000 C 
BRANCH  19  20
ATOM     20  C   UNL     1      49.223   8.749  11.935  0.00  0.00    +0.000 A 
ATOM     21  C   UNL     1      49.824   7.642  11.312  0.00  0.00    +0.000 A 
ATOM     22  C   UNL     1      51.127   7.723  10.818  0.00  0.00    +0.000 A 
ATOM     23  C   UNL     1      51.835   8.919  10.913  0.00  0.00    +0.000 A 
ATOM     24  C   UNL     1      51.231  10.041  11.470  0.00  0.00    +0.000 A 
ATOM     25  C   UNL     1      49.929   9.962  11.963  0.00  0.00    +0.000 A 
ENDBRANCH  19  20
ENDBRANCH   9  19
TORSDOF 4
ENDMDL
MODEL 3
REMARK VINA RESULT:    -5.727      4.315      6.174
REMARK INTER + INTRA:          -7.973
REMARK INTER:                  -7.156
REMARK INTRA:                  -0.817
REMARK UNBOUND:                -0.906
REMARK  Name = 
REMARK  7 active torsions:
REMARK  status: ('A' for Active; 'I' for Inactive)
REMARK    1  A    between atoms: C_1  and  C_2
REMARK    2  A    between atoms: C_2  and  C_3
REMARK    3  A    between atoms: C_2  and  C_4
REMARK    4  A    between atoms: C_2  and  C_5
REMARK    5  A    between atoms: C_9  and  C_10
REMARK    6  A    between atoms: N_16  and  C_17
REMARK    7  A    between atoms: C_17  and  C_18
REMARK                            x       y       z     vdW  Elec       q    Type
REMARK                         _______ _______ _______ _____ _____    ______ ____
ROOT
ATOM      1  C   UNL     1      47.762   4.818  16.056  0.00  0.00    +0.000 A 
ATOM      2  N   UNL     1      46.782   4.319  15.310  0.00  0.00    +0.000 NA
ATOM      3  C   UNL     1      46.782   5.013  14.138  0.00  0.00    +0.000 A 
ATOM      4  C   UNL     1      45.937   4.924  13.027  0.00  0.00    +0.000 A 
ATOM      5  C   UNL     1      46.174   5.813  11.973  0.00  0.00    +0.000 A 
ATOM      6  C   UNL     1      47.242   6.709  12.084  0.00  0.00    +0.000 A 
ATOM      7  N   UNL     1      48.096   6.819  13.142  0.00  0.00    +0.000 NA
ATOM      8  C   UNL     1      47.796   5.951  14.130  0.00  0.00    +0.000 A 
ATOM      9  N   UNL     1      48.403   5.840  15.363  0.00  0.00    +0.000 N 
ENDROOT
BRANCH   5  10
ATOM     10  C   UNL     1      45.342   5.870  10.750  0.00  0.00    +0.000 C 
ATOM     11  N   UNL     1      44.053   6.308  10.848  0.00  0.00    +0.000 N 
ATOM     12  O   UNL     1      45.797   5.542   9.659  0.00  0.00    +0.000 OA
ATOM     13  H   UNL     1      43.604   6.620  11.695  0.00  0.00    +0.000 HD
ATOM     14  H   UNL     1      43.517   6.356   9.990  0.00  0.00    +0.000 HD
ENDBRANCH   5  10
BRANCH   1  16
ATOM     15  C   UNL     1      47.397   2.889  17.610  0.00  0.00    +0.000 C 
ATOM     16  C   UNL     1      48.066   4.282  17.457  0.00  0.00    +0.000 C 
ATOM     17  C   UNL     1      47.485   5.160  18.572  0.00  0.00    +0.000 C 
ATOM     18  C   UNL     1      49.575   4.081  17.665  0.00  0.00    +0.000 C 
ENDBRANCH   1  16
BRANCH   9  19
ATOM     19  C   UNL     1      49.503   6.707  15.762  0.00  0.00    +0.000 C 
BRANCH  19  20
ATOM     20  C   UNL     1      49.101   7.796  16.732  0.00  0.00    +0.000 A 
ATOM     21  C   UNL     1      49.615   7.773  18.040  0.00  0.00    +0.000 A 
ATOM     22  C   UNL     1      49.201   8.713  18.985  0.00  0.00    +0.000 A 
ATOM     23  C   UNL     1      48.290   9.705  18.629  0.00  0.00    +0.000 A 
ATOM     24  C   UNL     1      47.820   9.779  17.322  0.00  0.00    +0.000 A 
ATOM     25  C   UNL     1      48.234   8.842  16.376  0.00  0.00    +0.000 A 
ENDBRANCH  19  20
ENDBRANCH   9  19
TORSDOF 4
ENDMDL
MODEL 4
REMARK VINA RESULT:    -5.665      4.800      7.690
REMARK INTER + INTRA:          -7.896
REMARK INTER:                  -7.014
REMARK INTRA:                  -0.882
REMARK UNBOUND:                -0.906
REMARK  Name = 
REMARK  7 active torsions:
REMARK  status: ('A' for Active; 'I' for Inactive)
REMARK    1  A    between atoms: C_1  and  C_2
REMARK    2  A    between atoms: C_2  and  C_3
REMARK    3  A    between atoms: C_2  and  C_4
REMARK    4  A    between atoms: C_2  and  C_5
REMARK    5  A    between atoms: C_9  and  C_10
REMARK    6  A    between atoms: N_16  and  C_17
REMARK    7  A    between atoms: C_17  and  C_18
REMARK                            x       y       z     vdW  Elec       q    Type
REMARK                         _______ _______ _______ _____ _____    ______ ____
ROOT
ATOM      1  C   UNL     1      47.647   6.653  13.658  0.00  0.00    +0.000 A 
ATOM      2  N   UNL     1      48.098   7.025  14.851  0.00  0.00    +0.000 NA
ATOM      3  C   UNL     1      48.035   5.931  15.660  0.00  0.00    +0.000 A 
ATOM      4  C   UNL     1      48.344   5.782  17.016  0.00  0.00    +0.000 A 
ATOM      5  C   UNL     1      48.137   4.519  17.580  0.00  0.00    +0.000 A 
ATOM      6  C   UNL     1      47.661   3.491  16.760  0.00  0.00    +0.000 A 
ATOM      7  N   UNL     1      47.360   3.592  15.434  0.00  0.00    +0.000 NA
ATOM      8  C   UNL     1      47.560   4.839  14.960  0.00  0.00    +0.000 A 
ATOM      9  N   UNL     1      47.291   5.309  13.692  0.00  0.00    +0.000 N 
ENDROOT
BRANCH   5  10
ATOM     10  C   UNL     1      48.377   4.214  19.009  0.00  0.00    +0.000 C 
ATOM     11  N   UNL     1      48.401   2.909  19.411  0.00  0.00    +0.000 N 
ATOM     12  O   UNL     1      48.562   5.110  19.826  0.00  0.00    +0.000 OA
ATOM     13  H   UNL     1      48.283   2.109  18.808  0.00  0.00    +0.000 HD
ATOM     14  H   UNL     1      48.587   2.733  20.390  0.00  0.00    +0.000 HD
ENDBRANCH   5  10
BRANCH   1  16
ATOM     15  C   UNL     1      48.394   8.896  12.833  0.00  0.00    +0.000 C 
ATOM     16  C   UNL     1      47.570   7.628  12.481  0.00  0.00    +0.000 C 
ATOM     17  C   UNL     1      46.142   8.112  12.199  0.00  0.00    +0.000 C 
ATOM     18  C   UNL     1      48.191   7.026  11.211  0.00  0.00    +0.000 C 
ENDBRANCH   1  16
BRANCH   9  19
ATOM     19  C   UNL     1      46.722   4.455  12.658  0.00  0.00    +0.000 C 
BRANCH  19  20
ATOM     20  C   UNL     1      45.294   4.803  12.298  0.00  0.00    +0.000 A 
ATOM     21  C   UNL     1      44.350   4.969  13.326  0.00  0.00    +0.000 A 
ATOM     22  C   UNL     1      43.007   5.207  13.029  0.00  0.00    +0.000 A 
ATOM     23  C   UNL     1      42.595   5.311  11.703  0.00  0.00    +0.000 A 
ATOM     24  C   UNL     1      43.528   5.212  10.676  0.00  0.00    +0.000 A 
ATOM     25  C   UNL     1      44.870   4.975  10.971  0.00  0.00    +0.000 A 
ENDBRANCH  19  20
ENDBRANCH   9  19
TORSDOF 4
ENDMDL
MODEL 5
REMARK VINA RESULT:    -5.485      3.650      6.419
REMARK INTER + INTRA:          -7.675
REMARK INTER:                  -7.077
REMARK INTRA:                  -0.597
REMARK UNBOUND:                -0.906
REMARK  Name = 
REMARK  7 active torsions:
REMARK  status: ('A' for Active; 'I' for Inactive)
REMARK    1  A    between atoms: C_1  and  C_2
REMARK    2  A    between atoms: C_2  and  C_3
REMARK    3  A    between atoms: C_2  and  C_4
REMARK    4  A    between atoms: C_2  and  C_5
REMARK    5  A    between atoms: C_9  and  C_10
REMARK    6  A    between atoms: N_16  and  C_17
REMARK    7  A    between atoms: C_17  and  C_18
REMARK                            x       y       z     vdW  Elec       q    Type
REMARK                         _______ _______ _______ _____ _____    ______ ____
ROOT
ATOM      1  C   UNL     1      48.341   8.101  12.913  0.00  0.00    +0.000 A 
ATOM      2  N   UNL     1      47.363   7.720  12.098  0.00  0.00    +0.000 NA
ATOM      3  C   UNL     1      46.929   6.506  12.537  0.00  0.00    +0.000 A 
ATOM      4  C   UNL     1      45.955   5.646  12.020  0.00  0.00    +0.000 A 
ATOM      5  C   UNL     1      45.758   4.432  12.687  0.00  0.00    +0.000 A 
ATOM      6  C   UNL     1      46.522   4.167  13.829  0.00  0.00    +0.000 A 
ATOM      7  N   UNL     1      47.471   4.983  14.371  0.00  0.00    +0.000 NA
ATOM      8  C   UNL     1      47.624   6.122  13.667  0.00  0.00    +0.000 A 
ATOM      9  N   UNL     1      48.540   7.130  13.889  0.00  0.00    +0.000 N 
ENDROOT
BRANCH   5  10
ATOM     10  C   UNL     1      44.795   3.400  12.239  0.00  0.00    +0.000 C 
ATOM     11  N   UNL     1      44.997   2.787  11.035  0.00  0.00    +0.000 N 
ATOM     12  O   UNL     1      43.835   3.085  12.934  0.00  0.00    +0.000 OA
ATOM     13  H   UNL     1      45.769   2.963  10.412  0.00  0.00    +0.000 HD
ATOM     14  H   UNL     1      44.333   2.072  10.768  0.00  0.00    +0.000 HD
ENDBRANCH   5  10
BRANCH   1  16
ATOM     15  C   UNL     1      48.732   9.997  11.326  0.00  0.00    +0.000 C 
ATOM     16  C   UNL     1      49.077   9.429  12.729  0.00  0.00    +0.000 C 
ATOM     17  C   UNL     1      50.603   9.276  12.763  0.00  0.00    +0.000 C 
ATOM     18  C   UNL     1      48.621  10.473  13.761  0.00  0.00    +0.000 C 
ENDBRANCH   1  16
BRANCH   9  19
ATOM     19  C   UNL     1      49.505   7.069  14.979  0.00  0.00    +0.000 C 
BRANCH  19  20
ATOM     20  C   UNL     1      48.930   7.454  16.325  0.00  0.00    +0.000 A 
ATOM     21  C   UNL     1      48.772   6.465  17.310  0.00  0.00    +0.000 A 
ATOM     22  C   UNL     1      48.168   6.767  18.532  0.00  0.00    +0.000 A 
ATOM     23  C   UNL     1      47.742   8.066  18.797  0.00  0.00    +0.000 A 
ATOM     24  C   UNL     1      47.949   9.070  17.856  0.00  0.00    +0.000 A 
ATOM     25  C   UNL     1      48.553   8.770  16.635  0.00  0.00    +0.000 A 
ENDBRANCH  19  20
ENDBRANCH   9  19
TORSDOF 4
ENDMDL
MODEL 6
REMARK VINA RESULT:    -5.433      4.588      6.965
REMARK INTER + INTRA:          -7.610
REMARK INTER:                  -7.012
REMARK INTRA:                  -0.598
REMARK UNBOUND:                -0.906
REMARK  Name = 
REMARK  7 active torsions:
REMARK  status: ('A' for Active; 'I' for Inactive)
REMARK    1  A    between atoms: C_1  and  C_2
REMARK    2  A    between atoms: C_2  and  C_3
REMARK    3  A    between atoms: C_2  and  C_4
REMARK    4  A    between atoms: C_2  and  C_5
REMARK    5  A    between atoms: C_9  and  C_10
REMARK    6  A    between atoms: N_16  and  C_17
REMARK    7  A    between atoms: C_17  and  C_18
REMARK                            x       y       z     vdW  Elec       q    Type
REMARK                         _______ _______ _______ _____ _____    ______ ____
ROOT
ATOM      1  C   UNL     1      48.717   6.860  15.111  0.00  0.00    +0.000 A 
ATOM      2  N   UNL     1      48.410   7.136  13.848  0.00  0.00    +0.000 NA
ATOM      3  C   UNL     1      47.456   6.242  13.465  0.00  0.00    +0.000 A 
ATOM      4  C   UNL     1      46.821   6.060  12.233  0.00  0.00    +0.000 A 
ATOM      5  C   UNL     1      45.895   5.015  12.142  0.00  0.00    +0.000 A 
ATOM      6  C   UNL     1      45.649   4.241  13.280  0.00  0.00    +0.000 A 
ATOM      7  N   UNL     1      46.237   4.393  14.502  0.00  0.00    +0.000 NA
ATOM      8  C   UNL     1      47.133   5.401  14.513  0.00  0.00    +0.000 A 
ATOM      9  N   UNL     1      47.955   5.782  15.552  0.00  0.00    +0.000 N 
ENDROOT
BRANCH   5  10
ATOM     10  C   UNL     1      45.172   4.670  10.897  0.00  0.00    +0.000 C 
ATOM     11  N   UNL     1      45.301   5.488   9.810  0.00  0.00    +0.000 N 
ATOM     12  O   UNL     1      44.475   3.663  10.827  0.00  0.00    +0.000 OA
ATOM     13  H   UNL     1      45.869   6.319   9.768  0.00  0.00    +0.000 HD
ATOM     14  H   UNL     1      44.811   5.213   8.969  0.00  0.00    +0.000 HD
ENDBRANCH   5  10
BRANCH   1  16
ATOM     15  C   UNL     1      49.912   9.058  15.215  0.00  0.00    +0.000 C 
ATOM     16  C   UNL     1      49.763   7.665  15.885  0.00  0.00    +0.000 C 
ATOM     17  C   UNL     1      51.156   7.024  15.851  0.00  0.00    +0.000 C 
ATOM     18  C   UNL     1      49.322   7.910  17.337  0.00  0.00    +0.000 C 
ENDBRANCH   1  16
BRANCH   9  19
ATOM     19  C   UNL     1      47.948   5.092  16.835  0.00  0.00    +0.000 C 
BRANCH  19  20
ATOM     20  C   UNL     1      49.028   4.040  16.967  0.00  0.00    +0.000 A 
ATOM     21  C   UNL     1      48.770   2.733  16.520  0.00  0.00    +0.000 A 
ATOM     22  C   UNL     1      49.711   1.719  16.704  0.00  0.00    +0.000 A 
ATOM     23  C   UNL     1      50.934   2.003  17.308  0.00  0.00    +0.000 A 
ATOM     24  C   UNL     1      51.229   3.305  17.698  0.00  0.00    +0.000 A 
ATOM     25  C   UNL     1      50.290   4.320  17.514  0.00  0.00    +0.000 A 
ENDBRANCH  19  20
ENDBRANCH   9  19
TORSDOF 4
ENDMDL
MODEL 7
REMARK VINA RESULT:    -5.294      4.508      6.307
REMARK INTER + INTRA:          -7.438
REMARK INTER:                  -6.862
REMARK INTRA:                  -0.576
REMARK UNBOUND:                -0.906
REMARK  Name = 
REMARK  7 active torsions:
REMARK  status: ('A' for Active; 'I' for Inactive)
REMARK    1  A    between atoms: C_1  and  C_2
REMARK    2  A    between atoms: C_2  and  C_3
REMARK    3  A    between atoms: C_2  and  C_4
REMARK    4  A    between atoms: C_2  and  C_5
REMARK    5  A    between atoms: C_9  and  C_10
REMARK    6  A    between atoms: N_16  and  C_17
REMARK    7  A    between atoms: C_17  and  C_18
REMARK                            x       y       z     vdW  Elec       q    Type
REMARK                         _______ _______ _______ _____ _____    ______ ____
ROOT
ATOM      1  C   UNL     1      47.925   4.617  16.168  0.00  0.00    +0.000 A 
ATOM      2  N   UNL     1      47.215   3.912  15.295  0.00  0.00    +0.000 NA
ATOM      3  C   UNL     1      46.994   4.717  14.218  0.00  0.00    +0.000 A 
ATOM      4  C   UNL     1      46.270   4.489  13.044  0.00  0.00    +0.000 A 
ATOM      5  C   UNL     1      46.197   5.543  12.126  0.00  0.00    +0.000 A 
ATOM      6  C   UNL     1      46.862   6.736  12.426  0.00  0.00    +0.000 A 
ATOM      7  N   UNL     1      47.588   6.993  13.552  0.00  0.00    +0.000 NA
ATOM      8  C   UNL     1      47.598   5.946  14.401  0.00  0.00    +0.000 A 
ATOM      9  N   UNL     1      48.170   5.887  15.655  0.00  0.00    +0.000 N 
ENDROOT
BRANCH   5  10
ATOM     10  C   UNL     1      45.434   5.471  10.859  0.00  0.00    +0.000 C 
ATOM     11  N   UNL     1      44.110   5.138  10.903  0.00  0.00    +0.000 N 
ATOM     12  O   UNL     1      45.970   5.715   9.783  0.00  0.00    +0.000 OA
ATOM     13  H   UNL     1      43.583   4.946  11.740  0.00  0.00    +0.000 HD
ATOM     14  H   UNL     1      43.613   5.118  10.022  0.00  0.00    +0.000 HD
ENDBRANCH   5  10
BRANCH   1  16
ATOM     15  C   UNL     1      47.486   2.794  17.827  0.00  0.00    +0.000 C 
ATOM     16  C   UNL     1      48.366   4.034  17.512  0.00  0.00    +0.000 C 
ATOM     17  C   UNL     1      48.165   5.007  18.681  0.00  0.00    +0.000 C 
ATOM     18  C   UNL     1      49.824   3.550  17.464  0.00  0.00    +0.000 C 
ENDBRANCH   1  16
BRANCH   9  19
ATOM     19  C   UNL     1      48.869   7.024  16.238  0.00  0.00    +0.000 C 
BRANCH  19  20
ATOM     20  C   UNL     1      50.336   7.091  15.872  0.00  0.00    +0.000 A 
ATOM     21  C   UNL     1      51.267   6.373  16.642  0.00  0.00    +0.000 A 
ATOM     22  C   UNL     1      52.635   6.479  16.386  0.00  0.00    +0.000 A 
ATOM     23  C   UNL     1      53.089   7.278  15.339  0.00  0.00    +0.000 A 
ATOM     24  C   UNL     1      52.175   7.945  14.529  0.00  0.00    +0.000 A 
ATOM     25  C   UNL     1      50.808   7.839  14.782  0.00  0.00    +0.000 A 
ENDBRANCH  19  20
ENDBRANCH   9  19
TORSDOF 4
ENDMDL
MODEL 8
REMARK VINA RESULT:    -4.920      7.119      9.208
REMARK INTER + INTRA:          -6.977
REMARK INTER:                  -6.498
REMARK INTRA:                  -0.479
REMARK UNBOUND:                -0.906
REMARK  Name = 
REMARK  7 active torsions:
REMARK  status: ('A' for Active; 'I' for Inactive)
REMARK    1  A    between atoms: C_1  and  C_2
REMARK    2  A    between atoms: C_2  and  C_3
REMARK    3  A    between atoms: C_2  and  C_4
REMARK    4  A    between atoms: C_2  and  C_5
REMARK    5  A    between atoms: C_9  and  C_10
REMARK    6  A    between atoms: N_16  and  C_17
REMARK    7  A    between atoms: C_17  and  C_18
REMARK                            x       y       z     vdW  Elec       q    Type
REMARK                         _______ _______ _______ _____ _____    ______ ____
ROOT
ATOM      1  C   UNL     1      49.574   5.770  18.440  0.00  0.00    +0.000 A 
ATOM      2  N   UNL     1      50.804   5.406  18.784  0.00  0.00    +0.000 NA
ATOM      3  C   UNL     1      51.014   4.167  18.262  0.00  0.00    +0.000 A 
ATOM      4  C   UNL     1      52.116   3.311  18.360  0.00  0.00    +0.000 A 
ATOM      5  C   UNL     1      52.014   2.066  17.731  0.00  0.00    +0.000 A 
ATOM      6  C   UNL     1      50.840   1.765  17.032  0.00  0.00    +0.000 A 
ATOM      7  N   UNL     1      49.750   2.575  16.903  0.00  0.00    +0.000 NA
ATOM      8  C   UNL     1      49.907   3.747  17.551  0.00  0.00    +0.000 A 
ATOM      9  N   UNL     1      48.982   4.761  17.687  0.00  0.00    +0.000 N 
ENDROOT
BRANCH   5  10
ATOM     10  C   UNL     1      53.077   1.036  17.779  0.00  0.00    +0.000 C 
ATOM     11  N   UNL     1      52.774  -0.203  18.267  0.00  0.00    +0.000 N 
ATOM     12  O   UNL     1      54.212   1.278  17.382  0.00  0.00    +0.000 OA
ATOM     13  H   UNL     1      51.866  -0.498  18.591  0.00  0.00    +0.000 HD
ATOM     14  H   UNL     1      53.517  -0.890  18.267  0.00  0.00    +0.000 HD
ENDBRANCH   5  10
BRANCH   1  16
ATOM     15  C   UNL     1      49.713   7.609  20.134  0.00  0.00    +0.000 C 
ATOM     16  C   UNL     1      48.982   7.119  18.855  0.00  0.00    +0.000 C 
ATOM     17  C   UNL     1      47.495   7.033  19.219  0.00  0.00    +0.000 C 
ATOM     18  C   UNL     1      49.207   8.187  17.772  0.00  0.00    +0.000 C 
ENDBRANCH   1  16
BRANCH   9  19
ATOM     19  C   UNL     1      47.647   4.671  17.111  0.00  0.00    +0.000 C 
BRANCH  19  20
ATOM     20  C   UNL     1      47.587   5.053  15.649  0.00  0.00    +0.000 A 
ATOM     21  C   UNL     1      48.313   6.171  15.203  0.00  0.00    +0.000 A 
ATOM     22  C   UNL     1      48.214   6.603  13.879  0.00  0.00    +0.000 A 
ATOM     23  C   UNL     1      47.414   5.907  12.976  0.00  0.00    +0.000 A 
ATOM     24  C   UNL     1      46.739   4.761  13.387  0.00  0.00    +0.000 A 
ATOM     25  C   UNL     1      46.838   4.328  14.709  0.00  0.00    +0.000 A 
ENDBRANCH  19  20
ENDBRANCH   9  19
TORSDOF 4
ENDMDL
MODEL 9
REMARK VINA RESULT:    -4.865      6.023      8.553
REMARK INTER + INTRA:          -6.909
REMARK INTER:                  -6.337
REMARK INTRA:                  -0.572
REMARK UNBOUND:                -0.906
REMARK  Name = 
REMARK  7 active torsions:
REMARK  status: ('A' for Active; 'I' for Inactive)
REMARK    1  A    between atoms: C_1  and  C_2
REMARK    2  A    between atoms: C_2  and  C_3
REMARK    3  A    between atoms: C_2  and  C_4
REMARK    4  A    between atoms: C_2  and  C_5
REMARK    5  A    between atoms: C_9  and  C_10
REMARK    6  A    between atoms: N_16  and  C_17
REMARK    7  A    between atoms: C_17  and  C_18
REMARK                            x       y       z     vdW  Elec       q    Type
REMARK                         _______ _______ _______ _____ _____    ______ ____
ROOT
ATOM      1  C   UNL     1      50.111   6.799  16.425  0.00  0.00    +0.000 A 
ATOM      2  N   UNL     1      49.576   7.142  15.258  0.00  0.00    +0.000 NA
ATOM      3  C   UNL     1      48.568   6.261  15.008  0.00  0.00    +0.000 A 
ATOM      4  C   UNL     1      47.715   6.142  13.906  0.00  0.00    +0.000 A 
ATOM      5  C   UNL     1      46.788   5.094  13.928  0.00  0.00    +0.000 A 
ATOM      6  C   UNL     1      46.757   4.254  15.046  0.00  0.00    +0.000 A 
ATOM      7  N   UNL     1      47.562   4.344  16.144  0.00  0.00    +0.000 NA
ATOM      8  C   UNL     1      48.444   5.359  16.047  0.00  0.00    +0.000 A 
ATOM      9  N   UNL     1      49.445   5.690  16.936  0.00  0.00    +0.000 N 
ENDROOT
BRANCH   5  10
ATOM     10  C   UNL     1      45.848   4.811  12.820  0.00  0.00    +0.000 C 
ATOM     11  N   UNL     1      44.969   3.774  12.948  0.00  0.00    +0.000 N 
ATOM     12  O   UNL     1      45.842   5.498  11.804  0.00  0.00    +0.000 OA
ATOM     13  H   UNL     1      44.885   3.174  13.754  0.00  0.00    +0.000 HD
ATOM     14  H   UNL     1      44.326   3.620  12.182  0.00  0.00    +0.000 HD
ENDBRANCH   5  10
BRANCH   1  16
ATOM     15  C   UNL     1      52.604   6.849  16.658  0.00  0.00    +0.000 C 
ATOM     16  C   UNL     1      51.282   7.571  17.036  0.00  0.00    +0.000 C 
ATOM     17  C   UNL     1      51.239   7.605  18.569  0.00  0.00    +0.000 C 
ATOM     18  C   UNL     1      51.371   8.997  16.471  0.00  0.00    +0.000 C 
ENDBRANCH   1  16
BRANCH   9  19
ATOM     19  C   UNL     1      49.675   4.929  18.156  0.00  0.00    +0.000 C 
BRANCH  19  20
ATOM     20  C   UNL     1      50.688   3.815  17.998  0.00  0.00    +0.000 A 
ATOM     21  C   UNL     1      50.299   2.621  17.368  0.00  0.00    +0.000 A 
ATOM     22  C   UNL     1      51.180   1.542  17.280  0.00  0.00    +0.000 A 
ATOM     23  C   UNL     1      52.471   1.653  17.793  0.00  0.00    +0.000 A 
ATOM     24  C   UNL     1      52.891   2.850  18.363  0.00  0.00    +0.000 A 
ATOM     25  C   UNL     1      52.012   3.929  18.450  0.00  0.00    +0.000 A 
ENDBRANCH  19  20
ENDBRANCH   9  19
TORSDOF 4
ENDMDL
