MODEL 1
REMARK VINA RESULT:    -7.766      0.000      0.000
REMARK INTER + INTRA:         -11.476
REMARK INTER:                 -10.490
REMARK INTRA:                  -0.986
REMARK UNBOUND:                -0.986
REMARK  Name = 
REMARK  6 active torsions:
REMARK  status: ('A' for Active; 'I' for Inactive)
REMARK    1  A    between atoms: C_2  and  C_25
REMARK    2  A    between atoms: N_3  and  C_4
REMARK    3  A    between atoms: C_4  and  C_5
REMARK    4  A    between atoms: C_8  and  C_9
REMARK    5  A    between atoms: C_9  and  N_10
REMARK    6  A    between atoms: C_11  and  C_13
REMARK                            x       y       z     vdW  Elec       q    Type
REMARK                         _______ _______ _______ _____ _____    ______ ____
ROOT
ATOM      1  C   UNL     1      44.685   5.036  11.285  0.00  0.00    +0.000 A 
ATOM      2  C   UNL     1      44.501   6.396  11.168  0.00  0.00    +0.000 A 
ATOM      3  N   UNL     1      45.213   7.312  11.854  0.00  0.00    +0.000 NA
ATOM      4  C   UNL     1      46.161   6.843  12.691  0.00  0.00    +0.000 A 
ATOM      5  N   UNL     1      46.390   5.531  12.913  0.00  0.00    +0.000 NA
ATOM      6  C   UNL     1      45.650   4.658  12.199  0.00  0.00    +0.000 A 
ENDROOT
BRANCH   1   7
ATOM      7  C   UNL     1      43.877   4.063  10.499  0.00  0.00    +0.000 C 
BRANCH   7  10
ATOM      8  O   UNL     1      45.055   4.434   8.072  0.00  0.00    +0.000 OA
ATOM      9  C   UNL     1      45.233   3.343   8.612  0.00  0.00    +0.000 C 
ATOM     10  N   UNL     1      44.661   3.050   9.837  0.00  0.00    +0.000 N 
ATOM     11  H   UNL     1      44.995   2.224  10.324  0.00  0.00    +0.000 HD
BRANCH   9  12
ATOM     12  C   UNL     1      46.046   2.298   8.027  0.00  0.00    +0.000 A 
ATOM     13  C   UNL     1      47.021   2.380   7.047  0.00  0.00    +0.000 A 
ATOM     14  C   UNL     1      47.474   1.066   6.810  0.00  0.00    +0.000 A 
ATOM     15  C   UNL     1      46.752   0.255   7.656  0.00  0.00    +0.000 A 
ATOM     16  O   UNL     1      45.893   0.992   8.411  0.00  0.00    +0.000 OA
ENDBRANCH   9  12
ENDBRANCH   7  10
ENDBRANCH   1   7
BRANCH   4  17
ATOM     17  C   UNL     1      47.010   7.867  13.404  0.00  0.00    +0.000 C 
BRANCH  17  18
ATOM     18  N   UNL     1      47.591   7.394  14.642  0.00  0.00    +0.000 N 
ATOM     19  C   UNL     1      48.915   7.031  14.660  0.00  0.00    +0.000 C 
ATOM     20  O   UNL     1      49.583   6.962  13.632  0.00  0.00    +0.000 OA
ATOM     21  H   UNL     1      47.177   7.761  15.495  0.00  0.00    +0.000 HD
BRANCH  19  22
ATOM     22  C   UNL     1      49.466   6.640  15.958  0.00  0.00    +0.000 A 
ATOM     23  C   UNL     1      50.392   7.442  16.611  0.00  0.00    +0.000 A 
ATOM     24  S   UNL     1      51.249   6.597  17.826  0.00  0.00    +0.000 S 
ATOM     25  C   UNL     1      50.273   5.217  17.614  0.00  0.00    +0.000 A 
ATOM     26  N   UNL     1      50.522   4.052  18.268  0.00  0.00    +0.000 NA
ATOM     27  C   UNL     1      49.643   3.123  18.058  0.00  0.00    +0.000 A 
ATOM     28  N   UNL     1      48.504   3.274  17.317  0.00  0.00    +0.000 N 
ATOM     29  C   UNL     1      48.208   4.439  16.650  0.00  0.00    +0.000 A 
ATOM     30  O   UNL     1      47.148   4.599  16.067  0.00  0.00    +0.000 OA
ATOM     31  C   UNL     1      49.241   5.450  16.735  0.00  0.00    +0.000 A 
ATOM     32  H   UNL     1      47.814   2.543  17.270  0.00  0.00    +0.000 HD
ENDBRANCH  19  22
ENDBRANCH  17  18
ENDBRANCH   4  17
TORSDOF 6
ENDMDL
MODEL 2
REMARK VINA RESULT:    -7.577      1.697      1.994
REMARK INTER + INTRA:         -11.220
REMARK INTER:                 -10.302
REMARK INTRA:                  -0.918
REMARK UNBOUND:                -0.986
REMARK  Name = 
REMARK  6 active torsions:
REMARK  status: ('A' for Active; 'I' for Inactive)
REMARK    1  A    between atoms: C_2  and  C_25
REMARK    2  A    between atoms: N_3  and  C_4
REMARK    3  A    between atoms: C_4  and  C_5
REMARK    4  A    between atoms: C_8  and  C_9
REMARK    5  A    between atoms: C_9  and  N_10
REMARK    6  A    between atoms: C_11  and  C_13
REMARK                            x       y       z     vdW  Elec       q    Type
REMARK                         _______ _______ _______ _____ _____    ______ ____
ROOT
ATOM      1  C   UNL     1      44.875   3.696  12.094  0.00  0.00    +0.000 A 
ATOM      2  C   UNL     1      44.504   4.975  12.446  0.00  0.00    +0.000 A 
ATOM      3  N   UNL     1      45.193   5.746  13.310  0.00  0.00    +0.000 NA
ATOM      4  C   UNL     1      46.314   5.213  13.840  0.00  0.00    +0.000 A 
ATOM      5  N   UNL     1      46.739   3.954  13.598  0.00  0.00    +0.000 NA
ATOM      6  C   UNL     1      46.012   3.228  12.724  0.00  0.00    +0.000 A 
ENDROOT
BRANCH   1   7
ATOM      7  C   UNL     1      44.083   2.886  11.128  0.00  0.00    +0.000 C 
BRANCH   7  10
ATOM      8  O   UNL     1      44.598   4.371   8.903  0.00  0.00    +0.000 OA
ATOM      9  C   UNL     1      45.069   3.235   8.932  0.00  0.00    +0.000 C 
ATOM     10  N   UNL     1      44.848   2.396  10.009  0.00  0.00    +0.000 N 
ATOM     11  H   UNL     1      45.415   1.555  10.071  0.00  0.00    +0.000 HD
BRANCH   9  12
ATOM     12  C   UNL     1      45.885   2.696   7.865  0.00  0.00    +0.000 A 
ATOM     13  C   UNL     1      46.603   1.513   7.811  0.00  0.00    +0.000 A 
ATOM     14  C   UNL     1      47.259   1.488   6.564  0.00  0.00    +0.000 A 
ATOM     15  C   UNL     1      46.908   2.655   5.925  0.00  0.00    +0.000 A 
ATOM     16  O   UNL     1      46.062   3.390   6.697  0.00  0.00    +0.000 OA
ENDBRANCH   9  12
ENDBRANCH   7  10
ENDBRANCH   1   7
BRANCH   4  17
ATOM     17  C   UNL     1      47.128   6.101  14.750  0.00  0.00    +0.000 C 
BRANCH  17  18
ATOM     18  N   UNL     1      47.877   5.383  15.759  0.00  0.00    +0.000 N 
ATOM     19  C   UNL     1      49.156   5.788  16.051  0.00  0.00    +0.000 C 
ATOM     20  O   UNL     1      49.732   6.647  15.389  0.00  0.00    +0.000 OA
ATOM     21  H   UNL     1      47.327   4.946  16.493  0.00  0.00    +0.000 HD
BRANCH  19  22
ATOM     22  C   UNL     1      49.834   5.078  17.136  0.00  0.00    +0.000 A 
ATOM     23  C   UNL     1      50.305   5.759  18.250  0.00  0.00    +0.000 A 
ATOM     24  S   UNL     1      51.458   4.854  19.131  0.00  0.00    +0.000 S 
ATOM     25  C   UNL     1      51.204   3.489  18.145  0.00  0.00    +0.000 A 
ATOM     26  N   UNL     1      51.954   2.362  18.267  0.00  0.00    +0.000 NA
ATOM     27  C   UNL     1      51.584   1.388  17.498  0.00  0.00    +0.000 A 
ATOM     28  N   UNL     1      50.493   1.410  16.673  0.00  0.00    +0.000 N 
ATOM     29  C   UNL     1      49.701   2.524  16.529  0.00  0.00    +0.000 A 
ATOM     30  O   UNL     1      48.678   2.509  15.863  0.00  0.00    +0.000 OA
ATOM     31  C   UNL     1      50.172   3.684  17.256  0.00  0.00    +0.000 A 
ATOM     32  H   UNL     1      50.205   0.587  16.171  0.00  0.00    +0.000 HD
ENDBRANCH  19  22
ENDBRANCH  17  18
ENDBRANCH   4  17
TORSDOF 6
ENDMDL
MODEL 3
REMARK VINA RESULT:    -7.495      1.927      3.455
REMARK INTER + INTRA:         -11.110
REMARK INTER:                 -10.306
REMARK INTRA:                  -0.804
REMARK UNBOUND:                -0.986
REMARK  Name = 
REMARK  6 active torsions:
REMARK  status: ('A' for Active; 'I' for Inactive)
REMARK    1  A    between atoms: C_2  and  C_25
REMARK    2  A    between atoms: N_3  and  C_4
REMARK    3  A    between atoms: C_4  and  C_5
REMARK    4  A    between atoms: C_8  and  C_9
REMARK    5  A    between atoms: C_9  and  N_10
REMARK    6  A    between atoms: C_11  and  C_13
REMARK                            x       y       z     vdW  Elec       q    Type
REMARK                         _______ _______ _______ _____ _____    ______ ____
ROOT
ATOM      1  C   UNL     1      44.929   4.520  11.544  0.00  0.00    +0.000 A 
ATOM      2  C   UNL     1      45.296   3.331  12.137  0.00  0.00    +0.000 A 
ATOM      3  N   UNL     1      46.005   3.249  13.279  0.00  0.00    +0.000 NA
ATOM      4  C   UNL     1      46.357   4.415  13.862  0.00  0.00    +0.000 A 
ATOM      5  N   UNL     1      46.088   5.631  13.341  0.00  0.00    +0.000 NA
ATOM      6  C   UNL     1      45.373   5.654  12.197  0.00  0.00    +0.000 A 
ENDROOT
BRANCH   1   7
ATOM      7  C   UNL     1      44.137   4.557  10.284  0.00  0.00    +0.000 C 
BRANCH   7  10
ATOM      8  O   UNL     1      46.179   5.403   8.691  0.00  0.00    +0.000 OA
ATOM      9  C   UNL     1      45.742   4.273   8.478  0.00  0.00    +0.000 C 
ATOM     10  N   UNL     1      44.693   3.759   9.220  0.00  0.00    +0.000 N 
ATOM     11  H   UNL     1      44.504   2.765   9.137  0.00  0.00    +0.000 HD
BRANCH   9  12
ATOM     12  C   UNL     1      46.283   3.400   7.457  0.00  0.00    +0.000 A 
ATOM     13  C   UNL     1      46.682   2.078   7.545  0.00  0.00    +0.000 A 
ATOM     14  C   UNL     1      47.174   1.713   6.275  0.00  0.00    +0.000 A 
ATOM     15  C   UNL     1      47.050   2.832   5.483  0.00  0.00    +0.000 A 
ATOM     16  O   UNL     1      46.496   3.859   6.184  0.00  0.00    +0.000 OA
ENDBRANCH   9  12
ENDBRANCH   7  10
ENDBRANCH   1   7
BRANCH   4  17
ATOM     17  C   UNL     1      47.086   4.326  15.181  0.00  0.00    +0.000 C 
BRANCH  17  18
ATOM     18  N   UNL     1      47.658   5.580  15.624  0.00  0.00    +0.000 N 
ATOM     19  C   UNL     1      48.511   5.578  16.700  0.00  0.00    +0.000 C 
ATOM     20  O   UNL     1      48.693   4.573  17.382  0.00  0.00    +0.000 OA
ATOM     21  H   UNL     1      47.783   6.288  14.906  0.00  0.00    +0.000 HD
BRANCH  19  22
ATOM     22  C   UNL     1      49.122   6.861  17.050  0.00  0.00    +0.000 A 
ATOM     23  C   UNL     1      49.384   7.189  18.372  0.00  0.00    +0.000 A 
ATOM     24  S   UNL     1      49.630   8.867  18.595  0.00  0.00    +0.000 S 
ATOM     25  C   UNL     1      49.568   9.142  16.915  0.00  0.00    +0.000 A 
ATOM     26  N   UNL     1      49.599  10.394  16.389  0.00  0.00    +0.000 NA
ATOM     27  C   UNL     1      49.623  10.429  15.093  0.00  0.00    +0.000 A 
ATOM     28  N   UNL     1      49.693   9.332  14.281  0.00  0.00    +0.000 N 
ATOM     29  C   UNL     1      49.677   8.048  14.772  0.00  0.00    +0.000 A 
ATOM     30  O   UNL     1      49.831   7.077  14.049  0.00  0.00    +0.000 OA
ATOM     31  C   UNL     1      49.496   7.965  16.206  0.00  0.00    +0.000 A 
ATOM     32  H   UNL     1      49.804   9.430  13.285  0.00  0.00    +0.000 HD
ENDBRANCH  19  22
ENDBRANCH  17  18
ENDBRANCH   4  17
TORSDOF 6
ENDMDL
MODEL 4
REMARK VINA RESULT:    -7.363      4.252      9.291
REMARK INTER + INTRA:         -10.931
REMARK INTER:                 -10.386
REMARK INTRA:                  -0.545
REMARK UNBOUND:                -0.986
REMARK  Name = 
REMARK  6 active torsions:
REMARK  status: ('A' for Active; 'I' for Inactive)
REMARK    1  A    between atoms: C_2  and  C_25
REMARK    2  A    between atoms: N_3  and  C_4
REMARK    3  A    between atoms: C_4  and  C_5
REMARK    4  A    between atoms: C_8  and  C_9
REMARK    5  A    between atoms: C_9  and  N_10
REMARK    6  A    between atoms: C_11  and  C_13
REMARK                            x       y       z     vdW  Elec       q    Type
REMARK                         _______ _______ _______ _____ _____    ______ ____
ROOT
ATOM      1  C   UNL     1      51.276   3.045  17.771  0.00  0.00    +0.000 A 
ATOM      2  C   UNL     1      50.650   4.222  18.118  0.00  0.00    +0.000 A 
ATOM      3  N   UNL     1      49.365   4.504  17.828  0.00  0.00    +0.000 NA
ATOM      4  C   UNL     1      48.670   3.556  17.163  0.00  0.00    +0.000 A 
ATOM      5  N   UNL     1      49.201   2.390  16.737  0.00  0.00    +0.000 NA
ATOM      6  C   UNL     1      50.491   2.160  17.057  0.00  0.00    +0.000 A 
ENDROOT
BRANCH   1   7
ATOM      7  C   UNL     1      52.698   2.779  18.122  0.00  0.00    +0.000 C 
BRANCH   7  10
ATOM      8  O   UNL     1      54.529   1.226  16.834  0.00  0.00    +0.000 OA
ATOM      9  C   UNL     1      53.928   0.709  17.775  0.00  0.00    +0.000 C 
ATOM     10  N   UNL     1      52.965   1.408  18.481  0.00  0.00    +0.000 N 
ATOM     11  H   UNL     1      52.646   1.009  19.358  0.00  0.00    +0.000 HD
BRANCH   9  12
ATOM     12  C   UNL     1      54.180  -0.646  18.219  0.00  0.00    +0.000 A 
ATOM     13  C   UNL     1      55.120  -1.561  17.778  0.00  0.00    +0.000 A 
ATOM     14  C   UNL     1      54.913  -2.748  18.511  0.00  0.00    +0.000 A 
ATOM     15  C   UNL     1      53.858  -2.492  19.357  0.00  0.00    +0.000 A 
ATOM     16  O   UNL     1      53.414  -1.215  19.202  0.00  0.00    +0.000 OA
ENDBRANCH   9  12
ENDBRANCH   7  10
ENDBRANCH   1   7
BRANCH   4  17
ATOM     17  C   UNL     1      47.210   3.837  16.903  0.00  0.00    +0.000 C 
BRANCH  17  18
ATOM     18  N   UNL     1      46.970   4.699  15.765  0.00  0.00    +0.000 N 
ATOM     19  C   UNL     1      46.956   4.150  14.507  0.00  0.00    +0.000 C 
ATOM     20  O   UNL     1      47.277   2.983  14.304  0.00  0.00    +0.000 OA
ATOM     21  H   UNL     1      46.397   5.519  15.943  0.00  0.00    +0.000 HD
BRANCH  19  22
ATOM     22  C   UNL     1      46.626   5.054  13.404  0.00  0.00    +0.000 A 
ATOM     23  C   UNL     1      47.504   6.058  13.018  0.00  0.00    +0.000 A 
ATOM     24  S   UNL     1      46.743   7.267  12.078  0.00  0.00    +0.000 S 
ATOM     25  C   UNL     1      45.292   6.376  12.028  0.00  0.00    +0.000 A 
ATOM     26  N   UNL     1      44.159   6.876  11.469  0.00  0.00    +0.000 NA
ATOM     27  C   UNL     1      43.165   6.045  11.441  0.00  0.00    +0.000 A 
ATOM     28  N   UNL     1      43.221   4.742  11.852  0.00  0.00    +0.000 N 
ATOM     29  C   UNL     1      44.350   4.193  12.411  0.00  0.00    +0.000 A 
ATOM     30  O   UNL     1      44.424   3.007  12.690  0.00  0.00    +0.000 OA
ATOM     31  C   UNL     1      45.435   5.133  12.600  0.00  0.00    +0.000 A 
ATOM     32  H   UNL     1      42.440   4.121  11.716  0.00  0.00    +0.000 HD
ENDBRANCH  19  22
ENDBRANCH  17  18
ENDBRANCH   4  17
TORSDOF 6
ENDMDL
MODEL 5
REMARK VINA RESULT:    -7.312      2.488      3.129
REMARK INTER + INTRA:         -10.863
REMARK INTER:                 -10.095
REMARK INTRA:                  -0.768
REMARK UNBOUND:                -0.986
REMARK  Name = 
REMARK  6 active torsions:
REMARK  status: ('A' for Active; 'I' for Inactive)
REMARK    1  A    between atoms: C_2  and  C_25
REMARK    2  A    between atoms: N_3  and  C_4
REMARK    3  A    between atoms: C_4  and  C_5
REMARK    4  A    between atoms: C_8  and  C_9
REMARK    5  A    between atoms: C_9  and  N_10
REMARK    6  A    between atoms: C_11  and  C_13
REMARK                            x       y       z     vdW  Elec       q    Type
REMARK                         _______ _______ _______ _____ _____    ______ ____
ROOT
ATOM      1  C   UNL     1      45.295   4.620  11.842  0.00  0.00    +0.000 A 
ATOM      2  C   UNL     1      45.659   3.402  12.373  0.00  0.00    +0.000 A 
ATOM      3  N   UNL     1      46.328   3.258  13.533  0.00  0.00    +0.000 NA
ATOM      4  C   UNL     1      46.640   4.389  14.200  0.00  0.00    +0.000 A 
ATOM      5  N   UNL     1      46.371   5.632  13.745  0.00  0.00    +0.000 NA
ATOM      6  C   UNL     1      45.698   5.717  12.580  0.00  0.00    +0.000 A 
ENDROOT
BRANCH   1   7
ATOM      7  C   UNL     1      44.548   4.726  10.558  0.00  0.00    +0.000 C 
BRANCH   7  10
ATOM      8  O   UNL     1      44.480   2.233   9.464  0.00  0.00    +0.000 OA
ATOM      9  C   UNL     1      45.201   3.061   8.910  0.00  0.00    +0.000 C 
ATOM     10  N   UNL     1      45.319   4.349   9.400  0.00  0.00    +0.000 N 
ATOM     11  H   UNL     1      45.765   5.038   8.802  0.00  0.00    +0.000 HD
BRANCH   9  12
ATOM     12  C   UNL     1      45.966   2.764   7.717  0.00  0.00    +0.000 A 
ATOM     13  C   UNL     1      46.768   1.673   7.429  0.00  0.00    +0.000 A 
ATOM     14  C   UNL     1      47.318   1.896   6.150  0.00  0.00    +0.000 A 
ATOM     15  C   UNL     1      46.823   3.109   5.728  0.00  0.00    +0.000 A 
ATOM     16  O   UNL     1      45.988   3.639   6.663  0.00  0.00    +0.000 OA
ENDBRANCH   9  12
ENDBRANCH   7  10
ENDBRANCH   1   7
BRANCH   4  17
ATOM     17  C   UNL     1      47.323   4.227  15.536  0.00  0.00    +0.000 C 
BRANCH  17  18
ATOM     18  N   UNL     1      47.554   5.474  16.234  0.00  0.00    +0.000 N 
ATOM     19  C   UNL     1      48.821   5.762  16.679  0.00  0.00    +0.000 C 
ATOM     20  O   UNL     1      49.730   4.938  16.627  0.00  0.00    +0.000 OA
ATOM     21  H   UNL     1      46.942   6.244  15.981  0.00  0.00    +0.000 HD
BRANCH  19  22
ATOM     22  C   UNL     1      49.010   7.071  17.304  0.00  0.00    +0.000 A 
ATOM     23  C   UNL     1      49.702   8.081  16.650  0.00  0.00    +0.000 A 
ATOM     24  S   UNL     1      50.220   9.316  17.714  0.00  0.00    +0.000 S 
ATOM     25  C   UNL     1      49.376   8.609  19.013  0.00  0.00    +0.000 A 
ATOM     26  N   UNL     1      49.470   9.091  20.280  0.00  0.00    +0.000 NA
ATOM     27  C   UNL     1      48.707   8.492  21.138  0.00  0.00    +0.000 A 
ATOM     28  N   UNL     1      47.808   7.507  20.835  0.00  0.00    +0.000 N 
ATOM     29  C   UNL     1      47.672   6.999  19.565  0.00  0.00    +0.000 A 
ATOM     30  O   UNL     1      46.806   6.187  19.281  0.00  0.00    +0.000 OA
ATOM     31  C   UNL     1      48.616   7.537  18.607  0.00  0.00    +0.000 A 
ATOM     32  H   UNL     1      47.176   7.147  21.531  0.00  0.00    +0.000 HD
ENDBRANCH  19  22
ENDBRANCH  17  18
ENDBRANCH   4  17
TORSDOF 6
ENDMDL
MODEL 6
REMARK VINA RESULT:    -7.139      1.414      1.728
REMARK INTER + INTRA:         -10.629
REMARK INTER:                  -9.825
REMARK INTRA:                  -0.805
REMARK UNBOUND:                -0.986
REMARK  Name = 
REMARK  6 active torsions:
REMARK  status: ('A' for Active; 'I' for Inactive)
REMARK    1  A    between atoms: C_2  and  C_25
REMARK    2  A    between atoms: N_3  and  C_4
REMARK    3  A    between atoms: C_4  and  C_5
REMARK    4  A    between atoms: C_8  and  C_9
REMARK    5  A    between atoms: C_9  and  N_10
REMARK    6  A    between atoms: C_11  and  C_13
REMARK                            x       y       z     vdW  Elec       q    Type
REMARK                         _______ _______ _______ _____ _____    ______ ____
ROOT
ATOM      1  C   UNL     1      45.348   6.277  11.546  0.00  0.00    +0.000 A 
ATOM      2  C   UNL     1      46.492   5.732  12.086  0.00  0.00    +0.000 A 
ATOM      3  N   UNL     1      47.292   6.376  12.959  0.00  0.00    +0.000 NA
ATOM      4  C   UNL     1      46.922   7.624  13.316  0.00  0.00    +0.000 A 
ATOM      5  N   UNL     1      45.847   8.266  12.811  0.00  0.00    +0.000 NA
ATOM      6  C   UNL     1      45.081   7.573  11.943  0.00  0.00    +0.000 A 
ENDROOT
BRANCH   1   7
ATOM      7  C   UNL     1      44.493   5.521  10.590  0.00  0.00    +0.000 C 
BRANCH   7  10
ATOM      8  O   UNL     1      44.433   2.836  10.141  0.00  0.00    +0.000 OA
ATOM      9  C   UNL     1      45.117   3.510   9.372  0.00  0.00    +0.000 C 
ATOM     10  N   UNL     1      45.228   4.880   9.528  0.00  0.00    +0.000 N 
ATOM     11  H   UNL     1      45.638   5.407   8.763  0.00  0.00    +0.000 HD
BRANCH   9  12
ATOM     12  C   UNL     1      45.843   2.938   8.258  0.00  0.00    +0.000 A 
ATOM     13  C   UNL     1      46.165   3.496   7.033  0.00  0.00    +0.000 A 
ATOM     14  C   UNL     1      46.840   2.502   6.295  0.00  0.00    +0.000 A 
ATOM     15  C   UNL     1      46.891   1.393   7.108  0.00  0.00    +0.000 A 
ATOM     16  O   UNL     1      46.304   1.649   8.309  0.00  0.00    +0.000 OA
ENDBRANCH   9  12
ENDBRANCH   7  10
ENDBRANCH   1   7
BRANCH   4  17
ATOM     17  C   UNL     1      47.774   8.318  14.350  0.00  0.00    +0.000 C 
BRANCH  17  18
ATOM     18  N   UNL     1      48.741   7.454  14.994  0.00  0.00    +0.000 N 
ATOM     19  C   UNL     1      48.848   7.481  16.362  0.00  0.00    +0.000 C 
ATOM     20  O   UNL     1      48.253   8.310  17.044  0.00  0.00    +0.000 OA
ATOM     21  H   UNL     1      48.955   6.588  14.506  0.00  0.00    +0.000 HD
BRANCH  19  22
ATOM     22  C   UNL     1      49.783   6.527  16.961  0.00  0.00    +0.000 A 
ATOM     23  C   UNL     1      51.080   6.904  17.280  0.00  0.00    +0.000 A 
ATOM     24  S   UNL     1      52.116   5.561  17.500  0.00  0.00    +0.000 S 
ATOM     25  C   UNL     1      50.812   4.476  17.352  0.00  0.00    +0.000 A 
ATOM     26  N   UNL     1      50.994   3.129  17.330  0.00  0.00    +0.000 NA
ATOM     27  C   UNL     1      49.896   2.442  17.292  0.00  0.00    +0.000 A 
ATOM     28  N   UNL     1      48.637   2.972  17.347  0.00  0.00    +0.000 N 
ATOM     29  C   UNL     1      48.408   4.327  17.382  0.00  0.00    +0.000 A 
ATOM     30  O   UNL     1      47.288   4.791  17.522  0.00  0.00    +0.000 OA
ATOM     31  C   UNL     1      49.606   5.133  17.271  0.00  0.00    +0.000 A 
ATOM     32  H   UNL     1      47.826   2.379  17.408  0.00  0.00    +0.000 HD
ENDBRANCH  19  22
ENDBRANCH  17  18
ENDBRANCH   4  17
TORSDOF 6
ENDMDL
MODEL 7
REMARK VINA RESULT:    -6.873      1.917      2.454
REMARK INTER + INTRA:         -10.269
REMARK INTER:                  -9.635
REMARK INTRA:                  -0.634
REMARK UNBOUND:                -0.986
REMARK  Name = 
REMARK  6 active torsions:
REMARK  status: ('A' for Active; 'I' for Inactive)
REMARK    1  A    between atoms: C_2  and  C_25
REMARK    2  A    between atoms: N_3  and  C_4
REMARK    3  A    between atoms: C_4  and  C_5
REMARK    4  A    between atoms: C_8  and  C_9
REMARK    5  A    between atoms: C_9  and  N_10
REMARK    6  A    between atoms: C_11  and  C_13
REMARK                            x       y       z     vdW  Elec       q    Type
REMARK                         _______ _______ _______ _____ _____    ______ ____
ROOT
ATOM      1  C   UNL     1      44.935   5.397  11.363  0.00  0.00    +0.000 A 
ATOM      2  C   UNL     1      44.957   6.775  11.397  0.00  0.00    +0.000 A 
ATOM      3  N   UNL     1      45.773   7.493  12.192  0.00  0.00    +0.000 NA
ATOM      4  C   UNL     1      46.616   6.799  12.985  0.00  0.00    +0.000 A 
ATOM      5  N   UNL     1      46.643   5.451  13.061  0.00  0.00    +0.000 NA
ATOM      6  C   UNL     1      45.806   4.783  12.242  0.00  0.00    +0.000 A 
ENDROOT
BRANCH   1   7
ATOM      7  C   UNL     1      44.018   4.649  10.460  0.00  0.00    +0.000 C 
BRANCH   7  10
ATOM      8  O   UNL     1      45.653   5.092   8.327  0.00  0.00    +0.000 OA
ATOM      9  C   UNL     1      45.486   3.920   8.662  0.00  0.00    +0.000 C 
ATOM     10  N   UNL     1      44.660   3.590   9.721  0.00  0.00    +0.000 N 
ATOM     11  H   UNL     1      44.711   2.640  10.077  0.00  0.00    +0.000 HD
BRANCH   9  12
ATOM     12  C   UNL     1      46.135   2.811   7.995  0.00  0.00    +0.000 A 
ATOM     13  C   UNL     1      46.873   2.792   6.824  0.00  0.00    +0.000 A 
ATOM     14  C   UNL     1      47.243   1.451   6.594  0.00  0.00    +0.000 A 
ATOM     15  C   UNL     1      46.711   0.726   7.636  0.00  0.00    +0.000 A 
ATOM     16  O   UNL     1      46.050   1.541   8.502  0.00  0.00    +0.000 OA
ENDBRANCH   9  12
ENDBRANCH   7  10
ENDBRANCH   1   7
BRANCH   4  17
ATOM     17  C   UNL     1      47.584   7.601  13.821  0.00  0.00    +0.000 C 
BRANCH  17  18
ATOM     18  N   UNL     1      47.842   7.037  15.128  0.00  0.00    +0.000 N 
ATOM     19  C   UNL     1      49.142   6.807  15.508  0.00  0.00    +0.000 C 
ATOM     20  O   UNL     1      50.079   6.934  14.725  0.00  0.00    +0.000 OA
ATOM     21  H   UNL     1      47.157   7.252  15.848  0.00  0.00    +0.000 HD
BRANCH  19  22
ATOM     22  C   UNL     1      49.345   6.313  16.870  0.00  0.00    +0.000 A 
ATOM     23  C   UNL     1      49.237   4.961  17.162  0.00  0.00    +0.000 A 
ATOM     24  S   UNL     1      49.029   4.666  18.835  0.00  0.00    +0.000 S 
ATOM     25  C   UNL     1      49.261   6.314  19.197  0.00  0.00    +0.000 A 
ATOM     26  N   UNL     1      49.107   6.804  20.455  0.00  0.00    +0.000 NA
ATOM     27  C   UNL     1      49.396   8.061  20.579  0.00  0.00    +0.000 A 
ATOM     28  N   UNL     1      49.893   8.853  19.581  0.00  0.00    +0.000 N 
ATOM     29  C   UNL     1      50.075   8.395  18.298  0.00  0.00    +0.000 A 
ATOM     30  O   UNL     1      50.603   9.079  17.436  0.00  0.00    +0.000 OA
ATOM     31  C   UNL     1      49.619   7.038  18.083  0.00  0.00    +0.000 A 
ATOM     32  H   UNL     1      50.186   9.798  19.766  0.00  0.00    +0.000 HD
ENDBRANCH  19  22
ENDBRANCH  17  18
ENDBRANCH   4  17
TORSDOF 6
ENDMDL
MODEL 8
REMARK VINA RESULT:    -6.760      1.977      2.256
REMARK INTER + INTRA:         -10.118
REMARK INTER:                  -9.330
REMARK INTRA:                  -0.788
REMARK UNBOUND:                -0.986
REMARK  Name = 
REMARK  6 active torsions:
REMARK  status: ('A' for Active; 'I' for Inactive)
REMARK    1  A    between atoms: C_2  and  C_25
REMARK    2  A    between atoms: N_3  and  C_4
REMARK    3  A    between atoms: C_4  and  C_5
REMARK    4  A    between atoms: C_8  and  C_9
REMARK    5  A    between atoms: C_9  and  N_10
REMARK    6  A    between atoms: C_11  and  C_13
REMARK                            x       y       z     vdW  Elec       q    Type
REMARK                         _______ _______ _______ _____ _____    ______ ____
ROOT
ATOM      1  C   UNL     1      45.512   6.328  11.800  0.00  0.00    +0.000 A 
ATOM      2  C   UNL     1      46.731   5.907  12.285  0.00  0.00    +0.000 A 
ATOM      3  N   UNL     1      47.539   6.667  13.049  0.00  0.00    +0.000 NA
ATOM      4  C   UNL     1      47.101   7.909  13.349  0.00  0.00    +0.000 A 
ATOM      5  N   UNL     1      45.947   8.434  12.887  0.00  0.00    +0.000 NA
ATOM      6  C   UNL     1      45.176   7.627  12.129  0.00  0.00    +0.000 A 
ENDROOT
BRANCH   1   7
ATOM      7  C   UNL     1      44.652   5.446  10.965  0.00  0.00    +0.000 C 
BRANCH   7  10
ATOM      8  O   UNL     1      44.198   2.872  10.198  0.00  0.00    +0.000 OA
ATOM      9  C   UNL     1      45.033   3.503   9.552  0.00  0.00    +0.000 C 
ATOM     10  N   UNL     1      45.348   4.810   9.874  0.00  0.00    +0.000 N 
ATOM     11  H   UNL     1      45.889   5.341   9.199  0.00  0.00    +0.000 HD
BRANCH   9  12
ATOM     12  C   UNL     1      45.735   2.943   8.417  0.00  0.00    +0.000 A 
ATOM     13  C   UNL     1      46.109   3.540   7.225  0.00  0.00    +0.000 A 
ATOM     14  C   UNL     1      46.728   2.544   6.444  0.00  0.00    +0.000 A 
ATOM     15  C   UNL     1      46.698   1.394   7.199  0.00  0.00    +0.000 A 
ATOM     16  O   UNL     1      46.112   1.626   8.405  0.00  0.00    +0.000 OA
ENDBRANCH   9  12
ENDBRANCH   7  10
ENDBRANCH   1   7
BRANCH   4  17
ATOM     17  C   UNL     1      47.970   8.735  14.266  0.00  0.00    +0.000 C 
BRANCH  17  18
ATOM     18  N   UNL     1      47.779   8.451  15.672  0.00  0.00    +0.000 N 
ATOM     19  C   UNL     1      48.839   7.973  16.403  0.00  0.00    +0.000 C 
ATOM     20  O   UNL     1      49.898   7.648  15.874  0.00  0.00    +0.000 OA
ATOM     21  H   UNL     1      47.076   9.011  16.147  0.00  0.00    +0.000 HD
BRANCH  19  22
ATOM     22  C   UNL     1      48.610   7.783  17.836  0.00  0.00    +0.000 A 
ATOM     23  C   UNL     1      48.648   8.858  18.713  0.00  0.00    +0.000 A 
ATOM     24  S   UNL     1      48.841   8.369  20.341  0.00  0.00    +0.000 S 
ATOM     25  C   UNL     1      48.695   6.728  19.910  0.00  0.00    +0.000 A 
ATOM     26  N   UNL     1      48.874   5.727  20.811  0.00  0.00    +0.000 NA
ATOM     27  C   UNL     1      48.650   4.540  20.344  0.00  0.00    +0.000 A 
ATOM     28  N   UNL     1      48.195   4.266  19.084  0.00  0.00    +0.000 N 
ATOM     29  C   UNL     1      47.989   5.248  18.144  0.00  0.00    +0.000 A 
ATOM     30  O   UNL     1      47.497   5.008  17.054  0.00  0.00    +0.000 OA
ATOM     31  C   UNL     1      48.374   6.574  18.580  0.00  0.00    +0.000 A 
ATOM     32  H   UNL     1      47.951   3.328  18.812  0.00  0.00    +0.000 HD
ENDBRANCH  19  22
ENDBRANCH  17  18
ENDBRANCH   4  17
TORSDOF 6
ENDMDL
MODEL 9
REMARK VINA RESULT:    -6.684      4.523      9.150
REMARK INTER + INTRA:         -10.014
REMARK INTER:                  -8.983
REMARK INTRA:                  -1.032
REMARK UNBOUND:                -0.986
REMARK  Name = 
REMARK  6 active torsions:
REMARK  status: ('A' for Active; 'I' for Inactive)
REMARK    1  A    between atoms: C_2  and  C_25
REMARK    2  A    between atoms: N_3  and  C_4
REMARK    3  A    between atoms: C_4  and  C_5
REMARK    4  A    between atoms: C_8  and  C_9
REMARK    5  A    between atoms: C_9  and  N_10
REMARK    6  A    between atoms: C_11  and  C_13
REMARK                            x       y       z     vdW  Elec       q    Type
REMARK                         _______ _______ _______ _____ _____    ______ ____
ROOT
ATOM      1  C   UNL     1      51.490   2.664  17.761  0.00  0.00    +0.000 A 
ATOM      2  C   UNL     1      50.690   1.800  17.045  0.00  0.00    +0.000 A 
ATOM      3  N   UNL     1      49.397   2.040  16.755  0.00  0.00    +0.000 NA
ATOM      4  C   UNL     1      48.881   3.207  17.196  0.00  0.00    +0.000 A 
ATOM      5  N   UNL     1      49.564   4.100  17.943  0.00  0.00    +0.000 NA
ATOM      6  C   UNL     1      50.856   3.809  18.202  0.00  0.00    +0.000 A 
ENDROOT
BRANCH   1   7
ATOM      7  C   UNL     1      52.918   2.355  18.050  0.00  0.00    +0.000 C 
BRANCH   7  10
ATOM      8  O   UNL     1      54.872   1.012  16.709  0.00  0.00    +0.000 OA
ATOM      9  C   UNL     1      54.214   0.365  17.523  0.00  0.00    +0.000 C 
ATOM     10  N   UNL     1      53.186   0.951  18.240  0.00  0.00    +0.000 N 
ATOM     11  H   UNL     1      52.811   0.433  19.029  0.00  0.00    +0.000 HD
BRANCH   9  12
ATOM     12  C   UNL     1      54.460  -1.035  17.798  0.00  0.00    +0.000 A 
ATOM     13  C   UNL     1      54.294  -1.748  18.972  0.00  0.00    +0.000 A 
ATOM     14  C   UNL     1      54.720  -3.067  18.714  0.00  0.00    +0.000 A 
ATOM     15  C   UNL     1      55.124  -3.086  17.398  0.00  0.00    +0.000 A 
ATOM     16  O   UNL     1      54.956  -1.863  16.826  0.00  0.00    +0.000 OA
ENDBRANCH   9  12
ENDBRANCH   7  10
ENDBRANCH   1   7
BRANCH   4  17
ATOM     17  C   UNL     1      47.455   3.513  16.808  0.00  0.00    +0.000 C 
BRANCH  17  18
ATOM     18  N   UNL     1      47.322   4.591  15.851  0.00  0.00    +0.000 N 
ATOM     19  C   UNL     1      47.144   4.285  14.525  0.00  0.00    +0.000 C 
ATOM     20  O   UNL     1      47.233   3.134  14.107  0.00  0.00    +0.000 OA
ATOM     21  H   UNL     1      46.921   5.454  16.209  0.00  0.00    +0.000 HD
BRANCH  19  22
ATOM     22  C   UNL     1      46.933   5.413  13.618  0.00  0.00    +0.000 A 
ATOM     23  C   UNL     1      45.721   5.588  12.966  0.00  0.00    +0.000 A 
ATOM     24  S   UNL     1      45.844   6.642  11.624  0.00  0.00    +0.000 S 
ATOM     25  C   UNL     1      47.462   7.011  12.009  0.00  0.00    +0.000 A 
ATOM     26  N   UNL     1      48.235   7.784  11.202  0.00  0.00    +0.000 NA
ATOM     27  C   UNL     1      49.416   8.036  11.675  0.00  0.00    +0.000 A 
ATOM     28  N   UNL     1      49.866   7.648  12.906  0.00  0.00    +0.000 N 
ATOM     29  C   UNL     1      49.112   6.877  13.758  0.00  0.00    +0.000 A 
ATOM     30  O   UNL     1      49.482   6.612  14.890  0.00  0.00    +0.000 OA
ATOM     31  C   UNL     1      47.846   6.446  13.203  0.00  0.00    +0.000 A 
ATOM     32  H   UNL     1      50.760   7.956  13.252  0.00  0.00    +0.000 HD
ENDBRANCH  19  22
ENDBRANCH  17  18
ENDBRANCH   4  17
TORSDOF 6
ENDMDL
