MODEL 1
REMARK VINA RESULT:    -7.158      0.000      0.000
REMARK INTER + INTRA:         -11.061
REMARK INTER:                 -10.087
REMARK INTRA:                  -0.975
REMARK UNBOUND:                -0.975
REMARK  Name = 
REMARK  7 active torsions:
REMARK  status: ('A' for Active; 'I' for Inactive)
REMARK    1  A    between atoms: C_2  and  C_3
REMARK    2  A    between atoms: C_3  and  C_4
REMARK    3  A    between atoms: N_11  and  C_12
REMARK    4  A    between atoms: C_12  and  C_13
REMARK    5  A    between atoms: C_16  and  C_17
REMARK    6  A    between atoms: C_17  and  N_18
REMARK    7  A    between atoms: C_19  and  C_21
REMARK                            x       y       z     vdW  Elec       q    Type
REMARK                         _______ _______ _______ _____ _____    ______ ____
ROOT
ATOM      1  C   UNL     1      47.151   6.844  12.760  0.00  0.00    +0.000 A 
ATOM      2  C   UNL     1      47.651   8.055  13.261  0.00  0.00    +0.000 A 
ATOM      3  C   UNL     1      48.224   8.126  14.541  0.00  0.00    +0.000 A 
ATOM      4  C   UNL     1      48.334   6.981  15.343  0.00  0.00    +0.000 A 
ATOM      5  C   UNL     1      47.833   5.772  14.842  0.00  0.00    +0.000 A 
ATOM      6  C   UNL     1      47.259   5.701  13.564  0.00  0.00    +0.000 A 
ENDROOT
BRANCH   1   7
ATOM      7  C   UNL     1      46.458   6.787  11.418  0.00  0.00    +0.000 C 
BRANCH   7  15
ATOM      8  C   UNL     1      45.602   2.981   8.516  0.00  0.00    +0.000 A 
ATOM      9  C   UNL     1      44.968   1.763   8.712  0.00  0.00    +0.000 A 
ATOM     10  C   UNL     1      44.206   1.867   9.897  0.00  0.00    +0.000 A 
ATOM     11  C   UNL     1      44.418   3.124  10.411  0.00  0.00    +0.000 A 
ATOM     12  N   UNL     1      45.282   3.827   9.578  0.00  0.00    +0.000 N 
ATOM     13  C   UNL     1      45.709   5.164   9.756  0.00  0.00    +0.000 C 
ATOM     14  O   UNL     1      45.896   5.873   8.779  0.00  0.00    +0.000 OA
ATOM     15  N   UNL     1      45.935   5.482  11.080  0.00  0.00    +0.000 N 
ATOM     16  H   UNL     1      45.945   4.757  11.785  0.00  0.00    +0.000 HD
BRANCH   8  17
ATOM     17  C   UNL     1      46.550   3.364   7.414  0.00  0.00    +0.000 C 
BRANCH  17  19
ATOM     18  N   UNL     1      48.078   1.335   6.704  0.00  0.00    +0.000 NA
ATOM     19  C   UNL     1      47.407   2.229   7.025  0.00  0.00    +0.000 C 
ENDBRANCH  17  19
ENDBRANCH   8  17
ENDBRANCH   7  15
ENDBRANCH   1   7
BRANCH   4  20
ATOM     20  C   UNL     1      48.945   7.045  16.726  0.00  0.00    +0.000 C 
BRANCH  20  21
ATOM     21  N   UNL     1      50.052   6.131  16.867  0.00  0.00    +0.000 N 
ATOM     22  C   UNL     1      50.579   5.789  18.087  0.00  0.00    +0.000 C 
ATOM     23  O   UNL     1      50.137   6.259  19.132  0.00  0.00    +0.000 OA
ATOM     24  H   UNL     1      50.460   5.774  16.008  0.00  0.00    +0.000 HD
BRANCH  22  25
ATOM     25  C   UNL     1      51.665   4.792  18.096  0.00  0.00    +0.000 A 
ATOM     26  C   UNL     1      52.940   5.155  18.514  0.00  0.00    +0.000 A 
ATOM     27  S   UNL     1      54.033   3.847  18.604  0.00  0.00    +0.000 S 
ATOM     28  C   UNL     1      52.824   2.742  18.149  0.00  0.00    +0.000 A 
ATOM     29  N   UNL     1      53.041   1.400  18.194  0.00  0.00    +0.000 NA
ATOM     30  C   UNL     1      52.057   0.687  17.759  0.00  0.00    +0.000 A 
ATOM     31  N   UNL     1      50.904   1.194  17.223  0.00  0.00    +0.000 N 
ATOM     32  C   UNL     1      50.614   2.535  17.223  0.00  0.00    +0.000 A 
ATOM     33  O   UNL     1      49.537   2.945  16.805  0.00  0.00    +0.000 OA
ATOM     34  C   UNL     1      51.655   3.382  17.773  0.00  0.00    +0.000 A 
ATOM     35  H   UNL     1      50.183   0.586  16.863  0.00  0.00    +0.000 HD
ENDBRANCH  22  25
ENDBRANCH  20  21
ENDBRANCH   4  20
TORSDOF 7
ENDMDL
MODEL 2
REMARK VINA RESULT:    -7.118      3.392     10.100
REMARK INTER + INTRA:         -11.005
REMARK INTER:                 -10.245
REMARK INTRA:                  -0.760
REMARK UNBOUND:                -0.975
REMARK  Name = 
REMARK  7 active torsions:
REMARK  status: ('A' for Active; 'I' for Inactive)
REMARK    1  A    between atoms: C_2  and  C_3
REMARK    2  A    between atoms: C_3  and  C_4
REMARK    3  A    between atoms: N_11  and  C_12
REMARK    4  A    between atoms: C_12  and  C_13
REMARK    5  A    between atoms: C_16  and  C_17
REMARK    6  A    between atoms: C_17  and  N_18
REMARK    7  A    between atoms: C_19  and  C_21
REMARK                            x       y       z     vdW  Elec       q    Type
REMARK                         _______ _______ _______ _____ _____    ______ ____
ROOT
ATOM      1  C   UNL     1      51.507   3.132  17.814  0.00  0.00    +0.000 A 
ATOM      2  C   UNL     1      50.886   4.374  18.017  0.00  0.00    +0.000 A 
ATOM      3  C   UNL     1      49.513   4.543  17.771  0.00  0.00    +0.000 A 
ATOM      4  C   UNL     1      48.722   3.469  17.340  0.00  0.00    +0.000 A 
ATOM      5  C   UNL     1      49.345   2.230  17.137  0.00  0.00    +0.000 A 
ATOM      6  C   UNL     1      50.715   2.060  17.381  0.00  0.00    +0.000 A 
ENDROOT
BRANCH   1   7
ATOM      7  C   UNL     1      52.999   2.972  17.997  0.00  0.00    +0.000 C 
BRANCH   7  15
ATOM      8  C   UNL     1      54.630  -1.607  18.044  0.00  0.00    +0.000 A 
ATOM      9  C   UNL     1      55.085  -2.463  17.050  0.00  0.00    +0.000 A 
ATOM     10  C   UNL     1      55.376  -1.675  15.914  0.00  0.00    +0.000 A 
ATOM     11  C   UNL     1      55.062  -0.374  16.226  0.00  0.00    +0.000 A 
ATOM     12  N   UNL     1      54.594  -0.310  17.534  0.00  0.00    +0.000 N 
ATOM     13  C   UNL     1      54.205   0.863  18.224  0.00  0.00    +0.000 C 
ATOM     14  O   UNL     1      54.419   0.956  19.423  0.00  0.00    +0.000 OA
ATOM     15  N   UNL     1      53.537   1.761  17.417  0.00  0.00    +0.000 N 
ATOM     16  H   UNL     1      53.235   1.491  16.491  0.00  0.00    +0.000 HD
BRANCH   8  17
ATOM     17  C   UNL     1      54.162  -1.963  19.427  0.00  0.00    +0.000 C 
BRANCH  17  19
ATOM     18  N   UNL     1      52.799  -4.220  19.416  0.00  0.00    +0.000 NA
ATOM     19  C   UNL     1      53.402  -3.227  19.429  0.00  0.00    +0.000 C 
ENDBRANCH  17  19
ENDBRANCH   8  17
ENDBRANCH   7  15
ENDBRANCH   1   7
BRANCH   4  20
ATOM     20  C   UNL     1      47.244   3.641  17.068  0.00  0.00    +0.000 C 
BRANCH  20  21
ATOM     21  N   UNL     1      47.003   4.481  15.920  0.00  0.00    +0.000 N 
ATOM     22  C   UNL     1      47.154   4.034  14.632  0.00  0.00    +0.000 C 
ATOM     23  O   UNL     1      47.516   2.887  14.387  0.00  0.00    +0.000 OA
ATOM     24  H   UNL     1      46.752   5.446  16.108  0.00  0.00    +0.000 HD
BRANCH  22  25
ATOM     25  C   UNL     1      46.810   4.974  13.549  0.00  0.00    +0.000 A 
ATOM     26  C   UNL     1      47.470   6.193  13.450  0.00  0.00    +0.000 A 
ATOM     27  S   UNL     1      47.057   7.089  12.056  0.00  0.00    +0.000 S 
ATOM     28  C   UNL     1      46.029   5.851  11.507  0.00  0.00    +0.000 A 
ATOM     29  N   UNL     1      45.473   5.894  10.266  0.00  0.00    +0.000 NA
ATOM     30  C   UNL     1      44.665   4.920  10.011  0.00  0.00    +0.000 A 
ATOM     31  N   UNL     1      44.312   3.946  10.905  0.00  0.00    +0.000 N 
ATOM     32  C   UNL     1      44.900   3.824  12.139  0.00  0.00    +0.000 A 
ATOM     33  O   UNL     1      44.613   2.892  12.882  0.00  0.00    +0.000 OA
ATOM     34  C   UNL     1      45.876   4.850  12.451  0.00  0.00    +0.000 A 
ATOM     35  H   UNL     1      43.645   3.228  10.661  0.00  0.00    +0.000 HD
ENDBRANCH  22  25
ENDBRANCH  20  21
ENDBRANCH   4  20
TORSDOF 7
ENDMDL
MODEL 3
REMARK VINA RESULT:    -6.917      4.105     10.056
REMARK INTER + INTRA:         -10.722
REMARK INTER:                  -9.592
REMARK INTRA:                  -1.129
REMARK UNBOUND:                -0.975
REMARK  Name = 
REMARK  7 active torsions:
REMARK  status: ('A' for Active; 'I' for Inactive)
REMARK    1  A    between atoms: C_2  and  C_3
REMARK    2  A    between atoms: C_3  and  C_4
REMARK    3  A    between atoms: N_11  and  C_12
REMARK    4  A    between atoms: C_12  and  C_13
REMARK    5  A    between atoms: C_16  and  C_17
REMARK    6  A    between atoms: C_17  and  N_18
REMARK    7  A    between atoms: C_19  and  C_21
REMARK                            x       y       z     vdW  Elec       q    Type
REMARK                         _______ _______ _______ _____ _____    ______ ____
ROOT
ATOM      1  C   UNL     1      51.355   3.011  17.763  0.00  0.00    +0.000 A 
ATOM      2  C   UNL     1      50.762   4.265  17.977  0.00  0.00    +0.000 A 
ATOM      3  C   UNL     1      49.417   4.494  17.646  0.00  0.00    +0.000 A 
ATOM      4  C   UNL     1      48.622   3.467  17.116  0.00  0.00    +0.000 A 
ATOM      5  C   UNL     1      49.216   2.216  16.902  0.00  0.00    +0.000 A 
ATOM      6  C   UNL     1      50.560   1.987  17.231  0.00  0.00    +0.000 A 
ENDROOT
BRANCH   1   7
ATOM      7  C   UNL     1      52.824   2.790  18.039  0.00  0.00    +0.000 C 
BRANCH   7  15
ATOM      8  C   UNL     1      54.645  -1.715  18.171  0.00  0.00    +0.000 A 
ATOM      9  C   UNL     1      55.035  -2.611  17.185  0.00  0.00    +0.000 A 
ATOM     10  C   UNL     1      55.176  -1.882  15.983  0.00  0.00    +0.000 A 
ATOM     11  C   UNL     1      54.840  -0.577  16.253  0.00  0.00    +0.000 A 
ATOM     12  N   UNL     1      54.503  -0.452  17.597  0.00  0.00    +0.000 N 
ATOM     13  C   UNL     1      54.136   0.744  18.258  0.00  0.00    +0.000 C 
ATOM     14  O   UNL     1      54.465   0.915  19.421  0.00  0.00    +0.000 OA
ATOM     15  N   UNL     1      53.352   1.568  17.475  0.00  0.00    +0.000 N 
ATOM     16  H   UNL     1      52.971   1.232  16.601  0.00  0.00    +0.000 HD
BRANCH   8  17
ATOM     17  C   UNL     1      54.334  -2.006  19.613  0.00  0.00    +0.000 C 
BRANCH  17  19
ATOM     18  N   UNL     1      52.763  -4.110  19.854  0.00  0.00    +0.000 NA
ATOM     19  C   UNL     1      53.449  -3.177  19.746  0.00  0.00    +0.000 C 
ENDBRANCH  17  19
ENDBRANCH   8  17
ENDBRANCH   7  15
ENDBRANCH   1   7
BRANCH   4  20
ATOM     20  C   UNL     1      47.173   3.703  16.752  0.00  0.00    +0.000 C 
BRANCH  20  21
ATOM     21  N   UNL     1      47.037   4.658  15.679  0.00  0.00    +0.000 N 
ATOM     22  C   UNL     1      47.055   4.292  14.357  0.00  0.00    +0.000 C 
ATOM     23  O   UNL     1      47.201   3.121  14.016  0.00  0.00    +0.000 OA
ATOM     24  H   UNL     1      46.966   5.635  15.945  0.00  0.00    +0.000 HD
BRANCH  22  25
ATOM     25  C   UNL     1      46.838   5.357  13.360  0.00  0.00    +0.000 A 
ATOM     26  C   UNL     1      45.827   5.231  12.416  0.00  0.00    +0.000 A 
ATOM     27  S   UNL     1      45.620   6.616  11.440  0.00  0.00    +0.000 S 
ATOM     28  C   UNL     1      46.831   7.454  12.288  0.00  0.00    +0.000 A 
ATOM     29  N   UNL     1      47.055   8.778  12.075  0.00  0.00    +0.000 NA
ATOM     30  C   UNL     1      48.047   9.265  12.742  0.00  0.00    +0.000 A 
ATOM     31  N   UNL     1      48.876   8.534  13.550  0.00  0.00    +0.000 N 
ATOM     32  C   UNL     1      48.646   7.215  13.848  0.00  0.00    +0.000 A 
ATOM     33  O   UNL     1      49.367   6.615  14.637  0.00  0.00    +0.000 OA
ATOM     34  C   UNL     1      47.495   6.634  13.185  0.00  0.00    +0.000 A 
ATOM     35  H   UNL     1      49.661   8.963  14.018  0.00  0.00    +0.000 HD
ENDBRANCH  22  25
ENDBRANCH  20  21
ENDBRANCH   4  20
TORSDOF 7
ENDMDL
MODEL 4
REMARK VINA RESULT:    -6.777      2.292      2.827
REMARK INTER + INTRA:         -10.525
REMARK INTER:                  -9.540
REMARK INTRA:                  -0.985
REMARK UNBOUND:                -0.975
REMARK  Name = 
REMARK  7 active torsions:
REMARK  status: ('A' for Active; 'I' for Inactive)
REMARK    1  A    between atoms: C_2  and  C_3
REMARK    2  A    between atoms: C_3  and  C_4
REMARK    3  A    between atoms: N_11  and  C_12
REMARK    4  A    between atoms: C_12  and  C_13
REMARK    5  A    between atoms: C_16  and  C_17
REMARK    6  A    between atoms: C_17  and  N_18
REMARK    7  A    between atoms: C_19  and  C_21
REMARK                            x       y       z     vdW  Elec       q    Type
REMARK                         _______ _______ _______ _____ _____    ______ ____
ROOT
ATOM      1  C   UNL     1      46.497   6.513  11.991  0.00  0.00    +0.000 A 
ATOM      2  C   UNL     1      47.495   7.363  11.490  0.00  0.00    +0.000 A 
ATOM      3  C   UNL     1      48.632   7.671  12.256  0.00  0.00    +0.000 A 
ATOM      4  C   UNL     1      48.810   7.116  13.531  0.00  0.00    +0.000 A 
ATOM      5  C   UNL     1      47.811   6.269  14.030  0.00  0.00    +0.000 A 
ATOM      6  C   UNL     1      46.676   5.962  13.266  0.00  0.00    +0.000 A 
ENDROOT
BRANCH   1   7
ATOM      7  C   UNL     1      45.235   6.251  11.201  0.00  0.00    +0.000 C 
BRANCH   7  15
ATOM      8  C   UNL     1      46.151   2.615   8.107  0.00  0.00    +0.000 A 
ATOM      9  C   UNL     1      45.760   1.283   8.065  0.00  0.00    +0.000 A 
ATOM     10  C   UNL     1      44.663   1.136   8.942  0.00  0.00    +0.000 A 
ATOM     11  C   UNL     1      44.434   2.362   9.520  0.00  0.00    +0.000 A 
ATOM     12  N   UNL     1      45.345   3.288   9.024  0.00  0.00    +0.000 N 
ATOM     13  C   UNL     1      45.402   4.662   9.355  0.00  0.00    +0.000 C 
ATOM     14  O   UNL     1      45.730   5.474   8.505  0.00  0.00    +0.000 OA
ATOM     15  N   UNL     1      45.132   4.903  10.688  0.00  0.00    +0.000 N 
ATOM     16  H   UNL     1      45.074   4.137  11.345  0.00  0.00    +0.000 HD
BRANCH   8  17
ATOM     17  C   UNL     1      47.293   3.267   7.378  0.00  0.00    +0.000 C 
BRANCH  17  19
ATOM     18  N   UNL     1      48.355   1.630   5.604  0.00  0.00    +0.000 NA
ATOM     19  C   UNL     1      47.893   2.350   6.391  0.00  0.00    +0.000 C 
ENDBRANCH  17  19
ENDBRANCH   8  17
ENDBRANCH   7  15
ENDBRANCH   1   7
BRANCH   4  20
ATOM     20  C   UNL     1      50.028   7.444  14.367  0.00  0.00    +0.000 C 
BRANCH  20  21
ATOM     21  N   UNL     1      49.825   7.127  15.760  0.00  0.00    +0.000 N 
ATOM     22  C   UNL     1      50.482   7.782  16.771  0.00  0.00    +0.000 C 
ATOM     23  O   UNL     1      51.293   8.674  16.539  0.00  0.00    +0.000 OA
ATOM     24  H   UNL     1      49.195   6.358  15.964  0.00  0.00    +0.000 HD
BRANCH  22  25
ATOM     25  C   UNL     1      50.133   7.407  18.154  0.00  0.00    +0.000 A 
ATOM     26  C   UNL     1      50.022   8.386  19.134  0.00  0.00    +0.000 A 
ATOM     27  S   UNL     1      49.466   7.797  20.637  0.00  0.00    +0.000 S 
ATOM     28  C   UNL     1      49.295   6.225  20.012  0.00  0.00    +0.000 A 
ATOM     29  N   UNL     1      48.692   5.241  20.731  0.00  0.00    +0.000 NA
ATOM     30  C   UNL     1      48.691   4.085  20.156  0.00  0.00    +0.000 A 
ATOM     31  N   UNL     1      49.295   3.810  18.959  0.00  0.00    +0.000 N 
ATOM     32  C   UNL     1      49.851   4.784  18.168  0.00  0.00    +0.000 A 
ATOM     33  O   UNL     1      50.313   4.510  17.066  0.00  0.00    +0.000 OA
ATOM     34  C   UNL     1      49.811   6.120  18.731  0.00  0.00    +0.000 A 
ATOM     35  H   UNL     1      49.294   2.877  18.575  0.00  0.00    +0.000 HD
ENDBRANCH  22  25
ENDBRANCH  20  21
ENDBRANCH   4  20
TORSDOF 7
ENDMDL
MODEL 5
REMARK VINA RESULT:    -6.722      2.898      9.232
REMARK INTER + INTRA:         -10.447
REMARK INTER:                  -9.440
REMARK INTRA:                  -1.007
REMARK UNBOUND:                -0.975
REMARK  Name = 
REMARK  7 active torsions:
REMARK  status: ('A' for Active; 'I' for Inactive)
REMARK    1  A    between atoms: C_2  and  C_3
REMARK    2  A    between atoms: C_3  and  C_4
REMARK    3  A    between atoms: N_11  and  C_12
REMARK    4  A    between atoms: C_12  and  C_13
REMARK    5  A    between atoms: C_16  and  C_17
REMARK    6  A    between atoms: C_17  and  N_18
REMARK    7  A    between atoms: C_19  and  C_21
REMARK                            x       y       z     vdW  Elec       q    Type
REMARK                         _______ _______ _______ _____ _____    ______ ____
ROOT
ATOM      1  C   UNL     1      50.195   8.444  15.345  0.00  0.00    +0.000 A 
ATOM      2  C   UNL     1      50.527   7.927  14.083  0.00  0.00    +0.000 A 
ATOM      3  C   UNL     1      49.569   7.852  13.059  0.00  0.00    +0.000 A 
ATOM      4  C   UNL     1      48.262   8.315  13.262  0.00  0.00    +0.000 A 
ATOM      5  C   UNL     1      47.932   8.830  14.523  0.00  0.00    +0.000 A 
ATOM      6  C   UNL     1      48.887   8.904  15.547  0.00  0.00    +0.000 A 
ENDROOT
BRANCH   1   7
ATOM      7  C   UNL     1      51.202   8.446  16.471  0.00  0.00    +0.000 C 
BRANCH   7  15
ATOM      8  C   UNL     1      51.164   3.770  17.801  0.00  0.00    +0.000 A 
ATOM      9  C   UNL     1      52.152   2.799  17.884  0.00  0.00    +0.000 A 
ATOM     10  C   UNL     1      53.400   3.460  17.850  0.00  0.00    +0.000 A 
ATOM     11  C   UNL     1      53.148   4.804  17.715  0.00  0.00    +0.000 A 
ATOM     12  N   UNL     1      51.774   5.018  17.677  0.00  0.00    +0.000 N 
ATOM     13  C   UNL     1      51.127   6.273  17.580  0.00  0.00    +0.000 C 
ATOM     14  O   UNL     1      50.066   6.450  18.157  0.00  0.00    +0.000 OA
ATOM     15  N   UNL     1      51.785   7.150  16.742  0.00  0.00    +0.000 N 
ATOM     16  H   UNL     1      52.543   6.827  16.156  0.00  0.00    +0.000 HD
BRANCH   8  17
ATOM     17  C   UNL     1      49.674   3.573  17.765  0.00  0.00    +0.000 C 
BRANCH  17  19
ATOM     18  N   UNL     1      48.983   1.770  15.969  0.00  0.00    +0.000 NA
ATOM     19  C   UNL     1      49.291   2.559  16.766  0.00  0.00    +0.000 C 
ENDBRANCH  17  19
ENDBRANCH   8  17
ENDBRANCH   7  15
ENDBRANCH   1   7
BRANCH   4  20
ATOM     20  C   UNL     1      47.220   8.235  12.168  0.00  0.00    +0.000 C 
BRANCH  20  21
ATOM     21  N   UNL     1      46.680   6.904  12.036  0.00  0.00    +0.000 N 
ATOM     22  C   UNL     1      45.381   6.666  11.664  0.00  0.00    +0.000 C 
ATOM     23  O   UNL     1      44.600   7.584  11.434  0.00  0.00    +0.000 OA
ATOM     24  H   UNL     1      47.301   6.136  12.272  0.00  0.00    +0.000 HD
BRANCH  22  25
ATOM     25  C   UNL     1      44.975   5.258  11.501  0.00  0.00    +0.000 A 
ATOM     26  C   UNL     1      44.373   4.580  12.554  0.00  0.00    +0.000 A 
ATOM     27  S   UNL     1      43.832   3.013  12.146  0.00  0.00    +0.000 S 
ATOM     28  C   UNL     1      44.328   3.210  10.532  0.00  0.00    +0.000 A 
ATOM     29  N   UNL     1      44.007   2.296   9.578  0.00  0.00    +0.000 NA
ATOM     30  C   UNL     1      44.505   2.544   8.413  0.00  0.00    +0.000 A 
ATOM     31  N   UNL     1      45.347   3.586   8.132  0.00  0.00    +0.000 N 
ATOM     32  C   UNL     1      45.640   4.569   9.043  0.00  0.00    +0.000 A 
ATOM     33  O   UNL     1      46.336   5.528   8.730  0.00  0.00    +0.000 OA
ATOM     34  C   UNL     1      45.043   4.383  10.351  0.00  0.00    +0.000 A 
ATOM     35  H   UNL     1      45.737   3.709   7.209  0.00  0.00    +0.000 HD
ENDBRANCH  22  25
ENDBRANCH  20  21
ENDBRANCH   4  20
TORSDOF 7
ENDMDL
MODEL 6
REMARK VINA RESULT:    -6.567      1.684      2.305
REMARK INTER + INTRA:         -10.229
REMARK INTER:                  -9.392
REMARK INTRA:                  -0.837
REMARK UNBOUND:                -0.975
REMARK  Name = 
REMARK  7 active torsions:
REMARK  status: ('A' for Active; 'I' for Inactive)
REMARK    1  A    between atoms: C_2  and  C_3
REMARK    2  A    between atoms: C_3  and  C_4
REMARK    3  A    between atoms: N_11  and  C_12
REMARK    4  A    between atoms: C_12  and  C_13
REMARK    5  A    between atoms: C_16  and  C_17
REMARK    6  A    between atoms: C_17  and  N_18
REMARK    7  A    between atoms: C_19  and  C_21
REMARK                            x       y       z     vdW  Elec       q    Type
REMARK                         _______ _______ _______ _____ _____    ______ ____
ROOT
ATOM      1  C   UNL     1      47.464   5.680  14.594  0.00  0.00    +0.000 A 
ATOM      2  C   UNL     1      47.156   4.425  15.142  0.00  0.00    +0.000 A 
ATOM      3  C   UNL     1      47.786   3.974  16.313  0.00  0.00    +0.000 A 
ATOM      4  C   UNL     1      48.722   4.777  16.980  0.00  0.00    +0.000 A 
ATOM      5  C   UNL     1      49.029   6.029  16.431  0.00  0.00    +0.000 A 
ATOM      6  C   UNL     1      48.401   6.480  15.261  0.00  0.00    +0.000 A 
ENDROOT
BRANCH   1   7
ATOM      7  C   UNL     1      46.848   6.128  13.289  0.00  0.00    +0.000 C 
BRANCH   7  15
ATOM      8  C   UNL     1      45.126   3.837   9.362  0.00  0.00    +0.000 A 
ATOM      9  C   UNL     1      44.419   2.655   9.186  0.00  0.00    +0.000 A 
ATOM     10  C   UNL     1      43.891   2.287  10.444  0.00  0.00    +0.000 A 
ATOM     11  C   UNL     1      44.313   3.224  11.356  0.00  0.00    +0.000 A 
ATOM     12  N   UNL     1      45.081   4.187  10.711  0.00  0.00    +0.000 N 
ATOM     13  C   UNL     1      45.662   5.330  11.310  0.00  0.00    +0.000 C 
ATOM     14  O   UNL     1      45.743   6.369  10.674  0.00  0.00    +0.000 OA
ATOM     15  N   UNL     1      46.148   5.081  12.578  0.00  0.00    +0.000 N 
ATOM     16  H   UNL     1      46.211   4.133  12.924  0.00  0.00    +0.000 HD
BRANCH   8  17
ATOM     17  C   UNL     1      45.898   4.614   8.333  0.00  0.00    +0.000 C 
BRANCH  17  19
ATOM     18  N   UNL     1      46.686   3.052   6.360  0.00  0.00    +0.000 NA
ATOM     19  C   UNL     1      46.345   3.746   7.228  0.00  0.00    +0.000 C 
ENDBRANCH  17  19
ENDBRANCH   8  17
ENDBRANCH   7  15
ENDBRANCH   1   7
BRANCH   4  20
ATOM     20  C   UNL     1      49.411   4.300  18.240  0.00  0.00    +0.000 C 
BRANCH  20  21
ATOM     21  N   UNL     1      50.744   3.818  17.974  0.00  0.00    +0.000 N 
ATOM     22  C   UNL     1      51.791   4.022  18.836  0.00  0.00    +0.000 C 
ATOM     23  O   UNL     1      51.647   4.643  19.886  0.00  0.00    +0.000 OA
ATOM     24  H   UNL     1      50.889   3.346  17.086  0.00  0.00    +0.000 HD
BRANCH  22  25
ATOM     25  C   UNL     1      53.088   3.419  18.477  0.00  0.00    +0.000 A 
ATOM     26  C   UNL     1      54.264   4.135  18.661  0.00  0.00    +0.000 A 
ATOM     27  S   UNL     1      55.677   3.235  18.336  0.00  0.00    +0.000 S 
ATOM     28  C   UNL     1      54.768   1.839  18.000  0.00  0.00    +0.000 A 
ATOM     29  N   UNL     1      55.369   0.633  17.811  0.00  0.00    +0.000 NA
ATOM     30  C   UNL     1      54.559  -0.323  17.501  0.00  0.00    +0.000 A 
ATOM     31  N   UNL     1      53.214  -0.169  17.297  0.00  0.00    +0.000 N 
ATOM     32  C   UNL     1      52.557   1.009  17.543  0.00  0.00    +0.000 A 
ATOM     33  O   UNL     1      51.339   1.087  17.424  0.00  0.00    +0.000 OA
ATOM     34  C   UNL     1      53.409   2.102  17.972  0.00  0.00    +0.000 A 
ATOM     35  H   UNL     1      52.635  -0.948  17.017  0.00  0.00    +0.000 HD
ENDBRANCH  22  25
ENDBRANCH  20  21
ENDBRANCH   4  20
TORSDOF 7
ENDMDL
MODEL 7
REMARK VINA RESULT:    -6.561      6.006      8.704
REMARK INTER + INTRA:         -10.221
REMARK INTER:                  -9.276
REMARK INTRA:                  -0.945
REMARK UNBOUND:                -0.975
REMARK  Name = 
REMARK  7 active torsions:
REMARK  status: ('A' for Active; 'I' for Inactive)
REMARK    1  A    between atoms: C_2  and  C_3
REMARK    2  A    between atoms: C_3  and  C_4
REMARK    3  A    between atoms: N_11  and  C_12
REMARK    4  A    between atoms: C_12  and  C_13
REMARK    5  A    between atoms: C_16  and  C_17
REMARK    6  A    between atoms: C_17  and  N_18
REMARK    7  A    between atoms: C_19  and  C_21
REMARK                            x       y       z     vdW  Elec       q    Type
REMARK                         _______ _______ _______ _____ _____    ______ ____
ROOT
ATOM      1  C   UNL     1      50.225   9.298  11.776  0.00  0.00    +0.000 A 
ATOM      2  C   UNL     1      49.357  10.342  12.134  0.00  0.00    +0.000 A 
ATOM      3  C   UNL     1      47.992  10.101  12.357  0.00  0.00    +0.000 A 
ATOM      4  C   UNL     1      47.464   8.806  12.252  0.00  0.00    +0.000 A 
ATOM      5  C   UNL     1      48.332   7.766  11.894  0.00  0.00    +0.000 A 
ATOM      6  C   UNL     1      49.696   8.006  11.670  0.00  0.00    +0.000 A 
ENDROOT
BRANCH   1   7
ATOM      7  C   UNL     1      51.676   9.573  11.454  0.00  0.00    +0.000 C 
BRANCH   7  15
ATOM      8  C   UNL     1      53.156   7.370   7.382  0.00  0.00    +0.000 A 
ATOM      9  C   UNL     1      53.278   7.791   6.065  0.00  0.00    +0.000 A 
ATOM     10  C   UNL     1      53.233   9.203   6.066  0.00  0.00    +0.000 A 
ATOM     11  C   UNL     1      53.052   9.606   7.368  0.00  0.00    +0.000 A 
ATOM     12  N   UNL     1      52.996   8.490   8.196  0.00  0.00    +0.000 N 
ATOM     13  C   UNL     1      52.853   8.502   9.604  0.00  0.00    +0.000 C 
ATOM     14  O   UNL     1      53.416   7.651  10.274  0.00  0.00    +0.000 OA
ATOM     15  N   UNL     1      51.993   9.487  10.046  0.00  0.00    +0.000 N 
ATOM     16  H   UNL     1      51.424  10.002   9.388  0.00  0.00    +0.000 HD
BRANCH   8  17
ATOM     17  C   UNL     1      53.114   5.959   7.901  0.00  0.00    +0.000 C 
BRANCH  17  19
ATOM     18  N   UNL     1      53.761   4.236   6.013  0.00  0.00    +0.000 NA
ATOM     19  C   UNL     1      53.474   4.989   6.850  0.00  0.00    +0.000 C 
ENDBRANCH  17  19
ENDBRANCH   8  17
ENDBRANCH   7  15
ENDBRANCH   1   7
BRANCH   4  20
ATOM     20  C   UNL     1      45.994   8.535  12.486  0.00  0.00    +0.000 C 
BRANCH  20  21
ATOM     21  N   UNL     1      45.672   7.139  12.318  0.00  0.00    +0.000 N 
ATOM     22  C   UNL     1      44.549   6.713  11.655  0.00  0.00    +0.000 C 
ATOM     23  O   UNL     1      43.746   7.508  11.174  0.00  0.00    +0.000 OA
ATOM     24  H   UNL     1      46.301   6.472  12.754  0.00  0.00    +0.000 HD
BRANCH  22  25
ATOM     25  C   UNL     1      44.372   5.258  11.495  0.00  0.00    +0.000 A 
ATOM     26  C   UNL     1      43.711   4.526  12.473  0.00  0.00    +0.000 A 
ATOM     27  S   UNL     1      43.464   2.888  12.059  0.00  0.00    +0.000 S 
ATOM     28  C   UNL     1      44.176   3.117  10.532  0.00  0.00    +0.000 A 
ATOM     29  N   UNL     1      44.140   2.144   9.583  0.00  0.00    +0.000 NA
ATOM     30  C   UNL     1      44.776   2.434   8.498  0.00  0.00    +0.000 A 
ATOM     31  N   UNL     1      45.500   3.579   8.302  0.00  0.00    +0.000 N 
ATOM     32  C   UNL     1      45.506   4.615   9.201  0.00  0.00    +0.000 A 
ATOM     33  O   UNL     1      46.104   5.657   8.955  0.00  0.00    +0.000 OA
ATOM     34  C   UNL     1      44.741   4.376  10.410  0.00  0.00    +0.000 A 
ATOM     35  H   UNL     1      46.009   3.736   7.444  0.00  0.00    +0.000 HD
ENDBRANCH  22  25
ENDBRANCH  20  21
ENDBRANCH   4  20
TORSDOF 7
ENDMDL
MODEL 8
REMARK VINA RESULT:    -5.718      3.274      4.203
REMARK INTER + INTRA:          -9.033
REMARK INTER:                  -7.720
REMARK INTRA:                  -1.313
REMARK UNBOUND:                -0.975
REMARK  Name = 
REMARK  7 active torsions:
REMARK  status: ('A' for Active; 'I' for Inactive)
REMARK    1  A    between atoms: C_2  and  C_3
REMARK    2  A    between atoms: C_3  and  C_4
REMARK    3  A    between atoms: N_11  and  C_12
REMARK    4  A    between atoms: C_12  and  C_13
REMARK    5  A    between atoms: C_16  and  C_17
REMARK    6  A    between atoms: C_17  and  N_18
REMARK    7  A    between atoms: C_19  and  C_21
REMARK                            x       y       z     vdW  Elec       q    Type
REMARK                         _______ _______ _______ _____ _____    ______ ____
ROOT
ATOM      1  C   UNL     1      48.951   8.644  15.573  0.00  0.00    +0.000 A 
ATOM      2  C   UNL     1      48.284   7.973  16.609  0.00  0.00    +0.000 A 
ATOM      3  C   UNL     1      48.977   7.538  17.750  0.00  0.00    +0.000 A 
ATOM      4  C   UNL     1      50.350   7.785  17.896  0.00  0.00    +0.000 A 
ATOM      5  C   UNL     1      51.014   8.455  16.859  0.00  0.00    +0.000 A 
ATOM      6  C   UNL     1      50.322   8.889  15.718  0.00  0.00    +0.000 A 
ENDROOT
BRANCH   1   7
ATOM      7  C   UNL     1      48.221   9.037  14.308  0.00  0.00    +0.000 C 
BRANCH   7  15
ATOM      8  C   UNL     1      46.072   4.759  13.464  0.00  0.00    +0.000 A 
ATOM      9  C   UNL     1      44.773   4.397  13.137  0.00  0.00    +0.000 A 
ATOM     10  C   UNL     1      44.108   5.563  12.695  0.00  0.00    +0.000 A 
ATOM     11  C   UNL     1      44.998   6.605  12.795  0.00  0.00    +0.000 A 
ATOM     12  N   UNL     1      46.216   6.132  13.272  0.00  0.00    +0.000 N 
ATOM     13  C   UNL     1      47.387   6.900  13.475  0.00  0.00    +0.000 C 
ATOM     14  O   UNL     1      48.481   6.395  13.273  0.00  0.00    +0.000 OA
ATOM     15  N   UNL     1      47.121   8.162  13.968  0.00  0.00    +0.000 N 
ATOM     16  H   UNL     1      46.194   8.400  14.291  0.00  0.00    +0.000 HD
BRANCH   8  17
ATOM     17  C   UNL     1      47.165   3.884  14.013  0.00  0.00    +0.000 C 
BRANCH  17  19
ATOM     18  N   UNL     1      47.054   3.769  16.645  0.00  0.00    +0.000 NA
ATOM     19  C   UNL     1      47.107   3.812  15.485  0.00  0.00    +0.000 C 
ENDBRANCH  17  19
ENDBRANCH   8  17
ENDBRANCH   7  15
ENDBRANCH   1   7
BRANCH   4  20
ATOM     20  C   UNL     1      51.108   7.317  19.118  0.00  0.00    +0.000 C 
BRANCH  20  21
ATOM     21  N   UNL     1      51.645   5.990  18.942  0.00  0.00    +0.000 N 
ATOM     22  C   UNL     1      52.923   5.762  18.499  0.00  0.00    +0.000 C 
ATOM     23  O   UNL     1      53.680   6.686  18.216  0.00  0.00    +0.000 OA
ATOM     24  H   UNL     1      51.014   5.216  19.125  0.00  0.00    +0.000 HD
BRANCH  22  25
ATOM     25  C   UNL     1      53.371   4.358  18.427  0.00  0.00    +0.000 A 
ATOM     26  C   UNL     1      54.658   4.017  18.825  0.00  0.00    +0.000 A 
ATOM     27  S   UNL     1      54.958   2.337  18.819  0.00  0.00    +0.000 S 
ATOM     28  C   UNL     1      53.359   2.004  18.346  0.00  0.00    +0.000 A 
ATOM     29  N   UNL     1      52.881   0.731  18.318  0.00  0.00    +0.000 NA
ATOM     30  C   UNL     1      51.672   0.626  17.878  0.00  0.00    +0.000 A 
ATOM     31  N   UNL     1      50.923   1.668  17.402  0.00  0.00    +0.000 N 
ATOM     32  C   UNL     1      51.337   2.973  17.476  0.00  0.00    +0.000 A 
ATOM     33  O   UNL     1      50.605   3.887  17.110  0.00  0.00    +0.000 OA
ATOM     34  C   UNL     1      52.661   3.160  18.036  0.00  0.00    +0.000 A 
ATOM     35  H   UNL     1      49.994   1.519  17.034  0.00  0.00    +0.000 HD
ENDBRANCH  22  25
ENDBRANCH  20  21
ENDBRANCH   4  20
TORSDOF 7
ENDMDL
MODEL 9
REMARK VINA RESULT:    -5.717      5.680      8.342
REMARK INTER + INTRA:          -9.031
REMARK INTER:                  -8.194
REMARK INTRA:                  -0.837
REMARK UNBOUND:                -0.975
REMARK  Name = 
REMARK  7 active torsions:
REMARK  status: ('A' for Active; 'I' for Inactive)
REMARK    1  A    between atoms: C_2  and  C_3
REMARK    2  A    between atoms: C_3  and  C_4
REMARK    3  A    between atoms: N_11  and  C_12
REMARK    4  A    between atoms: C_12  and  C_13
REMARK    5  A    between atoms: C_16  and  C_17
REMARK    6  A    between atoms: C_17  and  N_18
REMARK    7  A    between atoms: C_19  and  C_21
REMARK                            x       y       z     vdW  Elec       q    Type
REMARK                         _______ _______ _______ _____ _____    ______ ____
ROOT
ATOM      1  C   UNL     1      51.716   8.599  12.312  0.00  0.00    +0.000 A 
ATOM      2  C   UNL     1      51.589   8.475  13.704  0.00  0.00    +0.000 A 
ATOM      3  C   UNL     1      50.445   7.896  14.276  0.00  0.00    +0.000 A 
ATOM      4  C   UNL     1      49.409   7.404  13.469  0.00  0.00    +0.000 A 
ATOM      5  C   UNL     1      49.537   7.531  12.079  0.00  0.00    +0.000 A 
ATOM      6  C   UNL     1      50.679   8.109  11.507  0.00  0.00    +0.000 A 
ENDROOT
BRANCH   1   7
ATOM      7  C   UNL     1      52.909   9.298  11.701  0.00  0.00    +0.000 C 
BRANCH   7  15
ATOM      8  C   UNL     1      53.752   6.937   7.536  0.00  0.00    +0.000 A 
ATOM      9  C   UNL     1      53.663   7.306   6.201  0.00  0.00    +0.000 A 
ATOM     10  C   UNL     1      53.609   8.717   6.155  0.00  0.00    +0.000 A 
ATOM     11  C   UNL     1      53.631   9.170   7.452  0.00  0.00    +0.000 A 
ATOM     12  N   UNL     1      53.712   8.088   8.322  0.00  0.00    +0.000 N 
ATOM     13  C   UNL     1      53.791   8.156   9.733  0.00  0.00    +0.000 C 
ATOM     14  O   UNL     1      54.458   7.332  10.340  0.00  0.00    +0.000 OA
ATOM     15  N   UNL     1      53.003   9.157  10.265  0.00  0.00    +0.000 N 
ATOM     16  H   UNL     1      52.335   9.645   9.685  0.00  0.00    +0.000 HD
BRANCH   8  17
ATOM     17  C   UNL     1      53.801   5.548   8.110  0.00  0.00    +0.000 C 
BRANCH  17  19
ATOM     18  N   UNL     1      53.935   3.728   6.207  0.00  0.00    +0.000 NA
ATOM     19  C   UNL     1      53.884   4.530   7.047  0.00  0.00    +0.000 C 
ENDBRANCH  17  19
ENDBRANCH   8  17
ENDBRANCH   7  15
ENDBRANCH   1   7
BRANCH   4  20
ATOM     20  C   UNL     1      48.169   6.783  14.074  0.00  0.00    +0.000 C 
BRANCH  20  21
ATOM     21  N   UNL     1      47.426   6.014  13.105  0.00  0.00    +0.000 N 
ATOM     22  C   UNL     1      46.249   6.457  12.555  0.00  0.00    +0.000 C 
ATOM     23  O   UNL     1      45.758   7.536  12.871  0.00  0.00    +0.000 OA
ATOM     24  H   UNL     1      47.795   5.098  12.872  0.00  0.00    +0.000 HD
BRANCH  22  25
ATOM     25  C   UNL     1      45.625   5.605  11.526  0.00  0.00    +0.000 A 
ATOM     26  C   UNL     1      45.911   5.814  10.182  0.00  0.00    +0.000 A 
ATOM     27  S   UNL     1      45.224   4.647   9.142  0.00  0.00    +0.000 S 
ATOM     28  C   UNL     1      44.574   3.788  10.457  0.00  0.00    +0.000 A 
ATOM     29  N   UNL     1      43.996   2.568  10.288  0.00  0.00    +0.000 NA
ATOM     30  C   UNL     1      43.490   2.064  11.363  0.00  0.00    +0.000 A 
ATOM     31  N   UNL     1      43.451   2.697  12.576  0.00  0.00    +0.000 N 
ATOM     32  C   UNL     1      44.081   3.893  12.809  0.00  0.00    +0.000 A 
ATOM     33  O   UNL     1      44.090   4.391  13.930  0.00  0.00    +0.000 OA
ATOM     34  C   UNL     1      44.736   4.470  11.651  0.00  0.00    +0.000 A 
ATOM     35  H   UNL     1      43.007   2.268  13.375  0.00  0.00    +0.000 HD
ENDBRANCH  22  25
ENDBRANCH  20  21
ENDBRANCH   4  20
TORSDOF 7
ENDMDL
