MODEL 1
REMARK VINA RESULT:    -7.997      0.000      0.000
REMARK INTER + INTRA:         -11.955
REMARK INTER:                 -10.802
REMARK INTRA:                  -1.153
REMARK UNBOUND:                -1.153
REMARK  Name = 
REMARK  7 active torsions:
REMARK  status: ('A' for Active; 'I' for Inactive)
REMARK    1  A    between atoms: C_1  and  O_2
REMARK    2  A    between atoms: O_2  and  C_3
REMARK    3  A    between atoms: C_8  and  C_9
REMARK    4  A    between atoms: C_9  and  C_10
REMARK    5  A    between atoms: C_13  and  C_14
REMARK    6  A    between atoms: C_14  and  N_15
REMARK    7  A    between atoms: C_16  and  C_18
REMARK                            x       y       z     vdW  Elec       q    Type
REMARK                         _______ _______ _______ _____ _____    ______ ____
ROOT
ATOM      1  C   UNL     1      47.613   8.486  13.835  0.00  0.00    +0.000 C 
ENDROOT
BRANCH   1   5
ATOM      2  C   UNL     1      44.886   6.423  11.197  0.00  0.00    +0.000 A 
ATOM      3  C   UNL     1      46.146   5.882  11.479  0.00  0.00    +0.000 A 
ATOM      4  C   UNL     1      47.053   6.573  12.285  0.00  0.00    +0.000 A 
ATOM      5  C   UNL     1      46.708   7.812  12.840  0.00  0.00    +0.000 A 
ATOM      6  C   UNL     1      45.486   8.395  12.483  0.00  0.00    +0.000 A 
ATOM      7  C   UNL     1      44.580   7.704  11.675  0.00  0.00    +0.000 A 
BRANCH   2   8
ATOM      8  C   UNL     1      43.863   5.616  10.430  0.00  0.00    +0.000 C 
BRANCH   8  14
ATOM      9  C   UNL     1      44.104   3.087  10.100  0.00  0.00    +0.000 A 
ATOM     10  C   UNL     1      44.718   2.006   9.451  0.00  0.00    +0.000 A 
ATOM     11  C   UNL     1      45.630   2.220   8.416  0.00  0.00    +0.000 A 
ATOM     12  C   UNL     1      45.922   3.514   8.003  0.00  0.00    +0.000 A 
ATOM     13  C   UNL     1      45.322   4.597   8.643  0.00  0.00    +0.000 A 
ATOM     14  C   UNL     1      44.424   4.403   9.711  0.00  0.00    +0.000 A 
BRANCH   9  16
ATOM     15  C   UNL     1      43.674   2.871  12.434  0.00  0.00    +0.000 C 
ATOM     16  O   UNL     1      43.179   2.955  11.103  0.00  0.00    +0.000 OA
ENDBRANCH   9  16
ENDBRANCH   8  14
ENDBRANCH   2   8
ENDBRANCH   1   5
BRANCH   1  17
ATOM     17  N   UNL     1      47.882   7.660  14.980  0.00  0.00    +0.000 N 
ATOM     18  C   UNL     1      49.119   7.086  15.142  0.00  0.00    +0.000 C 
ATOM     19  O   UNL     1      50.044   7.304  14.363  0.00  0.00    +0.000 OA
ATOM     20  H   UNL     1      47.084   7.295  15.490  0.00  0.00    +0.000 HD
BRANCH  18  21
ATOM     21  C   UNL     1      49.305   6.243  16.329  0.00  0.00    +0.000 A 
ATOM     22  C   UNL     1      50.318   6.547  17.229  0.00  0.00    +0.000 A 
ATOM     23  S   UNL     1      50.368   5.504  18.577  0.00  0.00    +0.000 S 
ATOM     24  C   UNL     1      49.074   4.577  17.974  0.00  0.00    +0.000 A 
ATOM     25  N   UNL     1      48.620   3.489  18.653  0.00  0.00    +0.000 NA
ATOM     26  C   UNL     1      47.659   2.860  18.065  0.00  0.00    +0.000 A 
ATOM     27  N   UNL     1      47.104   3.221  16.865  0.00  0.00    +0.000 N 
ATOM     28  C   UNL     1      47.507   4.328  16.157  0.00  0.00    +0.000 A 
ATOM     29  O   UNL     1      46.964   4.649  15.107  0.00  0.00    +0.000 OA
ATOM     30  C   UNL     1      48.597   5.070  16.772  0.00  0.00    +0.000 A 
ATOM     31  H   UNL     1      46.347   2.691  16.463  0.00  0.00    +0.000 HD
ENDBRANCH  18  21
ENDBRANCH   1  17
TORSDOF 6
ENDMDL
MODEL 2
REMARK VINA RESULT:    -7.180      2.211      2.657
REMARK INTER + INTRA:         -10.852
REMARK INTER:                  -9.777
REMARK INTRA:                  -1.075
REMARK UNBOUND:                -1.153
REMARK  Name = 
REMARK  7 active torsions:
REMARK  status: ('A' for Active; 'I' for Inactive)
REMARK    1  A    between atoms: C_1  and  O_2
REMARK    2  A    between atoms: O_2  and  C_3
REMARK    3  A    between atoms: C_8  and  C_9
REMARK    4  A    between atoms: C_9  and  C_10
REMARK    5  A    between atoms: C_13  and  C_14
REMARK    6  A    between atoms: C_14  and  N_15
REMARK    7  A    between atoms: C_16  and  C_18
REMARK                            x       y       z     vdW  Elec       q    Type
REMARK                         _______ _______ _______ _____ _____    ______ ____
ROOT
ATOM      1  C   UNL     1      48.486   8.031  14.142  0.00  0.00    +0.000 C 
ENDROOT
BRANCH   1   5
ATOM      2  C   UNL     1      45.468   6.235  11.630  0.00  0.00    +0.000 A 
ATOM      3  C   UNL     1      46.292   5.435  12.431  0.00  0.00    +0.000 A 
ATOM      4  C   UNL     1      47.306   6.007  13.202  0.00  0.00    +0.000 A 
ATOM      5  C   UNL     1      47.505   7.394  13.197  0.00  0.00    +0.000 A 
ATOM      6  C   UNL     1      46.743   8.182  12.326  0.00  0.00    +0.000 A 
ATOM      7  C   UNL     1      45.729   7.609  11.555  0.00  0.00    +0.000 A 
BRANCH   2   8
ATOM      8  C   UNL     1      44.293   5.627  10.897  0.00  0.00    +0.000 C 
BRANCH   8  14
ATOM      9  C   UNL     1      44.140   3.206  10.072  0.00  0.00    +0.000 A 
ATOM     10  C   UNL     1      44.576   2.196   9.202  0.00  0.00    +0.000 A 
ATOM     11  C   UNL     1      45.504   2.472   8.196  0.00  0.00    +0.000 A 
ATOM     12  C   UNL     1      45.989   3.764   8.033  0.00  0.00    +0.000 A 
ATOM     13  C   UNL     1      45.566   4.776   8.894  0.00  0.00    +0.000 A 
ATOM     14  C   UNL     1      44.656   4.510   9.935  0.00  0.00    +0.000 A 
BRANCH   9  16
ATOM     15  C   UNL     1      43.696   2.593  12.332  0.00  0.00    +0.000 C 
ATOM     16  O   UNL     1      43.212   3.018  11.063  0.00  0.00    +0.000 OA
ENDBRANCH   9  16
ENDBRANCH   8  14
ENDBRANCH   2   8
ENDBRANCH   1   5
BRANCH   1  17
ATOM     17  N   UNL     1      48.227   7.693  15.515  0.00  0.00    +0.000 N 
ATOM     18  C   UNL     1      49.081   6.858  16.192  0.00  0.00    +0.000 C 
ATOM     19  O   UNL     1      50.113   6.430  15.682  0.00  0.00    +0.000 OA
ATOM     20  H   UNL     1      47.287   7.846  15.864  0.00  0.00    +0.000 HD
BRANCH  18  21
ATOM     21  C   UNL     1      48.736   6.548  17.585  0.00  0.00    +0.000 A 
ATOM     22  C   UNL     1      48.902   5.253  18.057  0.00  0.00    +0.000 A 
ATOM     23  S   UNL     1      48.504   5.072  19.705  0.00  0.00    +0.000 S 
ATOM     24  C   UNL     1      48.043   6.706  19.828  0.00  0.00    +0.000 A 
ATOM     25  N   UNL     1      47.571   7.211  20.999  0.00  0.00    +0.000 NA
ATOM     26  C   UNL     1      47.226   8.452  20.941  0.00  0.00    +0.000 A 
ATOM     27  N   UNL     1      47.317   9.239  19.822  0.00  0.00    +0.000 N 
ATOM     28  C   UNL     1      47.816   8.784  18.625  0.00  0.00    +0.000 A 
ATOM     29  O   UNL     1      47.923   9.523  17.654  0.00  0.00    +0.000 OA
ATOM     30  C   UNL     1      48.211   7.385  18.633  0.00  0.00    +0.000 A 
ATOM     31  H   UNL     1      47.040  10.209  19.845  0.00  0.00    +0.000 HD
ENDBRANCH  18  21
ENDBRANCH   1  17
TORSDOF 6
ENDMDL
MODEL 3
REMARK VINA RESULT:    -7.071      4.167      9.399
REMARK INTER + INTRA:         -10.704
REMARK INTER:                  -9.537
REMARK INTRA:                  -1.167
REMARK UNBOUND:                -1.153
REMARK  Name = 
REMARK  7 active torsions:
REMARK  status: ('A' for Active; 'I' for Inactive)
REMARK    1  A    between atoms: C_1  and  O_2
REMARK    2  A    between atoms: O_2  and  C_3
REMARK    3  A    between atoms: C_8  and  C_9
REMARK    4  A    between atoms: C_9  and  C_10
REMARK    5  A    between atoms: C_13  and  C_14
REMARK    6  A    between atoms: C_14  and  N_15
REMARK    7  A    between atoms: C_16  and  C_18
REMARK                            x       y       z     vdW  Elec       q    Type
REMARK                         _______ _______ _______ _____ _____    ______ ____
ROOT
ATOM      1  C   UNL     1      47.242   3.433  16.790  0.00  0.00    +0.000 C 
ENDROOT
BRANCH   1   5
ATOM      2  C   UNL     1      51.444   4.110  17.516  0.00  0.00    +0.000 A 
ATOM      3  C   UNL     1      50.931   2.808  17.482  0.00  0.00    +0.000 A 
ATOM      4  C   UNL     1      49.564   2.587  17.304  0.00  0.00    +0.000 A 
ATOM      5  C   UNL     1      48.686   3.665  17.140  0.00  0.00    +0.000 A 
ATOM      6  C   UNL     1      49.185   4.968  17.268  0.00  0.00    +0.000 A 
ATOM      7  C   UNL     1      50.552   5.188  17.447  0.00  0.00    +0.000 A 
BRANCH   2   8
ATOM      8  C   UNL     1      52.937   4.341  17.582  0.00  0.00    +0.000 C 
BRANCH   8  14
ATOM      9  C   UNL     1      54.457   2.511  18.535  0.00  0.00    +0.000 A 
ATOM     10  C   UNL     1      55.009   1.856  19.644  0.00  0.00    +0.000 A 
ATOM     11  C   UNL     1      54.766   2.318  20.940  0.00  0.00    +0.000 A 
ATOM     12  C   UNL     1      53.987   3.452  21.139  0.00  0.00    +0.000 A 
ATOM     13  C   UNL     1      53.429   4.109  20.043  0.00  0.00    +0.000 A 
ATOM     14  C   UNL     1      53.636   3.640  18.732  0.00  0.00    +0.000 A 
BRANCH   9  16
ATOM     15  C   UNL     1      54.612   0.744  16.943  0.00  0.00    +0.000 C 
ATOM     16  O   UNL     1      54.674   2.135  17.234  0.00  0.00    +0.000 OA
ENDBRANCH   9  16
ENDBRANCH   8  14
ENDBRANCH   2   8
ENDBRANCH   1   5
BRANCH   1  17
ATOM     17  N   UNL     1      46.741   4.400  15.852  0.00  0.00    +0.000 N 
ATOM     18  C   UNL     1      46.833   4.165  14.503  0.00  0.00    +0.000 C 
ATOM     19  O   UNL     1      47.278   3.111  14.055  0.00  0.00    +0.000 OA
ATOM     20  H   UNL     1      46.589   5.344  16.192  0.00  0.00    +0.000 HD
BRANCH  18  21
ATOM     21  C   UNL     1      46.314   5.211  13.613  0.00  0.00    +0.000 A 
ATOM     22  C   UNL     1      47.089   6.334  13.356  0.00  0.00    +0.000 A 
ATOM     23  S   UNL     1      46.365   7.426  12.264  0.00  0.00    +0.000 S 
ATOM     24  C   UNL     1      44.968   6.462  12.143  0.00  0.00    +0.000 A 
ATOM     25  N   UNL     1      43.921   6.846  11.366  0.00  0.00    +0.000 NA
ATOM     26  C   UNL     1      42.915   6.039  11.393  0.00  0.00    +0.000 A 
ATOM     27  N   UNL     1      42.861   4.878  12.121  0.00  0.00    +0.000 N 
ATOM     28  C   UNL     1      43.904   4.432  12.897  0.00  0.00    +0.000 A 
ATOM     29  O   UNL     1      43.841   3.369  13.503  0.00  0.00    +0.000 OA
ATOM     30  C   UNL     1      45.062   5.311  12.908  0.00  0.00    +0.000 A 
ATOM     31  H   UNL     1      42.046   4.285  12.092  0.00  0.00    +0.000 HD
ENDBRANCH  18  21
ENDBRANCH   1  17
TORSDOF 6
ENDMDL
MODEL 4
REMARK VINA RESULT:    -6.879      4.219      9.071
REMARK INTER + INTRA:         -10.444
REMARK INTER:                  -9.821
REMARK INTRA:                  -0.623
REMARK UNBOUND:                -1.153
REMARK  Name = 
REMARK  7 active torsions:
REMARK  status: ('A' for Active; 'I' for Inactive)
REMARK    1  A    between atoms: C_1  and  O_2
REMARK    2  A    between atoms: O_2  and  C_3
REMARK    3  A    between atoms: C_8  and  C_9
REMARK    4  A    between atoms: C_9  and  C_10
REMARK    5  A    between atoms: C_13  and  C_14
REMARK    6  A    between atoms: C_14  and  N_15
REMARK    7  A    between atoms: C_16  and  C_18
REMARK                            x       y       z     vdW  Elec       q    Type
REMARK                         _______ _______ _______ _____ _____    ______ ____
ROOT
ATOM      1  C   UNL     1      47.221   3.377  16.846  0.00  0.00    +0.000 C 
ENDROOT
BRANCH   1   5
ATOM      2  C   UNL     1      51.380   3.360  18.012  0.00  0.00    +0.000 A 
ATOM      3  C   UNL     1      50.591   4.499  18.212  0.00  0.00    +0.000 A 
ATOM      4  C   UNL     1      49.262   4.529  17.786  0.00  0.00    +0.000 A 
ATOM      5  C   UNL     1      48.692   3.411  17.164  0.00  0.00    +0.000 A 
ATOM      6  C   UNL     1      49.505   2.307  16.880  0.00  0.00    +0.000 A 
ATOM      7  C   UNL     1      50.835   2.279  17.306  0.00  0.00    +0.000 A 
BRANCH   2   8
ATOM      8  C   UNL     1      52.776   3.287  18.587  0.00  0.00    +0.000 C 
BRANCH   8  14
ATOM      9  C   UNL     1      54.778   2.800  17.064  0.00  0.00    +0.000 A 
ATOM     10  C   UNL     1      55.558   1.878  16.350  0.00  0.00    +0.000 A 
ATOM     11  C   UNL     1      55.296   0.509  16.431  0.00  0.00    +0.000 A 
ATOM     12  C   UNL     1      54.269   0.044  17.243  0.00  0.00    +0.000 A 
ATOM     13  C   UNL     1      53.484   0.951  17.955  0.00  0.00    +0.000 A 
ATOM     14  C   UNL     1      53.711   2.337  17.860  0.00  0.00    +0.000 A 
BRANCH   9  16
ATOM     15  C   UNL     1      55.774   4.681  15.992  0.00  0.00    +0.000 C 
ATOM     16  O   UNL     1      54.992   4.154  17.057  0.00  0.00    +0.000 OA
ENDBRANCH   9  16
ENDBRANCH   8  14
ENDBRANCH   2   8
ENDBRANCH   1   5
BRANCH   1  17
ATOM     17  N   UNL     1      46.839   4.390  15.902  0.00  0.00    +0.000 N 
ATOM     18  C   UNL     1      46.945   4.151  14.553  0.00  0.00    +0.000 C 
ATOM     19  O   UNL     1      47.302   3.062  14.112  0.00  0.00    +0.000 OA
ATOM     20  H   UNL     1      46.767   5.343  16.243  0.00  0.00    +0.000 HD
BRANCH  18  21
ATOM     21  C   UNL     1      46.551   5.244  13.656  0.00  0.00    +0.000 A 
ATOM     22  C   UNL     1      47.432   6.294  13.431  0.00  0.00    +0.000 A 
ATOM     23  S   UNL     1      46.844   7.452  12.327  0.00  0.00    +0.000 S 
ATOM     24  C   UNL     1      45.370   6.619  12.156  0.00  0.00    +0.000 A 
ATOM     25  N   UNL     1      44.386   7.101  11.350  0.00  0.00    +0.000 NA
ATOM     26  C   UNL     1      43.311   6.389  11.341  0.00  0.00    +0.000 A 
ATOM     27  N   UNL     1      43.130   5.235  12.058  0.00  0.00    +0.000 N 
ATOM     28  C   UNL     1      44.104   4.692  12.862  0.00  0.00    +0.000 A 
ATOM     29  O   UNL     1      43.926   3.636  13.457  0.00  0.00    +0.000 OA
ATOM     30  C   UNL     1      45.336   5.462  12.914  0.00  0.00    +0.000 A 
ATOM     31  H   UNL     1      42.266   4.718  12.000  0.00  0.00    +0.000 HD
ENDBRANCH  18  21
ENDBRANCH   1  17
TORSDOF 6
ENDMDL
MODEL 5
REMARK VINA RESULT:    -6.878      3.731      8.808
REMARK INTER + INTRA:         -10.444
REMARK INTER:                  -9.228
REMARK INTRA:                  -1.216
REMARK UNBOUND:                -1.153
REMARK  Name = 
REMARK  7 active torsions:
REMARK  status: ('A' for Active; 'I' for Inactive)
REMARK    1  A    between atoms: C_1  and  O_2
REMARK    2  A    between atoms: O_2  and  C_3
REMARK    3  A    between atoms: C_8  and  C_9
REMARK    4  A    between atoms: C_9  and  C_10
REMARK    5  A    between atoms: C_13  and  C_14
REMARK    6  A    between atoms: C_14  and  N_15
REMARK    7  A    between atoms: C_16  and  C_18
REMARK                            x       y       z     vdW  Elec       q    Type
REMARK                         _______ _______ _______ _____ _____    ______ ____
ROOT
ATOM      1  C   UNL     1      47.436   3.469  16.527  0.00  0.00    +0.000 C 
ENDROOT
BRANCH   1   5
ATOM      2  C   UNL     1      51.194   4.963  18.044  0.00  0.00    +0.000 A 
ATOM      3  C   UNL     1      51.024   3.597  17.791  0.00  0.00    +0.000 A 
ATOM      4  C   UNL     1      49.793   3.102  17.354  0.00  0.00    +0.000 A 
ATOM      5  C   UNL     1      48.713   3.968  17.147  0.00  0.00    +0.000 A 
ATOM      6  C   UNL     1      48.855   5.319  17.490  0.00  0.00    +0.000 A 
ATOM      7  C   UNL     1      50.086   5.813  17.927  0.00  0.00    +0.000 A 
BRANCH   2   8
ATOM      8  C   UNL     1      52.559   5.511  18.394  0.00  0.00    +0.000 C 
BRANCH   8  14
ATOM      9  C   UNL     1      54.657   4.685  17.178  0.00  0.00    +0.000 A 
ATOM     10  C   UNL     1      55.577   4.819  16.127  0.00  0.00    +0.000 A 
ATOM     11  C   UNL     1      55.391   5.784  15.135  0.00  0.00    +0.000 A 
ATOM     12  C   UNL     1      54.274   6.610  15.169  0.00  0.00    +0.000 A 
ATOM     13  C   UNL     1      53.355   6.489  16.211  0.00  0.00    +0.000 A 
ATOM     14  C   UNL     1      53.542   5.545  17.238  0.00  0.00    +0.000 A 
BRANCH   9  16
ATOM     15  C   UNL     1      54.654   2.379  17.783  0.00  0.00    +0.000 C 
ATOM     16  O   UNL     1      54.757   3.745  18.170  0.00  0.00    +0.000 OA
ENDBRANCH   9  16
ENDBRANCH   8  14
ENDBRANCH   2   8
ENDBRANCH   1   5
BRANCH   1  17
ATOM     17  N   UNL     1      46.835   4.437  15.651  0.00  0.00    +0.000 N 
ATOM     18  C   UNL     1      46.808   4.218  14.296  0.00  0.00    +0.000 C 
ATOM     19  O   UNL     1      47.228   3.178  13.797  0.00  0.00    +0.000 OA
ATOM     20  H   UNL     1      46.699   5.375  16.015  0.00  0.00    +0.000 HD
BRANCH  18  21
ATOM     21  C   UNL     1      46.192   5.264  13.470  0.00  0.00    +0.000 A 
ATOM     22  C   UNL     1      46.876   6.452  13.252  0.00  0.00    +0.000 A 
ATOM     23  S   UNL     1      46.047   7.538  12.232  0.00  0.00    +0.000 S 
ATOM     24  C   UNL     1      44.722   6.480  12.094  0.00  0.00    +0.000 A 
ATOM     25  N   UNL     1      43.630   6.823  11.359  0.00  0.00    +0.000 NA
ATOM     26  C   UNL     1      42.686   5.944  11.369  0.00  0.00    +0.000 A 
ATOM     27  N   UNL     1      42.735   4.749  12.039  0.00  0.00    +0.000 N 
ATOM     28  C   UNL     1      43.827   4.344  12.769  0.00  0.00    +0.000 A 
ATOM     29  O   UNL     1      43.858   3.252  13.323  0.00  0.00    +0.000 OA
ATOM     30  C   UNL     1      44.919   5.305  12.798  0.00  0.00    +0.000 A 
ATOM     31  H   UNL     1      41.965   4.098  11.999  0.00  0.00    +0.000 HD
ENDBRANCH  18  21
ENDBRANCH   1  17
TORSDOF 6
ENDMDL
MODEL 6
REMARK VINA RESULT:    -6.804      1.498      2.395
REMARK INTER + INTRA:         -10.344
REMARK INTER:                  -8.792
REMARK INTRA:                  -1.552
REMARK UNBOUND:                -1.153
REMARK  Name = 
REMARK  7 active torsions:
REMARK  status: ('A' for Active; 'I' for Inactive)
REMARK    1  A    between atoms: C_1  and  O_2
REMARK    2  A    between atoms: O_2  and  C_3
REMARK    3  A    between atoms: C_8  and  C_9
REMARK    4  A    between atoms: C_9  and  C_10
REMARK    5  A    between atoms: C_13  and  C_14
REMARK    6  A    between atoms: C_14  and  N_15
REMARK    7  A    between atoms: C_16  and  C_18
REMARK                            x       y       z     vdW  Elec       q    Type
REMARK                         _______ _______ _______ _____ _____    ______ ____
ROOT
ATOM      1  C   UNL     1      49.236   8.637  14.205  0.00  0.00    +0.000 C 
ENDROOT
BRANCH   1   5
ATOM      2  C   UNL     1      45.876   7.432  11.774  0.00  0.00    +0.000 A 
ATOM      3  C   UNL     1      47.075   6.710  11.735  0.00  0.00    +0.000 A 
ATOM      4  C   UNL     1      48.182   7.129  12.476  0.00  0.00    +0.000 A 
ATOM      5  C   UNL     1      48.104   8.271  13.284  0.00  0.00    +0.000 A 
ATOM      6  C   UNL     1      46.937   9.044  13.250  0.00  0.00    +0.000 A 
ATOM      7  C   UNL     1      45.831   8.625  12.508  0.00  0.00    +0.000 A 
BRANCH   2   8
ATOM      8  C   UNL     1      44.645   6.906  11.071  0.00  0.00    +0.000 C 
BRANCH   8  14
ATOM      9  C   UNL     1      44.358   4.437  10.447  0.00  0.00    +0.000 A 
ATOM     10  C   UNL     1      43.940   3.145  10.793  0.00  0.00    +0.000 A 
ATOM     11  C   UNL     1      43.471   2.866  12.078  0.00  0.00    +0.000 A 
ATOM     12  C   UNL     1      43.438   3.870  13.039  0.00  0.00    +0.000 A 
ATOM     13  C   UNL     1      43.847   5.161  12.706  0.00  0.00    +0.000 A 
ATOM     14  C   UNL     1      44.291   5.468  11.406  0.00  0.00    +0.000 A 
BRANCH   9  16
ATOM     15  C   UNL     1      45.031   3.730   8.273  0.00  0.00    +0.000 C 
ATOM     16  O   UNL     1      44.855   4.780   9.216  0.00  0.00    +0.000 OA
ENDBRANCH   9  16
ENDBRANCH   8  14
ENDBRANCH   2   8
ENDBRANCH   1   5
BRANCH   1  17
ATOM     17  N   UNL     1      49.321   7.765  15.344  0.00  0.00    +0.000 N 
ATOM     18  C   UNL     1      48.711   8.110  16.525  0.00  0.00    +0.000 C 
ATOM     19  O   UNL     1      48.029   9.126  16.632  0.00  0.00    +0.000 OA
ATOM     20  H   UNL     1      50.052   7.061  15.339  0.00  0.00    +0.000 HD
BRANCH  18  21
ATOM     21  C   UNL     1      48.862   7.173  17.644  0.00  0.00    +0.000 A 
ATOM     22  C   UNL     1      49.279   7.648  18.881  0.00  0.00    +0.000 A 
ATOM     23  S   UNL     1      49.352   6.443  20.085  0.00  0.00    +0.000 S 
ATOM     24  C   UNL     1      48.884   5.236  18.980  0.00  0.00    +0.000 A 
ATOM     25  N   UNL     1      48.773   3.938  19.371  0.00  0.00    +0.000 NA
ATOM     26  C   UNL     1      48.444   3.125  18.425  0.00  0.00    +0.000 A 
ATOM     27  N   UNL     1      48.207   3.490  17.125  0.00  0.00    +0.000 N 
ATOM     28  C   UNL     1      48.276   4.792  16.689  0.00  0.00    +0.000 A 
ATOM     29  O   UNL     1      48.018   5.092  15.529  0.00  0.00    +0.000 OA
ATOM     30  C   UNL     1      48.653   5.750  17.716  0.00  0.00    +0.000 A 
ATOM     31  H   UNL     1      47.943   2.805  16.433  0.00  0.00    +0.000 HD
ENDBRANCH  18  21
ENDBRANCH   1  17
TORSDOF 6
ENDMDL
MODEL 7
REMARK VINA RESULT:    -6.664      3.334      7.875
REMARK INTER + INTRA:         -10.155
REMARK INTER:                  -9.074
REMARK INTRA:                  -1.081
REMARK UNBOUND:                -1.153
REMARK  Name = 
REMARK  7 active torsions:
REMARK  status: ('A' for Active; 'I' for Inactive)
REMARK    1  A    between atoms: C_1  and  O_2
REMARK    2  A    between atoms: O_2  and  C_3
REMARK    3  A    between atoms: C_8  and  C_9
REMARK    4  A    between atoms: C_9  and  C_10
REMARK    5  A    between atoms: C_13  and  C_14
REMARK    6  A    between atoms: C_14  and  N_15
REMARK    7  A    between atoms: C_16  and  C_18
REMARK                            x       y       z     vdW  Elec       q    Type
REMARK                         _______ _______ _______ _____ _____    ______ ____
ROOT
ATOM      1  C   UNL     1      48.214   8.115  12.024  0.00  0.00    +0.000 C 
ENDROOT
BRANCH   1   5
ATOM      2  C   UNL     1      50.248   6.914  15.639  0.00  0.00    +0.000 A 
ATOM      3  C   UNL     1      48.901   6.588  15.441  0.00  0.00    +0.000 A 
ATOM      4  C   UNL     1      48.224   7.023  14.300  0.00  0.00    +0.000 A 
ATOM      5  C   UNL     1      48.887   7.780  13.326  0.00  0.00    +0.000 A 
ATOM      6  C   UNL     1      50.206   8.185  13.569  0.00  0.00    +0.000 A 
ATOM      7  C   UNL     1      50.882   7.750  14.711  0.00  0.00    +0.000 A 
BRANCH   2   8
ATOM      8  C   UNL     1      51.009   6.337  16.811  0.00  0.00    +0.000 C 
BRANCH   8  14
ATOM      9  C   UNL     1      49.690   4.468  17.966  0.00  0.00    +0.000 A 
ATOM     10  C   UNL     1      48.818   4.056  18.983  0.00  0.00    +0.000 A 
ATOM     11  C   UNL     1      48.399   4.951  19.969  0.00  0.00    +0.000 A 
ATOM     12  C   UNL     1      48.864   6.260  19.964  0.00  0.00    +0.000 A 
ATOM     13  C   UNL     1      49.728   6.683  18.954  0.00  0.00    +0.000 A 
ATOM     14  C   UNL     1      50.136   5.805  17.933  0.00  0.00    +0.000 A 
BRANCH   9  16
ATOM     15  C   UNL     1      50.854   2.467  17.397  0.00  0.00    +0.000 C 
ATOM     16  O   UNL     1      50.167   3.641  16.981  0.00  0.00    +0.000 OA
ENDBRANCH   9  16
ENDBRANCH   8  14
ENDBRANCH   2   8
ENDBRANCH   1   5
BRANCH   1  17
ATOM     17  N   UNL     1      47.557   6.980  11.436  0.00  0.00    +0.000 N 
ATOM     18  C   UNL     1      46.186   6.923  11.391  0.00  0.00    +0.000 C 
ATOM     19  O   UNL     1      45.483   7.851  11.784  0.00  0.00    +0.000 OA
ATOM     20  H   UNL     1      48.102   6.132  11.324  0.00  0.00    +0.000 HD
BRANCH  18  21
ATOM     21  C   UNL     1      45.594   5.722  10.790  0.00  0.00    +0.000 A 
ATOM     22  C   UNL     1      45.749   5.492   9.430  0.00  0.00    +0.000 A 
ATOM     23  S   UNL     1      45.047   4.030   8.901  0.00  0.00    +0.000 S 
ATOM     24  C   UNL     1      44.464   3.684  10.462  0.00  0.00    +0.000 A 
ATOM     25  N   UNL     1      43.738   2.559  10.701  0.00  0.00    +0.000 NA
ATOM     26  C   UNL     1      43.330   2.440  11.919  0.00  0.00    +0.000 A 
ATOM     27  N   UNL     1      43.587   3.337  12.924  0.00  0.00    +0.000 N 
ATOM     28  C   UNL     1      44.341   4.472  12.739  0.00  0.00    +0.000 A 
ATOM     29  O   UNL     1      44.588   5.234  13.666  0.00  0.00    +0.000 OA
ATOM     30  C   UNL     1      44.819   4.660  11.378  0.00  0.00    +0.000 A 
ATOM     31  H   UNL     1      43.247   3.180  13.860  0.00  0.00    +0.000 HD
ENDBRANCH  18  21
ENDBRANCH   1  17
TORSDOF 6
ENDMDL
MODEL 8
REMARK VINA RESULT:    -6.591      3.420      7.931
REMARK INTER + INTRA:         -10.056
REMARK INTER:                  -8.814
REMARK INTRA:                  -1.241
REMARK UNBOUND:                -1.153
REMARK  Name = 
REMARK  7 active torsions:
REMARK  status: ('A' for Active; 'I' for Inactive)
REMARK    1  A    between atoms: C_1  and  O_2
REMARK    2  A    between atoms: O_2  and  C_3
REMARK    3  A    between atoms: C_8  and  C_9
REMARK    4  A    between atoms: C_9  and  C_10
REMARK    5  A    between atoms: C_13  and  C_14
REMARK    6  A    between atoms: C_14  and  N_15
REMARK    7  A    between atoms: C_16  and  C_18
REMARK                            x       y       z     vdW  Elec       q    Type
REMARK                         _______ _______ _______ _____ _____    ______ ____
ROOT
ATOM      1  C   UNL     1      47.259   7.961  11.773  0.00  0.00    +0.000 C 
ENDROOT
BRANCH   1   5
ATOM      2  C   UNL     1      49.208   7.860  15.625  0.00  0.00    +0.000 A 
ATOM      3  C   UNL     1      48.222   8.816  15.354  0.00  0.00    +0.000 A 
ATOM      4  C   UNL     1      47.630   8.889  14.091  0.00  0.00    +0.000 A 
ATOM      5  C   UNL     1      48.002   7.994  13.081  0.00  0.00    +0.000 A 
ATOM      6  C   UNL     1      49.052   7.100  13.323  0.00  0.00    +0.000 A 
ATOM      7  C   UNL     1      49.645   7.028  14.585  0.00  0.00    +0.000 A 
BRANCH   2   8
ATOM      8  C   UNL     1      49.755   7.703  17.026  0.00  0.00    +0.000 C 
BRANCH   8  14
ATOM      9  C   UNL     1      49.499   5.260  17.756  0.00  0.00    +0.000 A 
ATOM     10  C   UNL     1      50.086   4.036  18.107  0.00  0.00    +0.000 A 
ATOM     11  C   UNL     1      51.469   3.861  18.032  0.00  0.00    +0.000 A 
ATOM     12  C   UNL     1      52.278   4.897  17.583  0.00  0.00    +0.000 A 
ATOM     13  C   UNL     1      51.706   6.121  17.235  0.00  0.00    +0.000 A 
ATOM     14  C   UNL     1      50.317   6.327  17.336  0.00  0.00    +0.000 A 
BRANCH   9  16
ATOM     15  C   UNL     1      47.297   4.444  17.345  0.00  0.00    +0.000 C 
ATOM     16  O   UNL     1      48.149   5.499  17.777  0.00  0.00    +0.000 OA
ENDBRANCH   9  16
ENDBRANCH   8  14
ENDBRANCH   2   8
ENDBRANCH   1   5
BRANCH   1  17
ATOM     17  N   UNL     1      46.660   6.680  11.513  0.00  0.00    +0.000 N 
ATOM     18  C   UNL     1      45.307   6.506  11.670  0.00  0.00    +0.000 C 
ATOM     19  O   UNL     1      44.562   7.436  11.969  0.00  0.00    +0.000 OA
ATOM     20  H   UNL     1      47.275   5.873  11.493  0.00  0.00    +0.000 HD
BRANCH  18  21
ATOM     21  C   UNL     1      44.778   5.164  11.401  0.00  0.00    +0.000 A 
ATOM     22  C   UNL     1      44.042   4.512  12.381  0.00  0.00    +0.000 A 
ATOM     23  S   UNL     1      43.457   2.986  11.893  0.00  0.00    +0.000 S 
ATOM     24  C   UNL     1      44.216   3.122  10.376  0.00  0.00    +0.000 A 
ATOM     25  N   UNL     1      44.129   2.120   9.461  0.00  0.00    +0.000 NA
ATOM     26  C   UNL     1      44.780   2.340   8.369  0.00  0.00    +0.000 A 
ATOM     27  N   UNL     1      45.505   3.473   8.103  0.00  0.00    +0.000 N 
ATOM     28  C   UNL     1      45.598   4.525   8.983  0.00  0.00    +0.000 A 
ATOM     29  O   UNL     1      46.219   5.542   8.700  0.00  0.00    +0.000 OA
ATOM     30  C   UNL     1      44.888   4.324  10.236  0.00  0.00    +0.000 A 
ATOM     31  H   UNL     1      45.984   3.588   7.224  0.00  0.00    +0.000 HD
ENDBRANCH  18  21
ENDBRANCH   1  17
TORSDOF 6
ENDMDL
MODEL 9
REMARK VINA RESULT:    -6.521      4.915      7.914
REMARK INTER + INTRA:          -9.961
REMARK INTER:                  -8.941
REMARK INTRA:                  -1.020
REMARK UNBOUND:                -1.153
REMARK  Name = 
REMARK  7 active torsions:
REMARK  status: ('A' for Active; 'I' for Inactive)
REMARK    1  A    between atoms: C_1  and  O_2
REMARK    2  A    between atoms: O_2  and  C_3
REMARK    3  A    between atoms: C_8  and  C_9
REMARK    4  A    between atoms: C_9  and  C_10
REMARK    5  A    between atoms: C_13  and  C_14
REMARK    6  A    between atoms: C_14  and  N_15
REMARK    7  A    between atoms: C_16  and  C_18
REMARK                            x       y       z     vdW  Elec       q    Type
REMARK                         _______ _______ _______ _____ _____    ______ ____
ROOT
ATOM      1  C   UNL     1      46.757   8.141  13.116  0.00  0.00    +0.000 C 
ENDROOT
BRANCH   1   5
ATOM      2  C   UNL     1      50.538   8.961  11.196  0.00  0.00    +0.000 A 
ATOM      3  C   UNL     1      49.612   9.990  11.409  0.00  0.00    +0.000 A 
ATOM      4  C   UNL     1      48.366   9.719  11.978  0.00  0.00    +0.000 A 
ATOM      5  C   UNL     1      48.028   8.415  12.360  0.00  0.00    +0.000 A 
ATOM      6  C   UNL     1      48.915   7.372  12.060  0.00  0.00    +0.000 A 
ATOM      7  C   UNL     1      50.161   7.644  11.491  0.00  0.00    +0.000 A 
BRANCH   2   8
ATOM      8  C   UNL     1      51.929   9.277  10.698  0.00  0.00    +0.000 C 
BRANCH   8  14
ATOM      9  C   UNL     1      53.773   7.585  11.248  0.00  0.00    +0.000 A 
ATOM     10  C   UNL     1      54.580   6.507  10.856  0.00  0.00    +0.000 A 
ATOM     11  C   UNL     1      54.397   5.893   9.616  0.00  0.00    +0.000 A 
ATOM     12  C   UNL     1      53.392   6.333   8.763  0.00  0.00    +0.000 A 
ATOM     13  C   UNL     1      52.586   7.407   9.140  0.00  0.00    +0.000 A 
ATOM     14  C   UNL     1      52.777   8.060  10.372  0.00  0.00    +0.000 A 
BRANCH   9  16
ATOM     15  C   UNL     1      55.177   8.351  13.015  0.00  0.00    +0.000 C 
ATOM     16  O   UNL     1      53.874   8.219  12.459  0.00  0.00    +0.000 OA
ENDBRANCH   9  16
ENDBRANCH   8  14
ENDBRANCH   2   8
ENDBRANCH   1   5
BRANCH   1  17
ATOM     17  N   UNL     1      46.213   6.843  12.825  0.00  0.00    +0.000 N 
ATOM     18  C   UNL     1      45.227   6.705  11.879  0.00  0.00    +0.000 C 
ATOM     19  O   UNL     1      44.827   7.656  11.213  0.00  0.00    +0.000 OA
ATOM     20  H   UNL     1      46.364   6.109  13.510  0.00  0.00    +0.000 HD
BRANCH  18  21
ATOM     21  C   UNL     1      44.713   5.348  11.654  0.00  0.00    +0.000 A 
ATOM     22  C   UNL     1      43.998   4.714  12.662  0.00  0.00    +0.000 A 
ATOM     23  S   UNL     1      43.428   3.168  12.223  0.00  0.00    +0.000 S 
ATOM     24  C   UNL     1      44.166   3.272  10.693  0.00  0.00    +0.000 A 
ATOM     25  N   UNL     1      44.081   2.243   9.807  0.00  0.00    +0.000 NA
ATOM     26  C   UNL     1      44.716   2.442   8.701  0.00  0.00    +0.000 A 
ATOM     27  N   UNL     1      45.421   3.577   8.395  0.00  0.00    +0.000 N 
ATOM     28  C   UNL     1      45.511   4.654   9.244  0.00  0.00    +0.000 A 
ATOM     29  O   UNL     1      46.115   5.671   8.925  0.00  0.00    +0.000 OA
ATOM     30  C   UNL     1      44.820   4.478  10.512  0.00  0.00    +0.000 A 
ATOM     31  H   UNL     1      45.888   3.674   7.507  0.00  0.00    +0.000 HD
ENDBRANCH  18  21
ENDBRANCH   1  17
TORSDOF 6
ENDMDL
