MODEL 1
REMARK VINA RESULT:    -8.519      0.000      0.000
REMARK INTER + INTRA:         -13.245
REMARK INTER:                 -12.504
REMARK INTRA:                  -0.741
REMARK UNBOUND:                -0.741
REMARK  Name = 
REMARK  9 active torsions:
REMARK  status: ('A' for Active; 'I' for Inactive)
REMARK    1  A    between atoms: C_1  and  C_2
REMARK    2  A    between atoms: C_2  and  N_3
REMARK    3  A    between atoms: C_2  and  C_19
REMARK    4  A    between atoms: N_3  and  C_4
REMARK    5  A    between atoms: C_4  and  C_5
REMARK    6  A    between atoms: C_8  and  C_9
REMARK    7  A    between atoms: C_9  and  N_10
REMARK    8  A    between atoms: N_10  and  C_11
REMARK    9  A    between atoms: C_11  and  C_12
REMARK                            x       y       z     vdW  Elec       q    Type
REMARK                         _______ _______ _______ _____ _____    ______ ____
ROOT
ATOM      1  C   UNL     1      47.434   5.148  14.787  0.00  0.00    +0.000 C 
ENDROOT
BRANCH   1   2
ATOM      2  C   UNL     1      46.537   4.937  13.596  0.00  0.00    +0.000 A 
ATOM      3  C   UNL     1      46.177   3.644  13.191  0.00  0.00    +0.000 A 
ATOM      4  C   UNL     1      45.276   3.457  12.145  0.00  0.00    +0.000 A 
ATOM      5  C   UNL     1      44.699   4.555  11.486  0.00  0.00    +0.000 A 
ATOM      6  C   UNL     1      45.069   5.842  11.886  0.00  0.00    +0.000 A 
ATOM      7  C   UNL     1      45.978   6.030  12.927  0.00  0.00    +0.000 A 
BRANCH   5   8
ATOM      8  C   UNL     1      43.729   4.371  10.339  0.00  0.00    +0.000 C 
BRANCH   8   9
ATOM      9  N   UNL     1      44.274   3.499   9.311  0.00  0.00    +0.000 NA
ATOM     10  H   UNL     1      43.498   3.149   8.735  0.00  0.00    +0.000 HD
BRANCH   9  11
ATOM     11  C   UNL     1      45.208   4.189   8.426  0.00  0.00    +0.000 C 
BRANCH  11  12
ATOM     12  C   UNL     1      45.883   3.151   7.516  0.00  0.00    +0.000 C 
ATOM     13  C   UNL     1      46.176   1.832   8.202  0.00  0.00    +0.000 C 
ATOM     14  C   UNL     1      47.176   1.190   7.255  0.00  0.00    +0.000 C 
ATOM     15  C   UNL     1      47.899   2.364   6.602  0.00  0.00    +0.000 C 
ATOM     16  N   UNL     1      47.224   3.576   7.064  0.00  0.00    +0.000 NA
ATOM     17  H   UNL     1      47.127   4.246   6.303  0.00  0.00    +0.000 HD
ENDBRANCH  11  12
ENDBRANCH   9  11
ENDBRANCH   8   9
ENDBRANCH   5   8
ENDBRANCH   1   2
BRANCH   1  18
ATOM     18  N   UNL     1      47.723   3.909  15.512  0.00  0.00    +0.000 NA
ATOM     19  H   UNL     1      48.649   3.588  15.231  0.00  0.00    +0.000 HD
BRANCH  18  21
ATOM     20  C   UNL     1      47.049   2.920  17.699  0.00  0.00    +0.000 C 
ATOM     21  C   UNL     1      47.704   4.102  16.972  0.00  0.00    +0.000 C 
BRANCH  21  22
ATOM     22  C   UNL     1      49.144   4.295  17.410  0.00  0.00    +0.000 A 
ATOM     23  C   UNL     1      49.640   5.461  17.979  0.00  0.00    +0.000 A 
ATOM     24  S   UNL     1      51.270   5.333  18.476  0.00  0.00    +0.000 S 
ATOM     25  C   UNL     1      51.358   3.712  17.962  0.00  0.00    +0.000 A 
ATOM     26  N   UNL     1      52.473   2.960  18.189  0.00  0.00    +0.000 NA
ATOM     27  C   UNL     1      52.375   1.739  17.772  0.00  0.00    +0.000 A 
ATOM     28  N   UNL     1      51.290   1.217  17.111  0.00  0.00    +0.000 N 
ATOM     29  C   UNL     1      50.196   1.973  16.759  0.00  0.00    +0.000 A 
ATOM     30  O   UNL     1      49.333   1.544  16.002  0.00  0.00    +0.000 OA
ATOM     31  C   UNL     1      50.196   3.308  17.333  0.00  0.00    +0.000 A 
ATOM     32  H   UNL     1      51.316   0.277  16.747  0.00  0.00    +0.000 HD
ENDBRANCH  21  22
ENDBRANCH  18  21
ENDBRANCH   1  18
TORSDOF 8
ENDMDL
MODEL 2
REMARK VINA RESULT:    -8.211      2.367      3.309
REMARK INTER + INTRA:         -12.792
REMARK INTER:                 -11.410
REMARK INTRA:                  -1.382
REMARK UNBOUND:                -0.741
REMARK  Name = 
REMARK  9 active torsions:
REMARK  status: ('A' for Active; 'I' for Inactive)
REMARK    1  A    between atoms: C_1  and  C_2
REMARK    2  A    between atoms: C_2  and  N_3
REMARK    3  A    between atoms: C_2  and  C_19
REMARK    4  A    between atoms: N_3  and  C_4
REMARK    5  A    between atoms: C_4  and  C_5
REMARK    6  A    between atoms: C_8  and  C_9
REMARK    7  A    between atoms: C_9  and  N_10
REMARK    8  A    between atoms: N_10  and  C_11
REMARK    9  A    between atoms: C_11  and  C_12
REMARK                            x       y       z     vdW  Elec       q    Type
REMARK                         _______ _______ _______ _____ _____    ______ ____
ROOT
ATOM      1  C   UNL     1      46.462   8.284  12.811  0.00  0.00    +0.000 C 
ENDROOT
BRANCH   1   2
ATOM      2  C   UNL     1      45.707   7.105  12.257  0.00  0.00    +0.000 A 
ATOM      3  C   UNL     1      46.117   6.486  11.069  0.00  0.00    +0.000 A 
ATOM      4  C   UNL     1      45.469   5.341  10.609  0.00  0.00    +0.000 A 
ATOM      5  C   UNL     1      44.406   4.775  11.331  0.00  0.00    +0.000 A 
ATOM      6  C   UNL     1      43.994   5.402  12.511  0.00  0.00    +0.000 A 
ATOM      7  C   UNL     1      44.636   6.553  12.967  0.00  0.00    +0.000 A 
BRANCH   5   8
ATOM      8  C   UNL     1      43.682   3.541  10.841  0.00  0.00    +0.000 C 
BRANCH   8   9
ATOM      9  N   UNL     1      44.601   2.436  10.612  0.00  0.00    +0.000 NA
ATOM     10  H   UNL     1      44.338   1.660  11.233  0.00  0.00    +0.000 HD
BRANCH   9  11
ATOM     11  C   UNL     1      44.556   1.943   9.240  0.00  0.00    +0.000 C 
BRANCH  11  12
ATOM     12  C   UNL     1      45.919   2.200   8.578  0.00  0.00    +0.000 C 
ATOM     13  C   UNL     1      45.857   3.145   7.395  0.00  0.00    +0.000 C 
ATOM     14  C   UNL     1      47.189   2.890   6.709  0.00  0.00    +0.000 C 
ATOM     15  C   UNL     1      47.525   1.440   7.041  0.00  0.00    +0.000 C 
ATOM     16  N   UNL     1      46.500   0.982   7.979  0.00  0.00    +0.000 NA
ATOM     17  H   UNL     1      46.914   0.409   8.713  0.00  0.00    +0.000 HD
ENDBRANCH  11  12
ENDBRANCH   9  11
ENDBRANCH   8   9
ENDBRANCH   5   8
ENDBRANCH   1   2
BRANCH   1  18
ATOM     18  N   UNL     1      47.199   7.967  14.036  0.00  0.00    +0.000 NA
ATOM     19  H   UNL     1      46.538   7.589  14.713  0.00  0.00    +0.000 HD
BRANCH  18  21
ATOM     20  C   UNL     1      49.415   7.558  12.969  0.00  0.00    +0.000 C 
ATOM     21  C   UNL     1      48.265   6.977  13.803  0.00  0.00    +0.000 C 
BRANCH  21  22
ATOM     22  C   UNL     1      48.745   6.516  15.167  0.00  0.00    +0.000 A 
ATOM     23  C   UNL     1      49.748   7.142  15.897  0.00  0.00    +0.000 A 
ATOM     24  S   UNL     1      49.982   6.463  17.447  0.00  0.00    +0.000 S 
ATOM     25  C   UNL     1      48.741   5.324  17.198  0.00  0.00    +0.000 A 
ATOM     26  N   UNL     1      48.349   4.479  18.194  0.00  0.00    +0.000 NA
ATOM     27  C   UNL     1      47.372   3.697  17.864  0.00  0.00    +0.000 A 
ATOM     28  N   UNL     1      46.787   3.650  16.622  0.00  0.00    +0.000 N 
ATOM     29  C   UNL     1      47.231   4.401  15.558  0.00  0.00    +0.000 A 
ATOM     30  O   UNL     1      46.830   4.202  14.418  0.00  0.00    +0.000 OA
ATOM     31  C   UNL     1      48.225   5.398  15.918  0.00  0.00    +0.000 A 
ATOM     32  H   UNL     1      46.081   2.960  16.415  0.00  0.00    +0.000 HD
ENDBRANCH  21  22
ENDBRANCH  18  21
ENDBRANCH   1  18
TORSDOF 8
ENDMDL
MODEL 3
REMARK VINA RESULT:    -7.599      1.915      2.419
REMARK INTER + INTRA:         -11.894
REMARK INTER:                 -10.944
REMARK INTRA:                  -0.950
REMARK UNBOUND:                -0.741
REMARK  Name = 
REMARK  9 active torsions:
REMARK  status: ('A' for Active; 'I' for Inactive)
REMARK    1  A    between atoms: C_1  and  C_2
REMARK    2  A    between atoms: C_2  and  N_3
REMARK    3  A    between atoms: C_2  and  C_19
REMARK    4  A    between atoms: N_3  and  C_4
REMARK    5  A    between atoms: C_4  and  C_5
REMARK    6  A    between atoms: C_8  and  C_9
REMARK    7  A    between atoms: C_9  and  N_10
REMARK    8  A    between atoms: N_10  and  C_11
REMARK    9  A    between atoms: C_11  and  C_12
REMARK                            x       y       z     vdW  Elec       q    Type
REMARK                         _______ _______ _______ _____ _____    ______ ____
ROOT
ATOM      1  C   UNL     1      48.278   6.482  13.753  0.00  0.00    +0.000 C 
ENDROOT
BRANCH   1   2
ATOM      2  C   UNL     1      47.151   5.983  12.888  0.00  0.00    +0.000 A 
ATOM      3  C   UNL     1      46.305   4.959  13.334  0.00  0.00    +0.000 A 
ATOM      4  C   UNL     1      45.210   4.563  12.568  0.00  0.00    +0.000 A 
ATOM      5  C   UNL     1      44.923   5.190  11.344  0.00  0.00    +0.000 A 
ATOM      6  C   UNL     1      45.775   6.204  10.899  0.00  0.00    +0.000 A 
ATOM      7  C   UNL     1      46.876   6.594  11.660  0.00  0.00    +0.000 A 
BRANCH   5   8
ATOM      8  C   UNL     1      43.747   4.765  10.493  0.00  0.00    +0.000 C 
BRANCH   8   9
ATOM      9  N   UNL     1      44.178   4.246   9.204  0.00  0.00    +0.000 NA
ATOM     10  H   UNL     1      45.050   4.721   8.937  0.00  0.00    +0.000 HD
BRANCH   9  11
ATOM     11  C   UNL     1      44.444   2.812   9.236  0.00  0.00    +0.000 C 
BRANCH  11  12
ATOM     12  C   UNL     1      45.818   2.550   8.600  0.00  0.00    +0.000 C 
ATOM     13  C   UNL     1      46.001   3.204   7.245  0.00  0.00    +0.000 C 
ATOM     14  C   UNL     1      47.207   2.464   6.690  0.00  0.00    +0.000 C 
ATOM     15  C   UNL     1      47.143   1.083   7.332  0.00  0.00    +0.000 C 
ATOM     16  N   UNL     1      46.044   1.123   8.295  0.00  0.00    +0.000 NA
ATOM     17  H   UNL     1      46.296   0.631   9.151  0.00  0.00    +0.000 HD
ENDBRANCH  11  12
ENDBRANCH   9  11
ENDBRANCH   8   9
ENDBRANCH   5   8
ENDBRANCH   1   2
BRANCH   1  18
ATOM     18  N   UNL     1      47.835   6.895  15.087  0.00  0.00    +0.000 NA
ATOM     19  H   UNL     1      47.044   6.310  15.352  0.00  0.00    +0.000 HD
BRANCH  18  21
ATOM     20  C   UNL     1      48.782   7.802  17.207  0.00  0.00    +0.000 C 
ATOM     21  C   UNL     1      48.899   6.751  16.095  0.00  0.00    +0.000 C 
BRANCH  21  22
ATOM     22  C   UNL     1      48.794   5.342  16.648  0.00  0.00    +0.000 A 
ATOM     23  C   UNL     1      47.607   4.627  16.750  0.00  0.00    +0.000 A 
ATOM     24  S   UNL     1      47.826   3.024  17.300  0.00  0.00    +0.000 S 
ATOM     25  C   UNL     1      49.513   3.231  17.403  0.00  0.00    +0.000 A 
ATOM     26  N   UNL     1      50.332   2.189  17.725  0.00  0.00    +0.000 NA
ATOM     27  C   UNL     1      51.590   2.493  17.728  0.00  0.00    +0.000 A 
ATOM     28  N   UNL     1      52.098   3.746  17.488  0.00  0.00    +0.000 N 
ATOM     29  C   UNL     1      51.300   4.847  17.277  0.00  0.00    +0.000 A 
ATOM     30  O   UNL     1      51.759   5.982  17.263  0.00  0.00    +0.000 OA
ATOM     31  C   UNL     1      49.891   4.528  17.118  0.00  0.00    +0.000 A 
ATOM     32  H   UNL     1      53.086   3.925  17.584  0.00  0.00    +0.000 HD
ENDBRANCH  21  22
ENDBRANCH  18  21
ENDBRANCH   1  18
TORSDOF 8
ENDMDL
MODEL 4
REMARK VINA RESULT:    -7.475      2.618      3.605
REMARK INTER + INTRA:         -11.711
REMARK INTER:                 -10.667
REMARK INTRA:                  -1.044
REMARK UNBOUND:                -0.741
REMARK  Name = 
REMARK  9 active torsions:
REMARK  status: ('A' for Active; 'I' for Inactive)
REMARK    1  A    between atoms: C_1  and  C_2
REMARK    2  A    between atoms: C_2  and  N_3
REMARK    3  A    between atoms: C_2  and  C_19
REMARK    4  A    between atoms: N_3  and  C_4
REMARK    5  A    between atoms: C_4  and  C_5
REMARK    6  A    between atoms: C_8  and  C_9
REMARK    7  A    between atoms: C_9  and  N_10
REMARK    8  A    between atoms: N_10  and  C_11
REMARK    9  A    between atoms: C_11  and  C_12
REMARK                            x       y       z     vdW  Elec       q    Type
REMARK                         _______ _______ _______ _____ _____    ______ ____
ROOT
ATOM      1  C   UNL     1      47.733   7.252  13.642  0.00  0.00    +0.000 C 
ENDROOT
BRANCH   1   2
ATOM      2  C   UNL     1      46.816   6.300  12.922  0.00  0.00    +0.000 A 
ATOM      3  C   UNL     1      46.443   5.083  13.509  0.00  0.00    +0.000 A 
ATOM      4  C   UNL     1      45.523   4.248  12.878  0.00  0.00    +0.000 A 
ATOM      5  C   UNL     1      44.942   4.611  11.652  0.00  0.00    +0.000 A 
ATOM      6  C   UNL     1      45.325   5.820  11.065  0.00  0.00    +0.000 A 
ATOM      7  C   UNL     1      46.252   6.653  11.692  0.00  0.00    +0.000 A 
BRANCH   5   8
ATOM      8  C   UNL     1      43.953   3.710  10.946  0.00  0.00    +0.000 C 
BRANCH   8   9
ATOM      9  N   UNL     1      44.551   2.433  10.589  0.00  0.00    +0.000 NA
ATOM     10  H   UNL     1      44.047   1.688  11.087  0.00  0.00    +0.000 HD
BRANCH   9  11
ATOM     11  C   UNL     1      44.463   2.151   9.160  0.00  0.00    +0.000 C 
BRANCH  11  12
ATOM     12  C   UNL     1      45.872   2.236   8.553  0.00  0.00    +0.000 C 
ATOM     13  C   UNL     1      45.955   3.105   7.314  0.00  0.00    +0.000 C 
ATOM     14  C   UNL     1      47.285   2.683   6.712  0.00  0.00    +0.000 C 
ATOM     15  C   UNL     1      47.464   1.232   7.147  0.00  0.00    +0.000 C 
ATOM     16  N   UNL     1      46.359   0.933   8.058  0.00  0.00    +0.000 NA
ATOM     17  H   UNL     1      46.684   0.372   8.845  0.00  0.00    +0.000 HD
ENDBRANCH  11  12
ENDBRANCH   9  11
ENDBRANCH   8   9
ENDBRANCH   5   8
ENDBRANCH   1   2
BRANCH   1  18
ATOM     18  N   UNL     1      48.896   6.587  14.236  0.00  0.00    +0.000 NA
ATOM     19  H   UNL     1      49.400   6.110  13.490  0.00  0.00    +0.000 HD
BRANCH  18  21
ATOM     20  C   UNL     1      50.070   8.777  14.026  0.00  0.00    +0.000 C 
ATOM     21  C   UNL     1      49.804   7.541  14.896  0.00  0.00    +0.000 C 
BRANCH  21  22
ATOM     22  C   UNL     1      49.160   7.919  16.218  0.00  0.00    +0.000 A 
ATOM     23  C   UNL     1      48.792   9.212  16.568  0.00  0.00    +0.000 A 
ATOM     24  S   UNL     1      47.983   9.303  18.070  0.00  0.00    +0.000 S 
ATOM     25  C   UNL     1      48.084   7.617  18.290  0.00  0.00    +0.000 A 
ATOM     26  N   UNL     1      47.485   7.008  19.353  0.00  0.00    +0.000 NA
ATOM     27  C   UNL     1      47.620   5.721  19.364  0.00  0.00    +0.000 A 
ATOM     28  N   UNL     1      48.335   4.996  18.441  0.00  0.00    +0.000 N 
ATOM     29  C   UNL     1      49.050   5.583  17.423  0.00  0.00    +0.000 A 
ATOM     30  O   UNL     1      49.836   4.943  16.736  0.00  0.00    +0.000 OA
ATOM     31  C   UNL     1      48.809   7.010  17.283  0.00  0.00    +0.000 A 
ATOM     32  H   UNL     1      48.461   4.002  18.558  0.00  0.00    +0.000 HD
ENDBRANCH  21  22
ENDBRANCH  18  21
ENDBRANCH   1  18
TORSDOF 8
ENDMDL
MODEL 5
REMARK VINA RESULT:    -7.289      1.900      2.485
REMARK INTER + INTRA:         -11.438
REMARK INTER:                 -10.526
REMARK INTRA:                  -0.912
REMARK UNBOUND:                -0.741
REMARK  Name = 
REMARK  9 active torsions:
REMARK  status: ('A' for Active; 'I' for Inactive)
REMARK    1  A    between atoms: C_1  and  C_2
REMARK    2  A    between atoms: C_2  and  N_3
REMARK    3  A    between atoms: C_2  and  C_19
REMARK    4  A    between atoms: N_3  and  C_4
REMARK    5  A    between atoms: C_4  and  C_5
REMARK    6  A    between atoms: C_8  and  C_9
REMARK    7  A    between atoms: C_9  and  N_10
REMARK    8  A    between atoms: N_10  and  C_11
REMARK    9  A    between atoms: C_11  and  C_12
REMARK                            x       y       z     vdW  Elec       q    Type
REMARK                         _______ _______ _______ _____ _____    ______ ____
ROOT
ATOM      1  C   UNL     1      47.445   5.394  14.546  0.00  0.00    +0.000 C 
ENDROOT
BRANCH   1   2
ATOM      2  C   UNL     1      46.554   5.084  13.372  0.00  0.00    +0.000 A 
ATOM      3  C   UNL     1      46.107   3.776  13.139  0.00  0.00    +0.000 A 
ATOM      4  C   UNL     1      45.211   3.511  12.106  0.00  0.00    +0.000 A 
ATOM      5  C   UNL     1      44.726   4.544  11.288  0.00  0.00    +0.000 A 
ATOM      6  C   UNL     1      45.183   5.845  11.518  0.00  0.00    +0.000 A 
ATOM      7  C   UNL     1      46.086   6.111  12.547  0.00  0.00    +0.000 A 
BRANCH   5   8
ATOM      8  C   UNL     1      43.764   4.273  10.153  0.00  0.00    +0.000 C 
BRANCH   8   9
ATOM      9  N   UNL     1      44.328   3.350   9.180  0.00  0.00    +0.000 NA
ATOM     10  H   UNL     1      43.558   2.841   8.729  0.00  0.00    +0.000 HD
BRANCH   9  11
ATOM     11  C   UNL     1      45.086   4.030   8.135  0.00  0.00    +0.000 C 
BRANCH  11  12
ATOM     12  C   UNL     1      46.321   3.183   7.791  0.00  0.00    +0.000 C 
ATOM     13  C   UNL     1      46.619   3.108   6.307  0.00  0.00    +0.000 C 
ATOM     14  C   UNL     1      47.571   1.926   6.228  0.00  0.00    +0.000 C 
ATOM     15  C   UNL     1      47.172   1.029   7.396  0.00  0.00    +0.000 C 
ATOM     16  N   UNL     1      46.156   1.761   8.152  0.00  0.00    +0.000 NA
ATOM     17  H   UNL     1      46.302   1.647   9.154  0.00  0.00    +0.000 HD
ENDBRANCH  11  12
ENDBRANCH   9  11
ENDBRANCH   8   9
ENDBRANCH   5   8
ENDBRANCH   1   2
BRANCH   1  18
ATOM     18  N   UNL     1      47.897   4.194  15.253  0.00  0.00    +0.000 NA
ATOM     19  H   UNL     1      48.843   3.981  14.939  0.00  0.00    +0.000 HD
BRANCH  18  21
ATOM     20  C   UNL     1      47.067   3.318  17.435  0.00  0.00    +0.000 C 
ATOM     21  C   UNL     1      47.907   4.381  16.714  0.00  0.00    +0.000 C 
BRANCH  21  22
ATOM     22  C   UNL     1      49.358   4.337  17.155  0.00  0.00    +0.000 A 
ATOM     23  C   UNL     1      50.027   3.179  17.534  0.00  0.00    +0.000 A 
ATOM     24  S   UNL     1      51.684   3.430  17.862  0.00  0.00    +0.000 S 
ATOM     25  C   UNL     1      51.564   5.088  17.493  0.00  0.00    +0.000 A 
ATOM     26  N   UNL     1      52.668   5.889  17.477  0.00  0.00    +0.000 NA
ATOM     27  C   UNL     1      52.422   7.115  17.144  0.00  0.00    +0.000 A 
ATOM     28  N   UNL     1      51.174   7.622  16.874  0.00  0.00    +0.000 N 
ATOM     29  C   UNL     1      50.023   6.877  16.993  0.00  0.00    +0.000 A 
ATOM     30  O   UNL     1      48.914   7.393  16.943  0.00  0.00    +0.000 OA
ATOM     31  C   UNL     1      50.262   5.461  17.220  0.00  0.00    +0.000 A 
ATOM     32  H   UNL     1      51.049   8.607  16.697  0.00  0.00    +0.000 HD
ENDBRANCH  21  22
ENDBRANCH  18  21
ENDBRANCH   1  18
TORSDOF 8
ENDMDL
MODEL 6
REMARK VINA RESULT:    -7.027      3.281      4.566
REMARK INTER + INTRA:         -11.054
REMARK INTER:                 -10.350
REMARK INTRA:                  -0.704
REMARK UNBOUND:                -0.741
REMARK  Name = 
REMARK  9 active torsions:
REMARK  status: ('A' for Active; 'I' for Inactive)
REMARK    1  A    between atoms: C_1  and  C_2
REMARK    2  A    between atoms: C_2  and  N_3
REMARK    3  A    between atoms: C_2  and  C_19
REMARK    4  A    between atoms: N_3  and  C_4
REMARK    5  A    between atoms: C_4  and  C_5
REMARK    6  A    between atoms: C_8  and  C_9
REMARK    7  A    between atoms: C_9  and  N_10
REMARK    8  A    between atoms: N_10  and  C_11
REMARK    9  A    between atoms: C_11  and  C_12
REMARK                            x       y       z     vdW  Elec       q    Type
REMARK                         _______ _______ _______ _____ _____    ______ ____
ROOT
ATOM      1  C   UNL     1      48.268   6.433  13.787  0.00  0.00    +0.000 C 
ENDROOT
BRANCH   1   2
ATOM      2  C   UNL     1      47.037   6.095  12.989  0.00  0.00    +0.000 A 
ATOM      3  C   UNL     1      46.825   6.660  11.724  0.00  0.00    +0.000 A 
ATOM      4  C   UNL     1      45.731   6.275  10.953  0.00  0.00    +0.000 A 
ATOM      5  C   UNL     1      44.827   5.305  11.417  0.00  0.00    +0.000 A 
ATOM      6  C   UNL     1      45.036   4.752  12.683  0.00  0.00    +0.000 A 
ATOM      7  C   UNL     1      46.127   5.143  13.460  0.00  0.00    +0.000 A 
BRANCH   5   8
ATOM      8  C   UNL     1      43.626   4.884  10.599  0.00  0.00    +0.000 C 
BRANCH   8   9
ATOM      9  N   UNL     1      44.021   4.305   9.325  0.00  0.00    +0.000 NA
ATOM     10  H   UNL     1      44.844   4.814   8.977  0.00  0.00    +0.000 HD
BRANCH   9  11
ATOM     11  C   UNL     1      44.384   2.896   9.437  0.00  0.00    +0.000 C 
BRANCH  11  12
ATOM     12  C   UNL     1      45.729   2.675   8.729  0.00  0.00    +0.000 C 
ATOM     13  C   UNL     1      45.822   3.336   7.369  0.00  0.00    +0.000 C 
ATOM     14  C   UNL     1      47.017   2.632   6.748  0.00  0.00    +0.000 C 
ATOM     15  C   UNL     1      47.025   1.247   7.386  0.00  0.00    +0.000 C 
ATOM     16  N   UNL     1      45.977   1.255   8.406  0.00  0.00    +0.000 NA
ATOM     17  H   UNL     1      46.288   0.767   9.245  0.00  0.00    +0.000 HD
ENDBRANCH  11  12
ENDBRANCH   9  11
ENDBRANCH   8   9
ENDBRANCH   5   8
ENDBRANCH   1   2
BRANCH   1  18
ATOM     18  N   UNL     1      48.058   6.331  15.233  0.00  0.00    +0.000 NA
ATOM     19  H   UNL     1      47.641   5.421  15.427  0.00  0.00    +0.000 HD
BRANCH  18  21
ATOM     20  C   UNL     1      50.348   7.316  15.248  0.00  0.00    +0.000 C 
ATOM     21  C   UNL     1      49.318   6.452  15.987  0.00  0.00    +0.000 C 
BRANCH  21  22
ATOM     22  C   UNL     1      48.967   7.041  17.341  0.00  0.00    +0.000 A 
ATOM     23  C   UNL     1      49.155   6.387  18.552  0.00  0.00    +0.000 A 
ATOM     24  S   UNL     1      48.775   7.352  19.910  0.00  0.00    +0.000 S 
ATOM     25  C   UNL     1      48.363   8.677  18.922  0.00  0.00    +0.000 A 
ATOM     26  N   UNL     1      48.036   9.885  19.465  0.00  0.00    +0.000 NA
ATOM     27  C   UNL     1      47.782  10.802  18.587  0.00  0.00    +0.000 A 
ATOM     28  N   UNL     1      47.778  10.610  17.226  0.00  0.00    +0.000 N 
ATOM     29  C   UNL     1      47.986   9.381  16.645  0.00  0.00    +0.000 A 
ATOM     30  O   UNL     1      47.784   9.190  15.452  0.00  0.00    +0.000 OA
ATOM     31  C   UNL     1      48.420   8.356  17.580  0.00  0.00    +0.000 A 
ATOM     32  H   UNL     1      47.495  11.353  16.606  0.00  0.00    +0.000 HD
ENDBRANCH  21  22
ENDBRANCH  18  21
ENDBRANCH   1  18
TORSDOF 8
ENDMDL
MODEL 7
REMARK VINA RESULT:    -6.861      4.226      8.763
REMARK INTER + INTRA:         -10.810
REMARK INTER:                  -9.102
REMARK INTRA:                  -1.708
REMARK UNBOUND:                -0.741
REMARK  Name = 
REMARK  9 active torsions:
REMARK  status: ('A' for Active; 'I' for Inactive)
REMARK    1  A    between atoms: C_1  and  C_2
REMARK    2  A    between atoms: C_2  and  N_3
REMARK    3  A    between atoms: C_2  and  C_19
REMARK    4  A    between atoms: N_3  and  C_4
REMARK    5  A    between atoms: C_4  and  C_5
REMARK    6  A    between atoms: C_8  and  C_9
REMARK    7  A    between atoms: C_9  and  N_10
REMARK    8  A    between atoms: N_10  and  C_11
REMARK    9  A    between atoms: C_11  and  C_12
REMARK                            x       y       z     vdW  Elec       q    Type
REMARK                         _______ _______ _______ _____ _____    ______ ____
ROOT
ATOM      1  C   UNL     1      48.164   9.283  14.301  0.00  0.00    +0.000 C 
ENDROOT
BRANCH   1   2
ATOM      2  C   UNL     1      48.426   8.790  15.699  0.00  0.00    +0.000 A 
ATOM      3  C   UNL     1      47.959   9.506  16.810  0.00  0.00    +0.000 A 
ATOM      4  C   UNL     1      48.125   8.999  18.097  0.00  0.00    +0.000 A 
ATOM      5  C   UNL     1      48.748   7.758  18.308  0.00  0.00    +0.000 A 
ATOM      6  C   UNL     1      49.222   7.053  17.198  0.00  0.00    +0.000 A 
ATOM      7  C   UNL     1      49.063   7.563  15.910  0.00  0.00    +0.000 A 
BRANCH   5   8
ATOM      8  C   UNL     1      48.950   7.198  19.699  0.00  0.00    +0.000 C 
BRANCH   8   9
ATOM      9  N   UNL     1      48.105   6.038  19.938  0.00  0.00    +0.000 NA
ATOM     10  H   UNL     1      47.525   5.881  19.104  0.00  0.00    +0.000 HD
BRANCH   9  11
ATOM     11  C   UNL     1      48.875   4.823  20.180  0.00  0.00    +0.000 C 
BRANCH  11  12
ATOM     12  C   UNL     1      48.454   3.759  19.154  0.00  0.00    +0.000 C 
ATOM     13  C   UNL     1      49.452   3.561  18.031  0.00  0.00    +0.000 C 
ATOM     14  C   UNL     1      48.628   2.815  16.995  0.00  0.00    +0.000 C 
ATOM     15  C   UNL     1      47.196   3.285  17.228  0.00  0.00    +0.000 C 
ATOM     16  N   UNL     1      47.225   4.127  18.423  0.00  0.00    +0.000 NA
ATOM     17  H   UNL     1      46.414   3.945  19.012  0.00  0.00    +0.000 HD
ENDBRANCH  11  12
ENDBRANCH   9  11
ENDBRANCH   8   9
ENDBRANCH   5   8
ENDBRANCH   1   2
BRANCH   1  18
ATOM     18  N   UNL     1      46.892   8.805  13.754  0.00  0.00    +0.000 NA
ATOM     19  H   UNL     1      46.306   9.617  13.564  0.00  0.00    +0.000 HD
BRANCH  18  21
ATOM     20  C   UNL     1      48.517   8.123  11.991  0.00  0.00    +0.000 C 
ATOM     21  C   UNL     1      47.075   8.042  12.508  0.00  0.00    +0.000 C 
BRANCH  21  22
ATOM     22  C   UNL     1      46.670   6.609  12.805  0.00  0.00    +0.000 A 
ATOM     23  C   UNL     1      47.525   5.647  13.328  0.00  0.00    +0.000 A 
ATOM     24  S   UNL     1      46.749   4.162  13.665  0.00  0.00    +0.000 S 
ATOM     25  C   UNL     1      45.245   4.765  13.140  0.00  0.00    +0.000 A 
ATOM     26  N   UNL     1      44.108   4.021  13.256  0.00  0.00    +0.000 NA
ATOM     27  C   UNL     1      43.040   4.628  12.846  0.00  0.00    +0.000 A 
ATOM     28  N   UNL     1      43.013   5.884  12.291  0.00  0.00    +0.000 N 
ATOM     29  C   UNL     1      44.151   6.618  12.049  0.00  0.00    +0.000 A 
ATOM     30  O   UNL     1      44.125   7.642  11.377  0.00  0.00    +0.000 OA
ATOM     31  C   UNL     1      45.355   6.042  12.625  0.00  0.00    +0.000 A 
ATOM     32  H   UNL     1      42.153   6.262  11.923  0.00  0.00    +0.000 HD
ENDBRANCH  21  22
ENDBRANCH  18  21
ENDBRANCH   1  18
TORSDOF 8
ENDMDL
MODEL 8
REMARK VINA RESULT:    -6.778      1.794      2.747
REMARK INTER + INTRA:         -10.689
REMARK INTER:                 -10.062
REMARK INTRA:                  -0.627
REMARK UNBOUND:                -0.741
REMARK  Name = 
REMARK  9 active torsions:
REMARK  status: ('A' for Active; 'I' for Inactive)
REMARK    1  A    between atoms: C_1  and  C_2
REMARK    2  A    between atoms: C_2  and  N_3
REMARK    3  A    between atoms: C_2  and  C_19
REMARK    4  A    between atoms: N_3  and  C_4
REMARK    5  A    between atoms: C_4  and  C_5
REMARK    6  A    between atoms: C_8  and  C_9
REMARK    7  A    between atoms: C_9  and  N_10
REMARK    8  A    between atoms: N_10  and  C_11
REMARK    9  A    between atoms: C_11  and  C_12
REMARK                            x       y       z     vdW  Elec       q    Type
REMARK                         _______ _______ _______ _____ _____    ______ ____
ROOT
ATOM      1  C   UNL     1      49.443   7.093  15.284  0.00  0.00    +0.000 C 
ENDROOT
BRANCH   1   2
ATOM      2  C   UNL     1      48.233   7.133  14.388  0.00  0.00    +0.000 A 
ATOM      3  C   UNL     1      47.577   8.343  14.125  0.00  0.00    +0.000 A 
ATOM      4  C   UNL     1      46.514   8.389  13.225  0.00  0.00    +0.000 A 
ATOM      5  C   UNL     1      46.088   7.232  12.554  0.00  0.00    +0.000 A 
ATOM      6  C   UNL     1      46.738   6.025  12.827  0.00  0.00    +0.000 A 
ATOM      7  C   UNL     1      47.797   5.977  13.734  0.00  0.00    +0.000 A 
BRANCH   5   8
ATOM      8  C   UNL     1      44.927   7.259  11.584  0.00  0.00    +0.000 C 
BRANCH   8   9
ATOM      9  N   UNL     1      45.038   6.209  10.584  0.00  0.00    +0.000 NA
ATOM     10  H   UNL     1      45.928   5.714  10.729  0.00  0.00    +0.000 HD
BRANCH   9  11
ATOM     11  C   UNL     1      43.963   5.228  10.677  0.00  0.00    +0.000 C 
BRANCH  11  12
ATOM     12  C   UNL     1      44.158   4.175   9.575  0.00  0.00    +0.000 C 
ATOM     13  C   UNL     1      44.799   2.890  10.061  0.00  0.00    +0.000 C 
ATOM     14  C   UNL     1      45.244   2.240   8.762  0.00  0.00    +0.000 C 
ATOM     15  C   UNL     1      45.514   3.407   7.818  0.00  0.00    +0.000 C 
ATOM     16  N   UNL     1      45.096   4.617   8.524  0.00  0.00    +0.000 NA
ATOM     17  H   UNL     1      44.616   5.256   7.890  0.00  0.00    +0.000 HD
ENDBRANCH  11  12
ENDBRANCH   9  11
ENDBRANCH   8   9
ENDBRANCH   5   8
ENDBRANCH   1   2
BRANCH   1  18
ATOM     18  N   UNL     1      49.565   5.835  16.024  0.00  0.00    +0.000 NA
ATOM     19  H   UNL     1      50.227   5.241  15.528  0.00  0.00    +0.000 HD
BRANCH  18  21
ATOM     20  C   UNL     1      48.967   5.712  18.441  0.00  0.00    +0.000 C 
ATOM     21  C   UNL     1      50.045   6.045  17.401  0.00  0.00    +0.000 C 
BRANCH  21  22
ATOM     22  C   UNL     1      51.275   5.174  17.575  0.00  0.00    +0.000 A 
ATOM     23  C   UNL     1      52.540   5.659  17.884  0.00  0.00    +0.000 A 
ATOM     24  S   UNL     1      53.697   4.426  18.134  0.00  0.00    +0.000 S 
ATOM     25  C   UNL     1      52.540   3.208  17.854  0.00  0.00    +0.000 A 
ATOM     26  N   UNL     1      52.853   1.890  18.012  0.00  0.00    +0.000 NA
ATOM     27  C   UNL     1      51.861   1.086  17.798  0.00  0.00    +0.000 A 
ATOM     28  N   UNL     1      50.606   1.475  17.398  0.00  0.00    +0.000 N 
ATOM     29  C   UNL     1      50.283   2.782  17.114  0.00  0.00    +0.000 A 
ATOM     30  O   UNL     1      49.227   3.081  16.572  0.00  0.00    +0.000 OA
ATOM     31  C   UNL     1      51.319   3.734  17.480  0.00  0.00    +0.000 A 
ATOM     32  H   UNL     1      49.903   0.785  17.175  0.00  0.00    +0.000 HD
ENDBRANCH  21  22
ENDBRANCH  18  21
ENDBRANCH   1  18
TORSDOF 8
ENDMDL
MODEL 9
REMARK VINA RESULT:    -6.645      3.948      4.471
REMARK INTER + INTRA:         -10.493
REMARK INTER:                  -9.553
REMARK INTRA:                  -0.941
REMARK UNBOUND:                -0.741
REMARK  Name = 
REMARK  9 active torsions:
REMARK  status: ('A' for Active; 'I' for Inactive)
REMARK    1  A    between atoms: C_1  and  C_2
REMARK    2  A    between atoms: C_2  and  N_3
REMARK    3  A    between atoms: C_2  and  C_19
REMARK    4  A    between atoms: N_3  and  C_4
REMARK    5  A    between atoms: C_4  and  C_5
REMARK    6  A    between atoms: C_8  and  C_9
REMARK    7  A    between atoms: C_9  and  N_10
REMARK    8  A    between atoms: N_10  and  C_11
REMARK    9  A    between atoms: C_11  and  C_12
REMARK                            x       y       z     vdW  Elec       q    Type
REMARK                         _______ _______ _______ _____ _____    ______ ____
ROOT
ATOM      1  C   UNL     1      47.848   5.942  14.253  0.00  0.00    +0.000 C 
ENDROOT
BRANCH   1   2
ATOM      2  C   UNL     1      46.801   5.610  13.222  0.00  0.00    +0.000 A 
ATOM      3  C   UNL     1      45.770   4.708  13.514  0.00  0.00    +0.000 A 
ATOM      4  C   UNL     1      44.754   4.474  12.589  0.00  0.00    +0.000 A 
ATOM      5  C   UNL     1      44.735   5.144  11.355  0.00  0.00    +0.000 A 
ATOM      6  C   UNL     1      45.772   6.035  11.064  0.00  0.00    +0.000 A 
ATOM      7  C   UNL     1      46.793   6.264  11.986  0.00  0.00    +0.000 A 
BRANCH   5   8
ATOM      8  C   UNL     1      43.648   4.892  10.332  0.00  0.00    +0.000 C 
BRANCH   8   9
ATOM      9  N   UNL     1      44.195   4.381   9.085  0.00  0.00    +0.000 NA
ATOM     10  H   UNL     1      45.101   4.837   8.915  0.00  0.00    +0.000 HD
BRANCH   9  11
ATOM     11  C   UNL     1      44.420   2.940   9.118  0.00  0.00    +0.000 C 
BRANCH  11  12
ATOM     12  C   UNL     1      45.830   2.648   8.581  0.00  0.00    +0.000 C 
ATOM     13  C   UNL     1      46.128   3.310   7.250  0.00  0.00    +0.000 C 
ATOM     14  C   UNL     1      47.352   2.544   6.776  0.00  0.00    +0.000 C 
ATOM     15  C   UNL     1      47.206   1.158   7.396  0.00  0.00    +0.000 C 
ATOM     16  N   UNL     1      46.040   1.219   8.277  0.00  0.00    +0.000 NA
ATOM     17  H   UNL     1      46.217   0.712   9.143  0.00  0.00    +0.000 HD
ENDBRANCH  11  12
ENDBRANCH   9  11
ENDBRANCH   8   9
ENDBRANCH   5   8
ENDBRANCH   1   2
BRANCH   1  18
ATOM     18  N   UNL     1      49.030   6.590  13.680  0.00  0.00    +0.000 NA
ATOM     19  H   UNL     1      48.822   6.824  12.710  0.00  0.00    +0.000 HD
BRANCH  18  21
ATOM     20  C   UNL     1      48.466   8.081  15.597  0.00  0.00    +0.000 C 
ATOM     21  C   UNL     1      49.394   7.820  14.404  0.00  0.00    +0.000 C 
BRANCH  21  22
ATOM     22  C   UNL     1      50.837   7.660  14.846  0.00  0.00    +0.000 A 
ATOM     23  C   UNL     1      51.237   6.954  15.974  0.00  0.00    +0.000 A 
ATOM     24  S   UNL     1      52.934   6.851  16.143  0.00  0.00    +0.000 S 
ATOM     25  C   UNL     1      53.187   7.731  14.707  0.00  0.00    +0.000 A 
ATOM     26  N   UNL     1      54.442   7.921  14.208  0.00  0.00    +0.000 NA
ATOM     27  C   UNL     1      54.469   8.578  13.093  0.00  0.00    +0.000 A 
ATOM     28  N   UNL     1      53.367   9.100  12.460  0.00  0.00    +0.000 N 
ATOM     29  C   UNL     1      52.099   9.032  12.990  0.00  0.00    +0.000 A 
ATOM     30  O   UNL     1      51.168   9.671  12.515  0.00  0.00    +0.000 OA
ATOM     31  C   UNL     1      51.999   8.179  14.163  0.00  0.00    +0.000 A 
ATOM     32  H   UNL     1      53.474   9.668  11.633  0.00  0.00    +0.000 HD
ENDBRANCH  21  22
ENDBRANCH  18  21
ENDBRANCH   1  18
TORSDOF 8
ENDMDL
