MODEL 1
REMARK VINA RESULT:    -7.529      0.000      0.000
REMARK INTER + INTRA:         -10.658
REMARK INTER:                 -10.169
REMARK INTRA:                  -0.488
REMARK UNBOUND:                -0.488
REMARK  Name = 
REMARK  7 active torsions:
REMARK  status: ('A' for Active; 'I' for Inactive)
REMARK    1  A    between atoms: N_1  and  C_2
REMARK    2  A    between atoms: C_2  and  C_3
REMARK    3  A    between atoms: C_3  and  C_4
REMARK    4  A    between atoms: C_7  and  O_8
REMARK    5  A    between atoms: O_8  and  C_9
REMARK    6  A    between atoms: C_9  and  C_10
REMARK    7  A    between atoms: C_14  and  N_15
REMARK                            x       y       z     vdW  Elec       q    Type
REMARK                         _______ _______ _______ _____ _____    ______ ____
ROOT
ATOM      1  C   UNL     1      46.169   2.214   7.946  0.00  0.00    +0.000 A 
ATOM      2  C   UNL     1      45.258   1.597   8.809  0.00  0.00    +0.000 A 
ATOM      3  C   UNL     1      44.368   2.359   9.576  0.00  0.00    +0.000 A 
ATOM      4  C   UNL     1      44.377   3.751   9.487  0.00  0.00    +0.000 A 
ATOM      5  C   UNL     1      45.259   4.369   8.600  0.00  0.00    +0.000 A 
ATOM      6  C   UNL     1      46.154   3.610   7.838  0.00  0.00    +0.000 A 
ENDROOT
BRANCH   1   7
ATOM      7  C   UNL     1      47.144   1.392   7.136  0.00  0.00    +0.000 C 
BRANCH   7   8
ATOM      8  C   UNL     1      48.304   2.228   6.586  0.00  0.00    +0.000 C 
BRANCH   8   9
ATOM      9  N   UNL     1      48.350   2.165   5.124  0.00  0.00    +0.000 NA
ATOM     10  H   UNL     1      48.411   3.111   4.748  0.00  0.00    +0.000 HD
ATOM     11  H   UNL     1      47.477   1.775   4.770  0.00  0.00    +0.000 HD
ENDBRANCH   8   9
ENDBRANCH   7   8
ENDBRANCH   1   7
BRANCH   4  12
ATOM     12  O   UNL     1      43.544   4.598  10.173  0.00  0.00    +0.000 OA
BRANCH  12  13
ATOM     13  C   UNL     1      43.441   4.354  11.581  0.00  0.00    +0.000 C 
BRANCH  13  14
ATOM     14  C   UNL     1      44.721   4.749  12.291  0.00  0.00    +0.000 A 
ATOM     15  N   UNL     1      45.058   6.056  12.277  0.00  0.00    +0.000 NA
ATOM     16  C   UNL     1      46.154   6.396  12.978  0.00  0.00    +0.000 A 
ATOM     17  C   UNL     1      46.913   5.493  13.678  0.00  0.00    +0.000 A 
ATOM     18  C   UNL     1      46.503   4.181  13.617  0.00  0.00    +0.000 A 
ATOM     19  N   UNL     1      45.412   3.791  12.944  0.00  0.00    +0.000 NA
BRANCH  18  20
ATOM     20  N   UNL     1      47.188   3.198  14.329  0.00  0.00    +0.000 N 
ATOM     21  H   UNL     1      47.299   2.346  13.792  0.00  0.00    +0.000 HD
ATOM     22  H   UNL     1      46.681   3.039  15.197  0.00  0.00    +0.000 HD
ENDBRANCH  18  20
ENDBRANCH  13  14
ENDBRANCH  12  13
ENDBRANCH   4  12
TORSDOF 7
ENDMDL
MODEL 2
REMARK VINA RESULT:    -7.490      0.957      2.113
REMARK INTER + INTRA:         -10.605
REMARK INTER:                 -10.389
REMARK INTRA:                  -0.216
REMARK UNBOUND:                -0.488
REMARK  Name = 
REMARK  7 active torsions:
REMARK  status: ('A' for Active; 'I' for Inactive)
REMARK    1  A    between atoms: N_1  and  C_2
REMARK    2  A    between atoms: C_2  and  C_3
REMARK    3  A    between atoms: C_3  and  C_4
REMARK    4  A    between atoms: C_7  and  O_8
REMARK    5  A    between atoms: O_8  and  C_9
REMARK    6  A    between atoms: C_9  and  C_10
REMARK    7  A    between atoms: C_14  and  N_15
REMARK                            x       y       z     vdW  Elec       q    Type
REMARK                         _______ _______ _______ _____ _____    ______ ____
ROOT
ATOM      1  C   UNL     1      45.984   3.244   7.899  0.00  0.00    +0.000 A 
ATOM      2  C   UNL     1      45.518   4.474   8.376  0.00  0.00    +0.000 A 
ATOM      3  C   UNL     1      44.564   4.532   9.400  0.00  0.00    +0.000 A 
ATOM      4  C   UNL     1      44.066   3.357   9.963  0.00  0.00    +0.000 A 
ATOM      5  C   UNL     1      44.555   2.129   9.516  0.00  0.00    +0.000 A 
ATOM      6  C   UNL     1      45.502   2.069   8.488  0.00  0.00    +0.000 A 
ENDROOT
BRANCH   1   7
ATOM      7  C   UNL     1      46.995   3.183   6.779  0.00  0.00    +0.000 C 
BRANCH   7   8
ATOM      8  C   UNL     1      47.799   1.879   6.781  0.00  0.00    +0.000 C 
BRANCH   8   9
ATOM      9  N   UNL     1      48.582   1.743   5.552  0.00  0.00    +0.000 NA
ATOM     10  H   UNL     1      47.955   1.769   4.749  0.00  0.00    +0.000 HD
ATOM     11  H   UNL     1      49.032   0.828   5.531  0.00  0.00    +0.000 HD
ENDBRANCH   8   9
ENDBRANCH   7   8
ENDBRANCH   1   7
BRANCH   4  12
ATOM     12  O   UNL     1      43.147   3.289  10.979  0.00  0.00    +0.000 OA
BRANCH  12  13
ATOM     13  C   UNL     1      43.655   2.844  12.242  0.00  0.00    +0.000 C 
BRANCH  13  14
ATOM     14  C   UNL     1      44.698   3.808  12.772  0.00  0.00    +0.000 A 
ATOM     15  N   UNL     1      45.877   3.285  13.171  0.00  0.00    +0.000 NA
ATOM     16  C   UNL     1      46.817   4.163  13.563  0.00  0.00    +0.000 A 
ATOM     17  C   UNL     1      46.623   5.521  13.573  0.00  0.00    +0.000 A 
ATOM     18  C   UNL     1      45.383   5.959  13.169  0.00  0.00    +0.000 A 
ATOM     19  N   UNL     1      44.417   5.128  12.757  0.00  0.00    +0.000 NA
BRANCH  18  20
ATOM     20  N   UNL     1      45.106   7.324  13.109  0.00  0.00    +0.000 N 
ATOM     21  H   UNL     1      45.494   7.827  13.898  0.00  0.00    +0.000 HD
ATOM     22  H   UNL     1      44.095   7.428  13.049  0.00  0.00    +0.000 HD
ENDBRANCH  18  20
ENDBRANCH  13  14
ENDBRANCH  12  13
ENDBRANCH   4  12
TORSDOF 7
ENDMDL
MODEL 3
REMARK VINA RESULT:    -6.604      2.163      6.217
REMARK INTER + INTRA:          -9.408
REMARK INTER:                  -8.944
REMARK INTRA:                  -0.464
REMARK UNBOUND:                -0.488
REMARK  Name = 
REMARK  7 active torsions:
REMARK  status: ('A' for Active; 'I' for Inactive)
REMARK    1  A    between atoms: N_1  and  C_2
REMARK    2  A    between atoms: C_2  and  C_3
REMARK    3  A    between atoms: C_3  and  C_4
REMARK    4  A    between atoms: C_7  and  O_8
REMARK    5  A    between atoms: O_8  and  C_9
REMARK    6  A    between atoms: C_9  and  C_10
REMARK    7  A    between atoms: C_14  and  N_15
REMARK                            x       y       z     vdW  Elec       q    Type
REMARK                         _______ _______ _______ _____ _____    ______ ____
ROOT
ATOM      1  C   UNL     1      46.439   5.175  13.021  0.00  0.00    +0.000 A 
ATOM      2  C   UNL     1      46.136   6.077  11.995  0.00  0.00    +0.000 A 
ATOM      3  C   UNL     1      45.383   5.673  10.885  0.00  0.00    +0.000 A 
ATOM      4  C   UNL     1      44.920   4.361  10.789  0.00  0.00    +0.000 A 
ATOM      5  C   UNL     1      45.188   3.468  11.828  0.00  0.00    +0.000 A 
ATOM      6  C   UNL     1      45.947   3.867  12.933  0.00  0.00    +0.000 A 
ENDROOT
BRANCH   1   7
ATOM      7  C   UNL     1      47.270   5.605  14.206  0.00  0.00    +0.000 C 
BRANCH   7   8
ATOM      8  C   UNL     1      47.983   6.941  13.972  0.00  0.00    +0.000 C 
BRANCH   8   9
ATOM      9  N   UNL     1      49.423   6.743  13.791  0.00  0.00    +0.000 NA
ATOM     10  H   UNL     1      49.669   6.935  12.821  0.00  0.00    +0.000 HD
ATOM     11  H   UNL     1      49.658   5.765  13.956  0.00  0.00    +0.000 HD
ENDBRANCH   8   9
ENDBRANCH   7   8
ENDBRANCH   1   7
BRANCH   4  12
ATOM     12  O   UNL     1      44.162   3.858   9.763  0.00  0.00    +0.000 OA
BRANCH  12  13
ATOM     13  C   UNL     1      44.688   4.068   8.447  0.00  0.00    +0.000 C 
BRANCH  13  14
ATOM     14  C   UNL     1      45.685   2.985   8.086  0.00  0.00    +0.000 A 
ATOM     15  N   UNL     1      45.404   1.727   8.486  0.00  0.00    +0.000 NA
ATOM     16  C   UNL     1      46.259   0.769   8.089  0.00  0.00    +0.000 A 
ATOM     17  C   UNL     1      47.368   1.019   7.322  0.00  0.00    +0.000 A 
ATOM     18  C   UNL     1      47.584   2.334   6.979  0.00  0.00    +0.000 A 
ATOM     19  N   UNL     1      46.756   3.324   7.339  0.00  0.00    +0.000 NA
BRANCH  18  20
ATOM     20  N   UNL     1      48.664   2.680   6.169  0.00  0.00    +0.000 N 
ATOM     21  H   UNL     1      49.087   1.871   5.729  0.00  0.00    +0.000 HD
ATOM     22  H   UNL     1      49.329   3.190   6.747  0.00  0.00    +0.000 HD
ENDBRANCH  18  20
ENDBRANCH  13  14
ENDBRANCH  12  13
ENDBRANCH   4  12
TORSDOF 7
ENDMDL
MODEL 4
REMARK VINA RESULT:    -6.353      2.399      6.173
REMARK INTER + INTRA:          -9.070
REMARK INTER:                  -8.709
REMARK INTRA:                  -0.361
REMARK UNBOUND:                -0.488
REMARK  Name = 
REMARK  7 active torsions:
REMARK  status: ('A' for Active; 'I' for Inactive)
REMARK    1  A    between atoms: N_1  and  C_2
REMARK    2  A    between atoms: C_2  and  C_3
REMARK    3  A    between atoms: C_3  and  C_4
REMARK    4  A    between atoms: C_7  and  O_8
REMARK    5  A    between atoms: O_8  and  C_9
REMARK    6  A    between atoms: C_9  and  C_10
REMARK    7  A    between atoms: C_14  and  N_15
REMARK                            x       y       z     vdW  Elec       q    Type
REMARK                         _______ _______ _______ _____ _____    ______ ____
ROOT
ATOM      1  C   UNL     1      46.921   6.053  13.059  0.00  0.00    +0.000 A 
ATOM      2  C   UNL     1      46.098   4.989  13.445  0.00  0.00    +0.000 A 
ATOM      3  C   UNL     1      45.149   4.460  12.561  0.00  0.00    +0.000 A 
ATOM      4  C   UNL     1      45.013   4.987  11.277  0.00  0.00    +0.000 A 
ATOM      5  C   UNL     1      45.856   6.024  10.876  0.00  0.00    +0.000 A 
ATOM      6  C   UNL     1      46.800   6.560  11.760  0.00  0.00    +0.000 A 
ENDROOT
BRANCH   1   7
ATOM      7  C   UNL     1      47.928   6.638  14.021  0.00  0.00    +0.000 C 
BRANCH   7   8
ATOM      8  C   UNL     1      48.111   8.148  13.835  0.00  0.00    +0.000 C 
BRANCH   8   9
ATOM      9  N   UNL     1      47.188   8.898  14.689  0.00  0.00    +0.000 NA
ATOM     10  H   UNL     1      47.164   8.471  15.614  0.00  0.00    +0.000 HD
ATOM     11  H   UNL     1      46.242   8.826  14.317  0.00  0.00    +0.000 HD
ENDBRANCH   8   9
ENDBRANCH   7   8
ENDBRANCH   1   7
BRANCH   4  12
ATOM     12  O   UNL     1      44.135   4.542  10.323  0.00  0.00    +0.000 OA
BRANCH  12  13
ATOM     13  C   UNL     1      44.146   3.129  10.085  0.00  0.00    +0.000 C 
BRANCH  13  14
ATOM     14  C   UNL     1      45.078   2.783   8.941  0.00  0.00    +0.000 A 
ATOM     15  N   UNL     1      45.467   3.792   8.133  0.00  0.00    +0.000 NA
ATOM     16  C   UNL     1      46.355   3.479   7.173  0.00  0.00    +0.000 A 
ATOM     17  C   UNL     1      46.857   2.216   6.992  0.00  0.00    +0.000 A 
ATOM     18  C   UNL     1      46.387   1.249   7.851  0.00  0.00    +0.000 A 
ATOM     19  N   UNL     1      45.512   1.510   8.832  0.00  0.00    +0.000 NA
BRANCH  18  20
ATOM     20  N   UNL     1      46.869  -0.057   7.770  0.00  0.00    +0.000 N 
ATOM     21  H   UNL     1      47.544  -0.261   8.497  0.00  0.00    +0.000 HD
ATOM     22  H   UNL     1      47.263  -0.179   6.839  0.00  0.00    +0.000 HD
ENDBRANCH  18  20
ENDBRANCH  13  14
ENDBRANCH  12  13
ENDBRANCH   4  12
TORSDOF 7
ENDMDL
MODEL 5
REMARK VINA RESULT:    -6.324      1.848      3.202
REMARK INTER + INTRA:          -9.030
REMARK INTER:                  -8.799
REMARK INTRA:                  -0.231
REMARK UNBOUND:                -0.488
REMARK  Name = 
REMARK  7 active torsions:
REMARK  status: ('A' for Active; 'I' for Inactive)
REMARK    1  A    between atoms: N_1  and  C_2
REMARK    2  A    between atoms: C_2  and  C_3
REMARK    3  A    between atoms: C_3  and  C_4
REMARK    4  A    between atoms: C_7  and  O_8
REMARK    5  A    between atoms: O_8  and  C_9
REMARK    6  A    between atoms: C_9  and  C_10
REMARK    7  A    between atoms: C_14  and  N_15
REMARK                            x       y       z     vdW  Elec       q    Type
REMARK                         _______ _______ _______ _____ _____    ______ ____
ROOT
ATOM      1  C   UNL     1      45.809   2.944   7.829  0.00  0.00    +0.000 A 
ATOM      2  C   UNL     1      46.048   4.307   8.039  0.00  0.00    +0.000 A 
ATOM      3  C   UNL     1      45.563   4.952   9.183  0.00  0.00    +0.000 A 
ATOM      4  C   UNL     1      44.833   4.241  10.136  0.00  0.00    +0.000 A 
ATOM      5  C   UNL     1      44.624   2.873   9.949  0.00  0.00    +0.000 A 
ATOM      6  C   UNL     1      45.101   2.229   8.802  0.00  0.00    +0.000 A 
ENDROOT
BRANCH   1   7
ATOM      7  C   UNL     1      46.313   2.255   6.584  0.00  0.00    +0.000 C 
BRANCH   7   8
ATOM      8  C   UNL     1      47.650   1.542   6.805  0.00  0.00    +0.000 C 
BRANCH   8   9
ATOM      9  N   UNL     1      48.599   1.860   5.736  0.00  0.00    +0.000 NA
ATOM     10  H   UNL     1      48.406   1.267   4.929  0.00  0.00    +0.000 HD
ATOM     11  H   UNL     1      49.545   1.630   6.037  0.00  0.00    +0.000 HD
ENDBRANCH   8   9
ENDBRANCH   7   8
ENDBRANCH   1   7
BRANCH   4  12
ATOM     12  O   UNL     1      44.325   4.759  11.299  0.00  0.00    +0.000 OA
BRANCH  12  13
ATOM     13  C   UNL     1      45.292   5.285  12.215  0.00  0.00    +0.000 C 
BRANCH  13  14
ATOM     14  C   UNL     1      45.239   6.799  12.244  0.00  0.00    +0.000 A 
ATOM     15  N   UNL     1      46.068   7.431  13.102  0.00  0.00    +0.000 NA
ATOM     16  C   UNL     1      46.062   8.775  13.055  0.00  0.00    +0.000 A 
ATOM     17  C   UNL     1      45.270   9.497  12.200  0.00  0.00    +0.000 A 
ATOM     18  C   UNL     1      44.444   8.767  11.377  0.00  0.00    +0.000 A 
ATOM     19  N   UNL     1      44.420   7.427  11.374  0.00  0.00    +0.000 NA
BRANCH  18  20
ATOM     20  N   UNL     1      43.631   9.412  10.446  0.00  0.00    +0.000 N 
ATOM     21  H   UNL     1      43.034  10.108  10.877  0.00  0.00    +0.000 HD
ATOM     22  H   UNL     1      43.094   8.696   9.961  0.00  0.00    +0.000 HD
ENDBRANCH  18  20
ENDBRANCH  13  14
ENDBRANCH  12  13
ENDBRANCH   4  12
TORSDOF 7
ENDMDL
MODEL 6
REMARK VINA RESULT:    -6.085      2.684      4.038
REMARK INTER + INTRA:          -8.707
REMARK INTER:                  -8.374
REMARK INTRA:                  -0.333
REMARK UNBOUND:                -0.488
REMARK  Name = 
REMARK  7 active torsions:
REMARK  status: ('A' for Active; 'I' for Inactive)
REMARK    1  A    between atoms: N_1  and  C_2
REMARK    2  A    between atoms: C_2  and  C_3
REMARK    3  A    between atoms: C_3  and  C_4
REMARK    4  A    between atoms: C_7  and  O_8
REMARK    5  A    between atoms: O_8  and  C_9
REMARK    6  A    between atoms: C_9  and  C_10
REMARK    7  A    between atoms: C_14  and  N_15
REMARK                            x       y       z     vdW  Elec       q    Type
REMARK                         _______ _______ _______ _____ _____    ______ ____
ROOT
ATOM      1  C   UNL     1      45.018   4.272   9.826  0.00  0.00    +0.000 A 
ATOM      2  C   UNL     1      45.488   5.543  10.172  0.00  0.00    +0.000 A 
ATOM      3  C   UNL     1      45.804   5.853  11.501  0.00  0.00    +0.000 A 
ATOM      4  C   UNL     1      45.658   4.892  12.501  0.00  0.00    +0.000 A 
ATOM      5  C   UNL     1      45.224   3.612  12.154  0.00  0.00    +0.000 A 
ATOM      6  C   UNL     1      44.900   3.302  10.829  0.00  0.00    +0.000 A 
ENDROOT
BRANCH   1   7
ATOM      7  C   UNL     1      44.655   3.946   8.396  0.00  0.00    +0.000 C 
BRANCH   7   8
ATOM      8  C   UNL     1      45.792   3.248   7.644  0.00  0.00    +0.000 C 
BRANCH   8   9
ATOM      9  N   UNL     1      46.683   4.225   7.015  0.00  0.00    +0.000 NA
ATOM     10  H   UNL     1      46.213   4.640   6.211  0.00  0.00    +0.000 HD
ATOM     11  H   UNL     1      47.508   3.751   6.649  0.00  0.00    +0.000 HD
ENDBRANCH   8   9
ENDBRANCH   7   8
ENDBRANCH   1   7
BRANCH   4  12
ATOM     12  O   UNL     1      45.951   5.074  13.828  0.00  0.00    +0.000 OA
BRANCH  12  13
ATOM     13  C   UNL     1      47.288   5.503  14.111  0.00  0.00    +0.000 C 
BRANCH  13  14
ATOM     14  C   UNL     1      47.745   4.986  15.461  0.00  0.00    +0.000 A 
ATOM     15  N   UNL     1      48.764   5.636  16.060  0.00  0.00    +0.000 NA
ATOM     16  C   UNL     1      49.102   5.212  17.291  0.00  0.00    +0.000 A 
ATOM     17  C   UNL     1      48.470   4.177  17.931  0.00  0.00    +0.000 A 
ATOM     18  C   UNL     1      47.456   3.561  17.234  0.00  0.00    +0.000 A 
ATOM     19  N   UNL     1      47.072   3.953  16.011  0.00  0.00    +0.000 NA
BRANCH  18  20
ATOM     20  N   UNL     1      46.730   2.525  17.819  0.00  0.00    +0.000 N 
ATOM     21  H   UNL     1      45.992   2.869  18.423  0.00  0.00    +0.000 HD
ATOM     22  H   UNL     1      47.390   1.935  18.321  0.00  0.00    +0.000 HD
ENDBRANCH  18  20
ENDBRANCH  13  14
ENDBRANCH  12  13
ENDBRANCH   4  12
TORSDOF 7
ENDMDL
MODEL 7
REMARK VINA RESULT:    -5.580      3.920      8.430
REMARK INTER + INTRA:          -8.026
REMARK INTER:                  -7.764
REMARK INTRA:                  -0.262
REMARK UNBOUND:                -0.488
REMARK  Name = 
REMARK  7 active torsions:
REMARK  status: ('A' for Active; 'I' for Inactive)
REMARK    1  A    between atoms: N_1  and  C_2
REMARK    2  A    between atoms: C_2  and  C_3
REMARK    3  A    between atoms: C_3  and  C_4
REMARK    4  A    between atoms: C_7  and  O_8
REMARK    5  A    between atoms: O_8  and  C_9
REMARK    6  A    between atoms: C_9  and  C_10
REMARK    7  A    between atoms: C_14  and  N_15
REMARK                            x       y       z     vdW  Elec       q    Type
REMARK                         _______ _______ _______ _____ _____    ______ ____
ROOT
ATOM      1  C   UNL     1      49.227   4.398  18.014  0.00  0.00    +0.000 A 
ATOM      2  C   UNL     1      48.817   5.501  17.257  0.00  0.00    +0.000 A 
ATOM      3  C   UNL     1      47.977   5.338  16.149  0.00  0.00    +0.000 A 
ATOM      4  C   UNL     1      47.531   4.067  15.785  0.00  0.00    +0.000 A 
ATOM      5  C   UNL     1      47.907   2.968  16.559  0.00  0.00    +0.000 A 
ATOM      6  C   UNL     1      48.754   3.128  17.662  0.00  0.00    +0.000 A 
ENDROOT
BRANCH   1   7
ATOM      7  C   UNL     1      50.153   4.573  19.194  0.00  0.00    +0.000 C 
BRANCH   7   8
ATOM      8  C   UNL     1      49.425   5.078  20.444  0.00  0.00    +0.000 C 
BRANCH   8   9
ATOM      9  N   UNL     1      48.530   4.051  20.982  0.00  0.00    +0.000 NA
ATOM     10  H   UNL     1      48.930   3.673  21.840  0.00  0.00    +0.000 HD
ATOM     11  H   UNL     1      48.472   3.270  20.328  0.00  0.00    +0.000 HD
ENDBRANCH   8   9
ENDBRANCH   7   8
ENDBRANCH   1   7
BRANCH   4  12
ATOM     12  O   UNL     1      46.695   3.787  14.735  0.00  0.00    +0.000 OA
BRANCH  12  13
ATOM     13  C   UNL     1      46.340   4.907  13.914  0.00  0.00    +0.000 C 
BRANCH  13  14
ATOM     14  C   UNL     1      45.166   4.566  13.018  0.00  0.00    +0.000 A 
ATOM     15  N   UNL     1      45.068   3.291  12.584  0.00  0.00    +0.000 NA
ATOM     16  C   UNL     1      43.978   2.991  11.857  0.00  0.00    +0.000 A 
ATOM     17  C   UNL     1      43.001   3.903  11.549  0.00  0.00    +0.000 A 
ATOM     18  C   UNL     1      43.197   5.182  12.018  0.00  0.00    +0.000 A 
ATOM     19  N   UNL     1      44.258   5.530  12.758  0.00  0.00    +0.000 NA
BRANCH  18  20
ATOM     20  N   UNL     1      42.239   6.168  11.789  0.00  0.00    +0.000 N 
ATOM     21  H   UNL     1      41.326   5.775  11.592  0.00  0.00    +0.000 HD
ATOM     22  H   UNL     1      42.576   6.750  11.025  0.00  0.00    +0.000 HD
ENDBRANCH  18  20
ENDBRANCH  13  14
ENDBRANCH  12  13
ENDBRANCH   4  12
TORSDOF 7
ENDMDL
MODEL 8
REMARK VINA RESULT:    -5.385      4.128      7.989
REMARK INTER + INTRA:          -7.761
REMARK INTER:                  -7.473
REMARK INTRA:                  -0.289
REMARK UNBOUND:                -0.488
REMARK  Name = 
REMARK  7 active torsions:
REMARK  status: ('A' for Active; 'I' for Inactive)
REMARK    1  A    between atoms: N_1  and  C_2
REMARK    2  A    between atoms: C_2  and  C_3
REMARK    3  A    between atoms: C_3  and  C_4
REMARK    4  A    between atoms: C_7  and  O_8
REMARK    5  A    between atoms: O_8  and  C_9
REMARK    6  A    between atoms: C_9  and  C_10
REMARK    7  A    between atoms: C_14  and  N_15
REMARK                            x       y       z     vdW  Elec       q    Type
REMARK                         _______ _______ _______ _____ _____    ______ ____
ROOT
ATOM      1  C   UNL     1      49.672   4.258  17.893  0.00  0.00    +0.000 A 
ATOM      2  C   UNL     1      49.271   5.395  17.182  0.00  0.00    +0.000 A 
ATOM      3  C   UNL     1      48.244   5.322  16.234  0.00  0.00    +0.000 A 
ATOM      4  C   UNL     1      47.600   4.110  15.985  0.00  0.00    +0.000 A 
ATOM      5  C   UNL     1      47.971   2.981  16.718  0.00  0.00    +0.000 A 
ATOM      6  C   UNL     1      49.003   3.050  17.661  0.00  0.00    +0.000 A 
ENDROOT
BRANCH   1   7
ATOM      7  C   UNL     1      50.796   4.333  18.899  0.00  0.00    +0.000 C 
BRANCH   7   8
ATOM      8  C   UNL     1      52.135   3.864  18.322  0.00  0.00    +0.000 C 
BRANCH   8   9
ATOM      9  N   UNL     1      52.445   2.500  18.757  0.00  0.00    +0.000 NA
ATOM     10  H   UNL     1      53.457   2.384  18.802  0.00  0.00    +0.000 HD
ATOM     11  H   UNL     1      52.114   1.834  18.061  0.00  0.00    +0.000 HD
ENDBRANCH   8   9
ENDBRANCH   7   8
ENDBRANCH   1   7
BRANCH   4  12
ATOM     12  O   UNL     1      46.574   3.921  15.096  0.00  0.00    +0.000 OA
BRANCH  12  13
ATOM     13  C   UNL     1      46.481   4.891  14.046  0.00  0.00    +0.000 C 
BRANCH  13  14
ATOM     14  C   UNL     1      45.200   4.709  13.257  0.00  0.00    +0.000 A 
ATOM     15  N   UNL     1      44.527   5.825  12.904  0.00  0.00    +0.000 NA
ATOM     16  C   UNL     1      43.437   5.646  12.138  0.00  0.00    +0.000 A 
ATOM     17  C   UNL     1      43.000   4.414  11.721  0.00  0.00    +0.000 A 
ATOM     18  C   UNL     1      43.739   3.334  12.147  0.00  0.00    +0.000 A 
ATOM     19  N   UNL     1      44.840   3.458  12.901  0.00  0.00    +0.000 NA
BRANCH  18  20
ATOM     20  N   UNL     1      43.395   2.045  11.742  0.00  0.00    +0.000 N 
ATOM     21  H   UNL     1      43.151   1.452  12.526  0.00  0.00    +0.000 HD
ATOM     22  H   UNL     1      44.180   1.672  11.212  0.00  0.00    +0.000 HD
ENDBRANCH  18  20
ENDBRANCH  13  14
ENDBRANCH  12  13
ENDBRANCH   4  12
TORSDOF 7
ENDMDL
MODEL 9
REMARK VINA RESULT:    -5.364      4.305      6.027
REMARK INTER + INTRA:          -7.734
REMARK INTER:                  -7.488
REMARK INTRA:                  -0.246
REMARK UNBOUND:                -0.488
REMARK  Name = 
REMARK  7 active torsions:
REMARK  status: ('A' for Active; 'I' for Inactive)
REMARK    1  A    between atoms: N_1  and  C_2
REMARK    2  A    between atoms: C_2  and  C_3
REMARK    3  A    between atoms: C_3  and  C_4
REMARK    4  A    between atoms: C_7  and  O_8
REMARK    5  A    between atoms: O_8  and  C_9
REMARK    6  A    between atoms: C_9  and  C_10
REMARK    7  A    between atoms: C_14  and  N_15
REMARK                            x       y       z     vdW  Elec       q    Type
REMARK                         _______ _______ _______ _____ _____    ______ ____
ROOT
ATOM      1  C   UNL     1      45.243   5.333  11.582  0.00  0.00    +0.000 A 
ATOM      2  C   UNL     1      46.103   6.415  11.366  0.00  0.00    +0.000 A 
ATOM      3  C   UNL     1      47.218   6.620  12.188  0.00  0.00    +0.000 A 
ATOM      4  C   UNL     1      47.489   5.741  13.237  0.00  0.00    +0.000 A 
ATOM      5  C   UNL     1      46.654   4.640  13.434  0.00  0.00    +0.000 A 
ATOM      6  C   UNL     1      45.536   4.438  12.618  0.00  0.00    +0.000 A 
ENDROOT
BRANCH   1   7
ATOM      7  C   UNL     1      44.028   5.126  10.708  0.00  0.00    +0.000 C 
BRANCH   7   8
ATOM      8  C   UNL     1      42.734   5.004  11.519  0.00  0.00    +0.000 C 
BRANCH   8   9
ATOM      9  N   UNL     1      42.133   6.319  11.751  0.00  0.00    +0.000 NA
ATOM     10  H   UNL     1      42.079   6.492  12.754  0.00  0.00    +0.000 HD
ATOM     11  H   UNL     1      41.173   6.322  11.409  0.00  0.00    +0.000 HD
ENDBRANCH   8   9
ENDBRANCH   7   8
ENDBRANCH   1   7
BRANCH   4  12
ATOM     12  O   UNL     1      48.556   5.830  14.094  0.00  0.00    +0.000 OA
BRANCH  12  13
ATOM     13  C   UNL     1      48.250   6.298  15.413  0.00  0.00    +0.000 C 
BRANCH  13  14
ATOM     14  C   UNL     1      48.360   5.172  16.422  0.00  0.00    +0.000 A 
ATOM     15  N   UNL     1      47.224   4.522  16.751  0.00  0.00    +0.000 NA
ATOM     16  C   UNL     1      47.355   3.477  17.587  0.00  0.00    +0.000 A 
ATOM     17  C   UNL     1      48.559   3.067  18.099  0.00  0.00    +0.000 A 
ATOM     18  C   UNL     1      49.659   3.802  17.723  0.00  0.00    +0.000 A 
ATOM     19  N   UNL     1      49.586   4.844  16.884  0.00  0.00    +0.000 NA
BRANCH  18  20
ATOM     20  N   UNL     1      50.931   3.437  18.162  0.00  0.00    +0.000 N 
ATOM     21  H   UNL     1      51.334   4.129  18.782  0.00  0.00    +0.000 HD
ATOM     22  H   UNL     1      51.506   3.283  17.336  0.00  0.00    +0.000 HD
ENDBRANCH  18  20
ENDBRANCH  13  14
ENDBRANCH  12  13
ENDBRANCH   4  12
TORSDOF 7
ENDMDL
