MODEL 1
REMARK VINA RESULT:    -7.544      0.000      0.000
REMARK INTER + INTRA:         -12.272
REMARK INTER:                 -10.851
REMARK INTRA:                  -1.421
REMARK UNBOUND:                -1.421
REMARK  Name = 
REMARK  12 active torsions:
REMARK  status: ('A' for Active; 'I' for Inactive)
REMARK    1  A    between atoms: C_1  and  C_2
REMARK    2  A    between atoms: C_2  and  C_3
REMARK    3  A    between atoms: C_5  and  O_6
REMARK    4  A    between atoms: O_6  and  C_7
REMARK    5  A    between atoms: C_11  and  C_12
REMARK    6  A    between atoms: C_12  and  C_13
REMARK    7  A    between atoms: C_12  and  C_14
REMARK    8  A    between atoms: C_12  and  C_15
REMARK    9  A    between atoms: C_15  and  N_16
REMARK   10  A    between atoms: N_16  and  C_17
REMARK   11  A    between atoms: C_20  and  S_21
REMARK   12  A    between atoms: S_21  and  N_22
REMARK                            x       y       z     vdW  Elec       q    Type
REMARK                         _______ _______ _______ _____ _____    ______ ____
ROOT
ATOM      1  C   UNL     1      43.485   5.885  11.904  0.00  0.00    +0.000 C 
ATOM      2  C   UNL     1      42.779   5.156  13.070  0.00  0.00    +0.000 C 
ATOM      3  C   UNL     1      42.847   7.284  11.739  0.00  0.00    +0.000 C 
ENDROOT
BRANCH   1   8
ATOM      4  C   UNL     1      46.982   5.304  13.444  0.00  0.00    +0.000 A 
ATOM      5  C   UNL     1      47.776   6.158  12.691  0.00  0.00    +0.000 A 
ATOM      6  C   UNL     1      47.183   6.994  11.748  0.00  0.00    +0.000 A 
ATOM      7  C   UNL     1      45.803   6.934  11.517  0.00  0.00    +0.000 A 
ATOM      8  C   UNL     1      44.984   6.044  12.234  0.00  0.00    +0.000 A 
ATOM      9  C   UNL     1      45.604   5.275  13.232  0.00  0.00    +0.000 A 
BRANCH   4  10
ATOM     10  O   UNL     1      47.620   4.492  14.353  0.00  0.00    +0.000 OA
BRANCH  10  15
ATOM     11  C   UNL     1      47.702   5.190  18.803  0.00  0.00    +0.000 C 
ATOM     12  C   UNL     1      48.435   4.482  17.662  0.00  0.00    +0.000 C 
ATOM     13  C   UNL     1      49.669   3.735  18.150  0.00  0.00    +0.000 C 
ATOM     14  C   UNL     1      48.709   5.406  16.451  0.00  0.00    +0.000 C 
ATOM     15  C   UNL     1      47.458   4.820  15.753  0.00  0.00    +0.000 C 
ATOM     16  C   UNL     1      47.529   3.629  16.731  0.00  0.00    +0.000 C 
ENDBRANCH  10  15
ENDBRANCH   4  10
ENDBRANCH   1   8
BRANCH   1  17
ATOM     17  C   UNL     1      43.183   5.045  10.614  0.00  0.00    +0.000 C 
BRANCH  17  18
ATOM     18  N   UNL     1      43.769   3.699  10.647  0.00  0.00    +0.000 N 
ATOM     19  H   UNL     1      43.111   2.954  10.870  0.00  0.00    +0.000 HD
BRANCH  18  20
ATOM     20  C   UNL     1      44.725   3.326   9.702  0.00  0.00    +0.000 A 
ATOM     21  C   UNL     1      45.015   1.990   9.398  0.00  0.00    +0.000 A 
ATOM     22  C   UNL     1      45.860   1.653   8.338  0.00  0.00    +0.000 A 
ATOM     23  C   UNL     1      46.404   2.663   7.548  0.00  0.00    +0.000 A 
ATOM     24  C   UNL     1      46.168   4.003   7.848  0.00  0.00    +0.000 A 
ATOM     25  C   UNL     1      45.321   4.325   8.913  0.00  0.00    +0.000 A 
BRANCH  23  26
ATOM     26  S   UNL     1      47.356   2.232   6.120  0.00  0.00    +0.000 S 
ATOM     27  O   UNL     1      47.544   0.799   6.090  0.00  0.00    +0.000 OA
ATOM     28  O   UNL     1      46.870   2.975   4.983  0.00  0.00    +0.000 OA
BRANCH  26  29
ATOM     29  N   UNL     1      48.844   2.896   6.516  0.00  0.00    +0.000 NA
ATOM     30  H   UNL     1      48.752   3.533   7.305  0.00  0.00    +0.000 HD
ATOM     31  H   UNL     1      49.540   2.164   6.639  0.00  0.00    +0.000 HD
ENDBRANCH  26  29
ENDBRANCH  23  26
ENDBRANCH  18  20
ENDBRANCH  17  18
ENDBRANCH   1  17
TORSDOF 8
ENDMDL
MODEL 2
REMARK VINA RESULT:    -6.666      4.364      8.158
REMARK INTER + INTRA:         -11.010
REMARK INTER:                  -9.673
REMARK INTRA:                  -1.337
REMARK UNBOUND:                -1.421
REMARK  Name = 
REMARK  12 active torsions:
REMARK  status: ('A' for Active; 'I' for Inactive)
REMARK    1  A    between atoms: C_1  and  C_2
REMARK    2  A    between atoms: C_2  and  C_3
REMARK    3  A    between atoms: C_5  and  O_6
REMARK    4  A    between atoms: O_6  and  C_7
REMARK    5  A    between atoms: C_11  and  C_12
REMARK    6  A    between atoms: C_12  and  C_13
REMARK    7  A    between atoms: C_12  and  C_14
REMARK    8  A    between atoms: C_12  and  C_15
REMARK    9  A    between atoms: C_15  and  N_16
REMARK   10  A    between atoms: N_16  and  C_17
REMARK   11  A    between atoms: C_20  and  S_21
REMARK   12  A    between atoms: S_21  and  N_22
REMARK                            x       y       z     vdW  Elec       q    Type
REMARK                         _______ _______ _______ _____ _____    ______ ____
ROOT
ATOM      1  C   UNL     1      49.514   9.072  12.061  0.00  0.00    +0.000 C 
ATOM      2  C   UNL     1      49.973   7.770  11.364  0.00  0.00    +0.000 C 
ATOM      3  C   UNL     1      50.132  10.276  11.314  0.00  0.00    +0.000 C 
ENDROOT
BRANCH   1   8
ATOM      4  C   UNL     1      45.771   8.117  12.214  0.00  0.00    +0.000 A 
ATOM      5  C   UNL     1      45.152   9.355  12.121  0.00  0.00    +0.000 A 
ATOM      6  C   UNL     1      45.925  10.496  11.915  0.00  0.00    +0.000 A 
ATOM      7  C   UNL     1      47.321  10.404  11.861  0.00  0.00    +0.000 A 
ATOM      8  C   UNL     1      47.975   9.167  12.000  0.00  0.00    +0.000 A 
ATOM      9  C   UNL     1      47.161   8.030  12.125  0.00  0.00    +0.000 A 
BRANCH   4  10
ATOM     10  O   UNL     1      44.963   7.025  12.429  0.00  0.00    +0.000 OA
BRANCH  10  15
ATOM     11  C   UNL     1      44.439   3.558   9.600  0.00  0.00    +0.000 C 
ATOM     12  C   UNL     1      44.134   4.034  11.021  0.00  0.00    +0.000 C 
ATOM     13  C   UNL     1      43.348   2.999  11.816  0.00  0.00    +0.000 C 
ATOM     14  C   UNL     1      43.515   5.451  11.067  0.00  0.00    +0.000 C 
ATOM     15  C   UNL     1      44.918   6.025  11.384  0.00  0.00    +0.000 C 
ATOM     16  C   UNL     1      45.354   4.605  11.796  0.00  0.00    +0.000 C 
ENDBRANCH  10  15
ENDBRANCH   4  10
ENDBRANCH   1   8
BRANCH   1  17
ATOM     17  C   UNL     1      50.111   9.027  13.512  0.00  0.00    +0.000 C 
BRANCH  17  18
ATOM     18  N   UNL     1      50.484   7.674  13.945  0.00  0.00    +0.000 N 
ATOM     19  H   UNL     1      51.483   7.529  14.077  0.00  0.00    +0.000 HD
BRANCH  18  20
ATOM     20  C   UNL     1      49.700   6.995  14.878  0.00  0.00    +0.000 A 
ATOM     21  C   UNL     1      48.470   6.408  14.557  0.00  0.00    +0.000 A 
ATOM     22  C   UNL     1      47.788   5.601  15.470  0.00  0.00    +0.000 A 
ATOM     23  C   UNL     1      48.355   5.349  16.718  0.00  0.00    +0.000 A 
ATOM     24  C   UNL     1      49.559   5.950  17.083  0.00  0.00    +0.000 A 
ATOM     25  C   UNL     1      50.228   6.757  16.158  0.00  0.00    +0.000 A 
BRANCH  23  26
ATOM     26  S   UNL     1      47.564   4.213  17.819  0.00  0.00    +0.000 S 
ATOM     27  O   UNL     1      46.743   3.304  17.052  0.00  0.00    +0.000 OA
ATOM     28  O   UNL     1      48.520   3.758  18.799  0.00  0.00    +0.000 OA
BRANCH  26  29
ATOM     29  N   UNL     1      46.509   5.235  18.628  0.00  0.00    +0.000 NA
ATOM     30  H   UNL     1      45.640   4.750  18.847  0.00  0.00    +0.000 HD
ATOM     31  H   UNL     1      46.970   5.664  19.428  0.00  0.00    +0.000 HD
ENDBRANCH  26  29
ENDBRANCH  23  26
ENDBRANCH  18  20
ENDBRANCH  17  18
ENDBRANCH   1  17
TORSDOF 8
ENDMDL
MODEL 3
REMARK VINA RESULT:    -6.414      4.237      7.581
REMARK INTER + INTRA:         -10.647
REMARK INTER:                  -9.107
REMARK INTRA:                  -1.540
REMARK UNBOUND:                -1.421
REMARK  Name = 
REMARK  12 active torsions:
REMARK  status: ('A' for Active; 'I' for Inactive)
REMARK    1  A    between atoms: C_1  and  C_2
REMARK    2  A    between atoms: C_2  and  C_3
REMARK    3  A    between atoms: C_5  and  O_6
REMARK    4  A    between atoms: O_6  and  C_7
REMARK    5  A    between atoms: C_11  and  C_12
REMARK    6  A    between atoms: C_12  and  C_13
REMARK    7  A    between atoms: C_12  and  C_14
REMARK    8  A    between atoms: C_12  and  C_15
REMARK    9  A    between atoms: C_15  and  N_16
REMARK   10  A    between atoms: N_16  and  C_17
REMARK   11  A    between atoms: C_20  and  S_21
REMARK   12  A    between atoms: S_21  and  N_22
REMARK                            x       y       z     vdW  Elec       q    Type
REMARK                         _______ _______ _______ _____ _____    ______ ____
ROOT
ATOM      1  C   UNL     1      49.387   7.636  14.472  0.00  0.00    +0.000 C 
ATOM      2  C   UNL     1      50.683   7.739  15.309  0.00  0.00    +0.000 C 
ATOM      3  C   UNL     1      49.773   7.398  12.994  0.00  0.00    +0.000 C 
ENDROOT
BRANCH   1   8
ATOM      4  C   UNL     1      46.975   4.617  14.544  0.00  0.00    +0.000 A 
ATOM      5  C   UNL     1      47.168   4.121  15.826  0.00  0.00    +0.000 A 
ATOM      6  C   UNL     1      48.003   4.805  16.708  0.00  0.00    +0.000 A 
ATOM      7  C   UNL     1      48.689   5.951  16.287  0.00  0.00    +0.000 A 
ATOM      8  C   UNL     1      48.546   6.446  14.979  0.00  0.00    +0.000 A 
ATOM      9  C   UNL     1      47.636   5.779  14.145  0.00  0.00    +0.000 A 
BRANCH   4  10
ATOM     10  O   UNL     1      46.151   3.897  13.710  0.00  0.00    +0.000 OA
BRANCH  10  15
ATOM     11  C   UNL     1      42.551   5.648  11.644  0.00  0.00    +0.000 C 
ATOM     12  C   UNL     1      43.788   4.778  11.418  0.00  0.00    +0.000 C 
ATOM     13  C   UNL     1      43.879   4.273   9.984  0.00  0.00    +0.000 C 
ATOM     14  C   UNL     1      43.948   3.662  12.478  0.00  0.00    +0.000 C 
ATOM     15  C   UNL     1      44.957   4.561  13.233  0.00  0.00    +0.000 C 
ATOM     16  C   UNL     1      45.119   5.385  11.940  0.00  0.00    +0.000 C 
ENDBRANCH  10  15
ENDBRANCH   4  10
ENDBRANCH   1   8
BRANCH   1  17
ATOM     17  C   UNL     1      48.682   9.033  14.583  0.00  0.00    +0.000 C 
BRANCH  17  18
ATOM     18  N   UNL     1      48.588   9.740  13.299  0.00  0.00    +0.000 N 
ATOM     19  H   UNL     1      49.366   9.573  12.663  0.00  0.00    +0.000 HD
BRANCH  18  20
ATOM     20  C   UNL     1      47.359   9.855  12.649  0.00  0.00    +0.000 A 
ATOM     21  C   UNL     1      46.306   8.952  12.843  0.00  0.00    +0.000 A 
ATOM     22  C   UNL     1      45.040   9.184  12.302  0.00  0.00    +0.000 A 
ATOM     23  C   UNL     1      44.809  10.351  11.577  0.00  0.00    +0.000 A 
ATOM     24  C   UNL     1      45.845  11.251  11.331  0.00  0.00    +0.000 A 
ATOM     25  C   UNL     1      47.108  11.003  11.878  0.00  0.00    +0.000 A 
BRANCH  23  26
ATOM     26  S   UNL     1      43.171  10.716  11.015  0.00  0.00    +0.000 S 
ATOM     27  O   UNL     1      42.406  11.267  12.110  0.00  0.00    +0.000 OA
ATOM     28  O   UNL     1      43.242  11.349   9.721  0.00  0.00    +0.000 OA
BRANCH  26  29
ATOM     29  N   UNL     1      42.573   9.171  10.752  0.00  0.00    +0.000 NA
ATOM     30  H   UNL     1      41.900   9.175   9.987  0.00  0.00    +0.000 HD
ATOM     31  H   UNL     1      43.336   8.506  10.644  0.00  0.00    +0.000 HD
ENDBRANCH  26  29
ENDBRANCH  23  26
ENDBRANCH  18  20
ENDBRANCH  17  18
ENDBRANCH   1  17
TORSDOF 8
ENDMDL
MODEL 4
REMARK VINA RESULT:    -6.176      3.129      5.176
REMARK INTER + INTRA:         -10.305
REMARK INTER:                  -8.816
REMARK INTRA:                  -1.489
REMARK UNBOUND:                -1.421
REMARK  Name = 
REMARK  12 active torsions:
REMARK  status: ('A' for Active; 'I' for Inactive)
REMARK    1  A    between atoms: C_1  and  C_2
REMARK    2  A    between atoms: C_2  and  C_3
REMARK    3  A    between atoms: C_5  and  O_6
REMARK    4  A    between atoms: O_6  and  C_7
REMARK    5  A    between atoms: C_11  and  C_12
REMARK    6  A    between atoms: C_12  and  C_13
REMARK    7  A    between atoms: C_12  and  C_14
REMARK    8  A    between atoms: C_12  and  C_15
REMARK    9  A    between atoms: C_15  and  N_16
REMARK   10  A    between atoms: N_16  and  C_17
REMARK   11  A    between atoms: C_20  and  S_21
REMARK   12  A    between atoms: S_21  and  N_22
REMARK                            x       y       z     vdW  Elec       q    Type
REMARK                         _______ _______ _______ _____ _____    ______ ____
ROOT
ATOM      1  C   UNL     1      48.843   9.059  12.355  0.00  0.00    +0.000 C 
ATOM      2  C   UNL     1      49.631  10.241  11.743  0.00  0.00    +0.000 C 
ATOM      3  C   UNL     1      49.098   7.799  11.496  0.00  0.00    +0.000 C 
ENDROOT
BRANCH   1   8
ATOM      4  C   UNL     1      50.199   7.277  15.506  0.00  0.00    +0.000 A 
ATOM      5  C   UNL     1      50.472   8.346  16.348  0.00  0.00    +0.000 A 
ATOM      6  C   UNL     1      50.138   9.638  15.949  0.00  0.00    +0.000 A 
ATOM      7  C   UNL     1      49.584   9.866  14.683  0.00  0.00    +0.000 A 
ATOM      8  C   UNL     1      49.341   8.805  13.793  0.00  0.00    +0.000 A 
ATOM      9  C   UNL     1      49.614   7.511  14.261  0.00  0.00    +0.000 A 
BRANCH   4  10
ATOM     10  O   UNL     1      50.559   6.024  15.944  0.00  0.00    +0.000 OA
BRANCH  10  15
ATOM     11  C   UNL     1      48.623   4.202  19.580  0.00  0.00    +0.000 C 
ATOM     12  C   UNL     1      48.708   4.095  18.057  0.00  0.00    +0.000 C 
ATOM     13  C   UNL     1      47.856   2.955  17.514  0.00  0.00    +0.000 C 
ATOM     14  C   UNL     1      50.163   4.087  17.530  0.00  0.00    +0.000 C 
ATOM     15  C   UNL     1      50.033   5.598  17.223  0.00  0.00    +0.000 C 
ATOM     16  C   UNL     1      48.501   5.433  17.294  0.00  0.00    +0.000 C 
ENDBRANCH  10  15
ENDBRANCH   4  10
ENDBRANCH   1   8
BRANCH   1  17
ATOM     17  C   UNL     1      47.325   9.438  12.243  0.00  0.00    +0.000 C 
BRANCH  17  18
ATOM     18  N   UNL     1      46.463   8.654  13.137  0.00  0.00    +0.000 N 
ATOM     19  H   UNL     1      45.911   9.207  13.791  0.00  0.00    +0.000 HD
BRANCH  18  20
ATOM     20  C   UNL     1      45.787   7.533  12.655  0.00  0.00    +0.000 A 
ATOM     21  C   UNL     1      44.766   7.611  11.699  0.00  0.00    +0.000 A 
ATOM     22  C   UNL     1      44.220   6.462  11.122  0.00  0.00    +0.000 A 
ATOM     23  C   UNL     1      44.719   5.212  11.482  0.00  0.00    +0.000 A 
ATOM     24  C   UNL     1      45.707   5.097  12.459  0.00  0.00    +0.000 A 
ATOM     25  C   UNL     1      46.241   6.257  13.028  0.00  0.00    +0.000 A 
BRANCH  23  26
ATOM     26  S   UNL     1      44.131   3.768  10.646  0.00  0.00    +0.000 S 
ATOM     27  O   UNL     1      45.235   2.862  10.430  0.00  0.00    +0.000 OA
ATOM     28  O   UNL     1      42.886   3.348  11.243  0.00  0.00    +0.000 OA
BRANCH  26  29
ATOM     29  N   UNL     1      43.741   4.405   9.145  0.00  0.00    +0.000 NA
ATOM     30  H   UNL     1      43.341   3.685   8.544  0.00  0.00    +0.000 HD
ATOM     31  H   UNL     1      43.168   5.240   9.248  0.00  0.00    +0.000 HD
ENDBRANCH  26  29
ENDBRANCH  23  26
ENDBRANCH  18  20
ENDBRANCH  17  18
ENDBRANCH   1  17
TORSDOF 8
ENDMDL
MODEL 5
REMARK VINA RESULT:    -6.152      3.677      5.853
REMARK INTER + INTRA:         -10.270
REMARK INTER:                  -8.861
REMARK INTRA:                  -1.409
REMARK UNBOUND:                -1.421
REMARK  Name = 
REMARK  12 active torsions:
REMARK  status: ('A' for Active; 'I' for Inactive)
REMARK    1  A    between atoms: C_1  and  C_2
REMARK    2  A    between atoms: C_2  and  C_3
REMARK    3  A    between atoms: C_5  and  O_6
REMARK    4  A    between atoms: O_6  and  C_7
REMARK    5  A    between atoms: C_11  and  C_12
REMARK    6  A    between atoms: C_12  and  C_13
REMARK    7  A    between atoms: C_12  and  C_14
REMARK    8  A    between atoms: C_12  and  C_15
REMARK    9  A    between atoms: C_15  and  N_16
REMARK   10  A    between atoms: N_16  and  C_17
REMARK   11  A    between atoms: C_20  and  S_21
REMARK   12  A    between atoms: S_21  and  N_22
REMARK                            x       y       z     vdW  Elec       q    Type
REMARK                         _______ _______ _______ _____ _____    ______ ____
ROOT
ATOM      1  C   UNL     1      50.003   8.673  13.583  0.00  0.00    +0.000 C 
ATOM      2  C   UNL     1      49.533   9.953  12.854  0.00  0.00    +0.000 C 
ATOM      3  C   UNL     1      51.544   8.714  13.707  0.00  0.00    +0.000 C 
ENDROOT
BRANCH   1   8
ATOM      4  C   UNL     1      49.132   7.544  17.175  0.00  0.00    +0.000 A 
ATOM      5  C   UNL     1      48.431   8.639  17.661  0.00  0.00    +0.000 A 
ATOM      6  C   UNL     1      48.152   9.708  16.813  0.00  0.00    +0.000 A 
ATOM      7  C   UNL     1      48.625   9.707  15.495  0.00  0.00    +0.000 A 
ATOM      8  C   UNL     1      49.378   8.630  14.992  0.00  0.00    +0.000 A 
ATOM      9  C   UNL     1      49.569   7.536  15.850  0.00  0.00    +0.000 A 
BRANCH   4  10
ATOM     10  O   UNL     1      49.390   6.522  18.058  0.00  0.00    +0.000 OA
BRANCH  10  15
ATOM     11  C   UNL     1      47.167   2.615  17.759  0.00  0.00    +0.000 C 
ATOM     12  C   UNL     1      48.529   3.268  17.522  0.00  0.00    +0.000 C 
ATOM     13  C   UNL     1      49.562   2.271  17.011  0.00  0.00    +0.000 C 
ATOM     14  C   UNL     1      49.019   4.105  18.727  0.00  0.00    +0.000 C 
ATOM     15  C   UNL     1      48.501   5.380  18.019  0.00  0.00    +0.000 C 
ATOM     16  C   UNL     1      48.489   4.585  16.698  0.00  0.00    +0.000 C 
ENDBRANCH  10  15
ENDBRANCH   4  10
ENDBRANCH   1   8
BRANCH   1  17
ATOM     17  C   UNL     1      49.612   7.471  12.654  0.00  0.00    +0.000 C 
BRANCH  17  18
ATOM     18  N   UNL     1      48.343   7.675  11.943  0.00  0.00    +0.000 N 
ATOM     19  H   UNL     1      48.438   8.069  11.008  0.00  0.00    +0.000 HD
BRANCH  18  20
ATOM     20  C   UNL     1      47.322   6.730  12.042  0.00  0.00    +0.000 A 
ATOM     21  C   UNL     1      46.988   6.092  13.244  0.00  0.00    +0.000 A 
ATOM     22  C   UNL     1      45.861   5.273  13.344  0.00  0.00    +0.000 A 
ATOM     23  C   UNL     1      45.034   5.108  12.235  0.00  0.00    +0.000 A 
ATOM     24  C   UNL     1      45.360   5.697  11.014  0.00  0.00    +0.000 A 
ATOM     25  C   UNL     1      46.492   6.512  10.930  0.00  0.00    +0.000 A 
BRANCH  23  26
ATOM     26  S   UNL     1      43.531   4.190  12.400  0.00  0.00    +0.000 S 
ATOM     27  O   UNL     1      42.856   4.151  11.123  0.00  0.00    +0.000 OA
ATOM     28  O   UNL     1      43.781   3.004  13.182  0.00  0.00    +0.000 OA
BRANCH  26  29
ATOM     29  N   UNL     1      42.635   5.218  13.377  0.00  0.00    +0.000 NA
ATOM     30  H   UNL     1      41.703   5.357  12.989  0.00  0.00    +0.000 HD
ATOM     31  H   UNL     1      42.651   4.897  14.343  0.00  0.00    +0.000 HD
ENDBRANCH  26  29
ENDBRANCH  23  26
ENDBRANCH  18  20
ENDBRANCH  17  18
ENDBRANCH   1  17
TORSDOF 8
ENDMDL
MODEL 6
REMARK VINA RESULT:    -5.993      4.190      8.767
REMARK INTER + INTRA:         -10.042
REMARK INTER:                  -9.296
REMARK INTRA:                  -0.747
REMARK UNBOUND:                -1.421
REMARK  Name = 
REMARK  12 active torsions:
REMARK  status: ('A' for Active; 'I' for Inactive)
REMARK    1  A    between atoms: C_1  and  C_2
REMARK    2  A    between atoms: C_2  and  C_3
REMARK    3  A    between atoms: C_5  and  O_6
REMARK    4  A    between atoms: O_6  and  C_7
REMARK    5  A    between atoms: C_11  and  C_12
REMARK    6  A    between atoms: C_12  and  C_13
REMARK    7  A    between atoms: C_12  and  C_14
REMARK    8  A    between atoms: C_12  and  C_15
REMARK    9  A    between atoms: C_15  and  N_16
REMARK   10  A    between atoms: N_16  and  C_17
REMARK   11  A    between atoms: C_20  and  S_21
REMARK   12  A    between atoms: S_21  and  N_22
REMARK                            x       y       z     vdW  Elec       q    Type
REMARK                         _______ _______ _______ _____ _____    ______ ____
ROOT
ATOM      1  C   UNL     1      46.406   6.770  12.566  0.00  0.00    +0.000 C 
ATOM      2  C   UNL     1      47.340   6.998  11.355  0.00  0.00    +0.000 C 
ATOM      3  C   UNL     1      45.969   8.146  13.117  0.00  0.00    +0.000 C 
ENDROOT
BRANCH   1   8
ATOM      4  C   UNL     1      43.974   4.691  10.397  0.00  0.00    +0.000 A 
ATOM      5  C   UNL     1      42.992   4.344  11.315  0.00  0.00    +0.000 A 
ATOM      6  C   UNL     1      43.054   4.849  12.611  0.00  0.00    +0.000 A 
ATOM      7  C   UNL     1      44.129   5.655  13.006  0.00  0.00    +0.000 A 
ATOM      8  C   UNL     1      45.160   5.983  12.108  0.00  0.00    +0.000 A 
ATOM      9  C   UNL     1      45.023   5.523  10.789  0.00  0.00    +0.000 A 
BRANCH   4  10
ATOM     10  O   UNL     1      43.872   4.156   9.135  0.00  0.00    +0.000 OA
BRANCH  10  15
ATOM     11  C   UNL     1      47.575   2.790   6.964  0.00  0.00    +0.000 C 
ATOM     12  C   UNL     1      46.362   2.288   7.747  0.00  0.00    +0.000 C 
ATOM     13  C   UNL     1      46.333   0.768   7.848  0.00  0.00    +0.000 C 
ATOM     14  C   UNL     1      45.028   2.901   7.259  0.00  0.00    +0.000 C 
ATOM     15  C   UNL     1      45.107   3.927   8.416  0.00  0.00    +0.000 C 
ATOM     16  C   UNL     1      46.122   2.997   9.109  0.00  0.00    +0.000 C 
ENDBRANCH  10  15
ENDBRANCH   4  10
ENDBRANCH   1   8
BRANCH   1  17
ATOM     17  C   UNL     1      47.272   6.049  13.658  0.00  0.00    +0.000 C 
BRANCH  17  18
ATOM     18  N   UNL     1      48.006   6.980  14.525  0.00  0.00    +0.000 N 
ATOM     19  H   UNL     1      47.509   7.844  14.740  0.00  0.00    +0.000 HD
BRANCH  18  20
ATOM     20  C   UNL     1      48.762   6.498  15.593  0.00  0.00    +0.000 A 
ATOM     21  C   UNL     1      48.349   5.428  16.398  0.00  0.00    +0.000 A 
ATOM     22  C   UNL     1      49.198   4.868  17.355  0.00  0.00    +0.000 A 
ATOM     23  C   UNL     1      50.492   5.363  17.496  0.00  0.00    +0.000 A 
ATOM     24  C   UNL     1      50.921   6.452  16.739  0.00  0.00    +0.000 A 
ATOM     25  C   UNL     1      50.058   7.003  15.786  0.00  0.00    +0.000 A 
BRANCH  23  26
ATOM     26  S   UNL     1      51.614   4.561  18.604  0.00  0.00    +0.000 S 
ATOM     27  O   UNL     1      52.970   4.837  18.189  0.00  0.00    +0.000 OA
ATOM     28  O   UNL     1      51.162   4.755  19.960  0.00  0.00    +0.000 OA
BRANCH  26  29
ATOM     29  N   UNL     1      51.327   2.950  18.238  0.00  0.00    +0.000 NA
ATOM     30  H   UNL     1      52.196   2.418  18.263  0.00  0.00    +0.000 HD
ATOM     31  H   UNL     1      50.583   2.577  18.824  0.00  0.00    +0.000 HD
ENDBRANCH  26  29
ENDBRANCH  23  26
ENDBRANCH  18  20
ENDBRANCH  17  18
ENDBRANCH   1  17
TORSDOF 8
ENDMDL
MODEL 7
REMARK VINA RESULT:    -5.928      3.642      6.612
REMARK INTER + INTRA:          -9.948
REMARK INTER:                  -8.329
REMARK INTRA:                  -1.619
REMARK UNBOUND:                -1.421
REMARK  Name = 
REMARK  12 active torsions:
REMARK  status: ('A' for Active; 'I' for Inactive)
REMARK    1  A    between atoms: C_1  and  C_2
REMARK    2  A    between atoms: C_2  and  C_3
REMARK    3  A    between atoms: C_5  and  O_6
REMARK    4  A    between atoms: O_6  and  C_7
REMARK    5  A    between atoms: C_11  and  C_12
REMARK    6  A    between atoms: C_12  and  C_13
REMARK    7  A    between atoms: C_12  and  C_14
REMARK    8  A    between atoms: C_12  and  C_15
REMARK    9  A    between atoms: C_15  and  N_16
REMARK   10  A    between atoms: N_16  and  C_17
REMARK   11  A    between atoms: C_20  and  S_21
REMARK   12  A    between atoms: S_21  and  N_22
REMARK                            x       y       z     vdW  Elec       q    Type
REMARK                         _______ _______ _______ _____ _____    ______ ____
ROOT
ATOM      1  C   UNL     1      48.725   3.922  17.288  0.00  0.00    +0.000 C 
ATOM      2  C   UNL     1      49.282   2.510  16.990  0.00  0.00    +0.000 C 
ATOM      3  C   UNL     1      48.381   4.009  18.792  0.00  0.00    +0.000 C 
ENDROOT
BRANCH   1   8
ATOM      4  C   UNL     1      50.409   7.186  16.083  0.00  0.00    +0.000 A 
ATOM      5  C   UNL     1      51.715   7.018  16.522  0.00  0.00    +0.000 A 
ATOM      6  C   UNL     1      52.088   5.818  17.124  0.00  0.00    +0.000 A 
ATOM      7  C   UNL     1      51.140   4.811  17.340  0.00  0.00    +0.000 A 
ATOM      8  C   UNL     1      49.800   4.975  16.947  0.00  0.00    +0.000 A 
ATOM      9  C   UNL     1      49.479   6.163  16.271  0.00  0.00    +0.000 A 
BRANCH   4  10
ATOM     10  O   UNL     1      50.091   8.393  15.506  0.00  0.00    +0.000 OA
BRANCH  10  15
ATOM     11  C   UNL     1      47.020   8.748  12.229  0.00  0.00    +0.000 C 
ATOM     12  C   UNL     1      48.449   9.134  12.613  0.00  0.00    +0.000 C 
ATOM     13  C   UNL     1      49.148   9.916  11.508  0.00  0.00    +0.000 C 
ATOM     14  C   UNL     1      49.277   7.942  13.147  0.00  0.00    +0.000 C 
ATOM     15  C   UNL     1      48.970   8.409  14.591  0.00  0.00    +0.000 C 
ATOM     16  C   UNL     1      48.596   9.789  14.014  0.00  0.00    +0.000 C 
ENDBRANCH  10  15
ENDBRANCH   4  10
ENDBRANCH   1   8
BRANCH   1  17
ATOM     17  C   UNL     1      47.396   4.051  16.465  0.00  0.00    +0.000 C 
BRANCH  17  18
ATOM     18  N   UNL     1      47.472   3.431  15.136  0.00  0.00    +0.000 N 
ATOM     19  H   UNL     1      47.597   2.420  15.144  0.00  0.00    +0.000 HD
BRANCH  18  20
ATOM     20  C   UNL     1      46.645   3.876  14.105  0.00  0.00    +0.000 A 
ATOM     21  C   UNL     1      46.034   3.010  13.189  0.00  0.00    +0.000 A 
ATOM     22  C   UNL     1      45.089   3.471  12.271  0.00  0.00    +0.000 A 
ATOM     23  C   UNL     1      44.723   4.815  12.281  0.00  0.00    +0.000 A 
ATOM     24  C   UNL     1      45.341   5.711  13.152  0.00  0.00    +0.000 A 
ATOM     25  C   UNL     1      46.286   5.234  14.064  0.00  0.00    +0.000 A 
BRANCH  23  26
ATOM     26  S   UNL     1      43.423   5.370  11.218  0.00  0.00    +0.000 S 
ATOM     27  O   UNL     1      43.632   4.834   9.893  0.00  0.00    +0.000 OA
ATOM     28  O   UNL     1      42.162   5.259  11.910  0.00  0.00    +0.000 OA
BRANCH  26  29
ATOM     29  N   UNL     1      43.766   7.009  11.123  0.00  0.00    +0.000 NA
ATOM     30  H   UNL     1      44.649   7.216  11.586  0.00  0.00    +0.000 HD
ATOM     31  H   UNL     1      43.704   7.332  10.160  0.00  0.00    +0.000 HD
ENDBRANCH  26  29
ENDBRANCH  23  26
ENDBRANCH  18  20
ENDBRANCH  17  18
ENDBRANCH   1  17
TORSDOF 8
ENDMDL
MODEL 8
REMARK VINA RESULT:    -5.848      4.610      8.398
REMARK INTER + INTRA:          -9.833
REMARK INTER:                  -8.713
REMARK INTRA:                  -1.120
REMARK UNBOUND:                -1.421
REMARK  Name = 
REMARK  12 active torsions:
REMARK  status: ('A' for Active; 'I' for Inactive)
REMARK    1  A    between atoms: C_1  and  C_2
REMARK    2  A    between atoms: C_2  and  C_3
REMARK    3  A    between atoms: C_5  and  O_6
REMARK    4  A    between atoms: O_6  and  C_7
REMARK    5  A    between atoms: C_11  and  C_12
REMARK    6  A    between atoms: C_12  and  C_13
REMARK    7  A    between atoms: C_12  and  C_14
REMARK    8  A    between atoms: C_12  and  C_15
REMARK    9  A    between atoms: C_15  and  N_16
REMARK   10  A    between atoms: N_16  and  C_17
REMARK   11  A    between atoms: C_20  and  S_21
REMARK   12  A    between atoms: S_21  and  N_22
REMARK                            x       y       z     vdW  Elec       q    Type
REMARK                         _______ _______ _______ _____ _____    ______ ____
ROOT
ATOM      1  C   UNL     1      46.860   6.849  12.502  0.00  0.00    +0.000 C 
ATOM      2  C   UNL     1      46.407   8.133  13.235  0.00  0.00    +0.000 C 
ATOM      3  C   UNL     1      47.545   5.913  13.524  0.00  0.00    +0.000 C 
ENDROOT
BRANCH   1   8
ATOM      4  C   UNL     1      44.556   4.930  10.063  0.00  0.00    +0.000 A 
ATOM      5  C   UNL     1      43.464   4.635  10.868  0.00  0.00    +0.000 A 
ATOM      6  C   UNL     1      43.417   5.128  12.170  0.00  0.00    +0.000 A 
ATOM      7  C   UNL     1      44.489   5.867  12.685  0.00  0.00    +0.000 A 
ATOM      8  C   UNL     1      45.627   6.140  11.906  0.00  0.00    +0.000 A 
ATOM      9  C   UNL     1      45.604   5.697  10.574  0.00  0.00    +0.000 A 
BRANCH   4  10
ATOM     10  O   UNL     1      44.558   4.409   8.791  0.00  0.00    +0.000 OA
BRANCH  10  15
ATOM     11  C   UNL     1      47.795   1.752   7.129  0.00  0.00    +0.000 C 
ATOM     12  C   UNL     1      46.708   2.752   6.730  0.00  0.00    +0.000 C 
ATOM     13  C   UNL     1      46.672   2.990   5.226  0.00  0.00    +0.000 C 
ATOM     14  C   UNL     1      46.747   4.055   7.563  0.00  0.00    +0.000 C 
ATOM     15  C   UNL     1      45.622   3.485   8.460  0.00  0.00    +0.000 C 
ATOM     16  C   UNL     1      45.306   2.473   7.340  0.00  0.00    +0.000 C 
ENDBRANCH  10  15
ENDBRANCH   4  10
ENDBRANCH   1   8
BRANCH   1  17
ATOM     17  C   UNL     1      47.931   7.301  11.447  0.00  0.00    +0.000 C 
BRANCH  17  18
ATOM     18  N   UNL     1      48.563   8.585  11.775  0.00  0.00    +0.000 N 
ATOM     19  H   UNL     1      47.997   9.203  12.355  0.00  0.00    +0.000 HD
BRANCH  18  20
ATOM     20  C   UNL     1      49.924   8.643  12.072  0.00  0.00    +0.000 A 
ATOM     21  C   UNL     1      50.414   8.930  13.353  0.00  0.00    +0.000 A 
ATOM     22  C   UNL     1      51.774   8.822  13.653  0.00  0.00    +0.000 A 
ATOM     23  C   UNL     1      52.660   8.394  12.667  0.00  0.00    +0.000 A 
ATOM     24  C   UNL     1      52.212   8.139  11.372  0.00  0.00    +0.000 A 
ATOM     25  C   UNL     1      50.848   8.253  11.088  0.00  0.00    +0.000 A 
BRANCH  23  26
ATOM     26  S   UNL     1      54.357   8.120  13.085  0.00  0.00    +0.000 S 
ATOM     27  O   UNL     1      55.051   7.598  11.930  0.00  0.00    +0.000 OA
ATOM     28  O   UNL     1      54.849   9.244  13.844  0.00  0.00    +0.000 OA
BRANCH  26  29
ATOM     29  N   UNL     1      54.217   6.846  14.167  0.00  0.00    +0.000 NA
ATOM     30  H   UNL     1      54.292   7.182  15.126  0.00  0.00    +0.000 HD
ATOM     31  H   UNL     1      53.380   6.301  13.971  0.00  0.00    +0.000 HD
ENDBRANCH  26  29
ENDBRANCH  23  26
ENDBRANCH  18  20
ENDBRANCH  17  18
ENDBRANCH   1  17
TORSDOF 8
ENDMDL
MODEL 9
REMARK VINA RESULT:    -5.389      3.550      6.629
REMARK INTER + INTRA:          -9.173
REMARK INTER:                  -7.307
REMARK INTRA:                  -1.866
REMARK UNBOUND:                -1.421
REMARK  Name = 
REMARK  12 active torsions:
REMARK  status: ('A' for Active; 'I' for Inactive)
REMARK    1  A    between atoms: C_1  and  C_2
REMARK    2  A    between atoms: C_2  and  C_3
REMARK    3  A    between atoms: C_5  and  O_6
REMARK    4  A    between atoms: O_6  and  C_7
REMARK    5  A    between atoms: C_11  and  C_12
REMARK    6  A    between atoms: C_12  and  C_13
REMARK    7  A    between atoms: C_12  and  C_14
REMARK    8  A    between atoms: C_12  and  C_15
REMARK    9  A    between atoms: C_15  and  N_16
REMARK   10  A    between atoms: N_16  and  C_17
REMARK   11  A    between atoms: C_20  and  S_21
REMARK   12  A    between atoms: S_21  and  N_22
REMARK                            x       y       z     vdW  Elec       q    Type
REMARK                         _______ _______ _______ _____ _____    ______ ____
ROOT
ATOM      1  C   UNL     1      48.341   5.204  17.790  0.00  0.00    +0.000 C 
ATOM      2  C   UNL     1      49.702   4.701  17.255  0.00  0.00    +0.000 C 
ATOM      3  C   UNL     1      48.159   4.689  19.236  0.00  0.00    +0.000 C 
ENDROOT
BRANCH   1   8
ATOM      4  C   UNL     1      48.418   8.873  16.577  0.00  0.00    +0.000 A 
ATOM      5  C   UNL     1      48.090   9.567  17.733  0.00  0.00    +0.000 A 
ATOM      6  C   UNL     1      47.932   8.873  18.930  0.00  0.00    +0.000 A 
ATOM      7  C   UNL     1      48.046   7.477  18.958  0.00  0.00    +0.000 A 
ATOM      8  C   UNL     1      48.332   6.746  17.792  0.00  0.00    +0.000 A 
ATOM      9  C   UNL     1      48.564   7.486  16.622  0.00  0.00    +0.000 A 
BRANCH   4  10
ATOM     10  O   UNL     1      48.551   9.605  15.421  0.00  0.00    +0.000 OA
BRANCH  10  15
ATOM     11  C   UNL     1      49.183   7.898  11.300  0.00  0.00    +0.000 C 
ATOM     12  C   UNL     1      49.065   9.211  12.075  0.00  0.00    +0.000 C 
ATOM     13  C   UNL     1      49.233  10.426  11.172  0.00  0.00    +0.000 C 
ATOM     14  C   UNL     1      49.955   9.251  13.340  0.00  0.00    +0.000 C 
ATOM     15  C   UNL     1      48.720   8.864  14.189  0.00  0.00    +0.000 C 
ATOM     16  C   UNL     1      47.829   9.309  13.012  0.00  0.00    +0.000 C 
ENDBRANCH  10  15
ENDBRANCH   4  10
ENDBRANCH   1   8
BRANCH   1  17
ATOM     17  C   UNL     1      47.243   4.542  16.885  0.00  0.00    +0.000 C 
BRANCH  17  18
ATOM     18  N   UNL     1      47.785   3.940  15.660  0.00  0.00    +0.000 N 
ATOM     19  H   UNL     1      48.088   2.973  15.759  0.00  0.00    +0.000 HD
BRANCH  18  20
ATOM     20  C   UNL     1      47.196   4.211  14.425  0.00  0.00    +0.000 A 
ATOM     21  C   UNL     1      46.565   3.230  13.650  0.00  0.00    +0.000 A 
ATOM     22  C   UNL     1      45.849   3.562  12.498  0.00  0.00    +0.000 A 
ATOM     23  C   UNL     1      45.735   4.900  12.125  0.00  0.00    +0.000 A 
ATOM     24  C   UNL     1      46.384   5.896  12.851  0.00  0.00    +0.000 A 
ATOM     25  C   UNL     1      47.099   5.547  14.001  0.00  0.00    +0.000 A 
BRANCH  23  26
ATOM     26  S   UNL     1      44.709   5.334  10.750  0.00  0.00    +0.000 S 
ATOM     27  O   UNL     1      45.474   5.209   9.530  0.00  0.00    +0.000 OA
ATOM     28  O   UNL     1      43.409   4.731  10.917  0.00  0.00    +0.000 OA
BRANCH  26  29
ATOM     29  N   UNL     1      44.504   6.977  11.013  0.00  0.00    +0.000 NA
ATOM     30  H   UNL     1      45.354   7.387  11.396  0.00  0.00    +0.000 HD
ATOM     31  H   UNL     1      44.154   7.432  10.172  0.00  0.00    +0.000 HD
ENDBRANCH  26  29
ENDBRANCH  23  26
ENDBRANCH  18  20
ENDBRANCH  17  18
ENDBRANCH   1  17
TORSDOF 8
ENDMDL
