MODEL 1
REMARK VINA RESULT:    -8.068      0.000      0.000
REMARK INTER + INTRA:         -12.387
REMARK INTER:                 -11.370
REMARK INTRA:                  -1.017
REMARK UNBOUND:                -1.017
REMARK  Name = 
REMARK  8 active torsions:
REMARK  status: ('A' for Active; 'I' for Inactive)
REMARK    1  A    between atoms: C_1  and  O_2
REMARK    2  A    between atoms: O_2  and  C_3
REMARK    3  A    between atoms: C_5  and  C_6
REMARK    4  A    between atoms: C_6  and  N_7
REMARK    5  A    between atoms: C_8  and  C_10
REMARK    6  A    between atoms: C_17  and  C_18
REMARK    7  A    between atoms: C_18  and  N_19
REMARK    8  A    between atoms: C_20  and  C_22
REMARK                            x       y       z     vdW  Elec       q    Type
REMARK                         _______ _______ _______ _____ _____    ______ ____
ROOT
ATOM      1  C   UNL     1      45.236   8.112  12.190  0.00  0.00    +0.000 A 
ATOM      2  C   UNL     1      44.462   7.315  11.333  0.00  0.00    +0.000 A 
ATOM      3  C   UNL     1      44.864   6.014  10.987  0.00  0.00    +0.000 A 
ATOM      4  C   UNL     1      46.050   5.510  11.527  0.00  0.00    +0.000 A 
ATOM      5  C   UNL     1      46.826   6.295  12.381  0.00  0.00    +0.000 A 
ATOM      6  C   UNL     1      46.438   7.604  12.716  0.00  0.00    +0.000 A 
ENDROOT
BRANCH   1   8
ATOM      7  C   UNL     1      44.916  10.371  11.502  0.00  0.00    +0.000 C 
ATOM      8  O   UNL     1      44.913   9.397  12.541  0.00  0.00    +0.000 OA
ENDBRANCH   1   8
BRANCH   3   9
ATOM      9  C   UNL     1      44.014   5.170  10.072  0.00  0.00    +0.000 C 
BRANCH   9  10
ATOM     10  N   UNL     1      44.801   4.568   9.025  0.00  0.00    +0.000 N 
ATOM     11  C   UNL     1      45.190   3.250   9.104  0.00  0.00    +0.000 C 
ATOM     12  O   UNL     1      44.927   2.538  10.070  0.00  0.00    +0.000 OA
ATOM     13  H   UNL     1      44.940   5.082   8.168  0.00  0.00    +0.000 HD
BRANCH  11  14
ATOM     14  C   UNL     1      45.943   2.753   7.947  0.00  0.00    +0.000 A 
ATOM     15  C   UNL     1      46.313   3.410   6.732  0.00  0.00    +0.000 A 
ATOM     16  C   UNL     1      47.034   2.520   5.964  0.00  0.00    +0.000 A 
ATOM     17  N   UNL     1      47.116   1.340   6.652  0.00  0.00    +0.000 N 
ATOM     18  C   UNL     1      46.464   1.472   7.849  0.00  0.00    +0.000 A 
ATOM     19  H   UNL     1      47.591   0.502   6.334  0.00  0.00    +0.000 HD
ENDBRANCH  11  14
ENDBRANCH   9  10
ENDBRANCH   3   9
BRANCH   6  20
ATOM     20  C   UNL     1      47.282   8.380  13.701  0.00  0.00    +0.000 C 
BRANCH  20  21
ATOM     21  N   UNL     1      47.691   7.533  14.800  0.00  0.00    +0.000 N 
ATOM     22  C   UNL     1      48.931   6.962  14.889  0.00  0.00    +0.000 C 
ATOM     23  O   UNL     1      49.789   7.110  14.022  0.00  0.00    +0.000 OA
ATOM     24  H   UNL     1      47.002   7.368  15.523  0.00  0.00    +0.000 HD
BRANCH  22  25
ATOM     25  C   UNL     1      49.208   6.204  16.118  0.00  0.00    +0.000 A 
ATOM     26  C   UNL     1      50.254   6.586  16.948  0.00  0.00    +0.000 A 
ATOM     27  S   UNL     1      50.390   5.636  18.359  0.00  0.00    +0.000 S 
ATOM     28  C   UNL     1      49.087   4.649  17.888  0.00  0.00    +0.000 A 
ATOM     29  N   UNL     1      48.674   3.615  18.670  0.00  0.00    +0.000 NA
ATOM     30  C   UNL     1      47.693   2.935  18.179  0.00  0.00    +0.000 A 
ATOM     31  N   UNL     1      47.093   3.190  16.974  0.00  0.00    +0.000 N 
ATOM     32  C   UNL     1      47.467   4.229  16.156  0.00  0.00    +0.000 A 
ATOM     33  O   UNL     1      46.884   4.437  15.098  0.00  0.00    +0.000 OA
ATOM     34  C   UNL     1      48.556   5.037  16.669  0.00  0.00    +0.000 A 
ATOM     35  H   UNL     1      46.330   2.617  16.643  0.00  0.00    +0.000 HD
ENDBRANCH  22  25
ENDBRANCH  20  21
ENDBRANCH   6  20
TORSDOF 7
ENDMDL
MODEL 2
REMARK VINA RESULT:    -8.039      1.879      2.651
REMARK INTER + INTRA:         -12.346
REMARK INTER:                 -11.099
REMARK INTRA:                  -1.247
REMARK UNBOUND:                -1.017
REMARK  Name = 
REMARK  8 active torsions:
REMARK  status: ('A' for Active; 'I' for Inactive)
REMARK    1  A    between atoms: C_1  and  O_2
REMARK    2  A    between atoms: O_2  and  C_3
REMARK    3  A    between atoms: C_5  and  C_6
REMARK    4  A    between atoms: C_6  and  N_7
REMARK    5  A    between atoms: C_8  and  C_10
REMARK    6  A    between atoms: C_17  and  C_18
REMARK    7  A    between atoms: C_18  and  N_19
REMARK    8  A    between atoms: C_20  and  C_22
REMARK                            x       y       z     vdW  Elec       q    Type
REMARK                         _______ _______ _______ _____ _____    ______ ____
ROOT
ATOM      1  C   UNL     1      46.861   5.521  13.099  0.00  0.00    +0.000 A 
ATOM      2  C   UNL     1      45.911   4.840  12.322  0.00  0.00    +0.000 A 
ATOM      3  C   UNL     1      45.096   5.523  11.404  0.00  0.00    +0.000 A 
ATOM      4  C   UNL     1      45.256   6.904  11.260  0.00  0.00    +0.000 A 
ATOM      5  C   UNL     1      46.198   7.590  12.027  0.00  0.00    +0.000 A 
ATOM      6  C   UNL     1      47.004   6.913  12.960  0.00  0.00    +0.000 A 
ENDROOT
BRANCH   1   8
ATOM      7  C   UNL     1      47.023   4.096  15.001  0.00  0.00    +0.000 C 
ATOM      8  O   UNL     1      47.664   4.916  14.031  0.00  0.00    +0.000 OA
ENDBRANCH   1   8
BRANCH   3   9
ATOM      9  C   UNL     1      44.088   4.773  10.573  0.00  0.00    +0.000 C 
BRANCH   9  10
ATOM     10  N   UNL     1      44.701   3.684   9.854  0.00  0.00    +0.000 N 
ATOM     11  C   UNL     1      45.470   3.919   8.738  0.00  0.00    +0.000 C 
ATOM     12  O   UNL     1      45.643   5.045   8.277  0.00  0.00    +0.000 OA
ATOM     13  H   UNL     1      44.677   2.761  10.262  0.00  0.00    +0.000 HD
BRANCH  11  14
ATOM     14  C   UNL     1      46.073   2.726   8.135  0.00  0.00    +0.000 A 
ATOM     15  C   UNL     1      47.028   2.605   7.077  0.00  0.00    +0.000 A 
ATOM     16  C   UNL     1      47.293   1.264   6.887  0.00  0.00    +0.000 A 
ATOM     17  N   UNL     1      46.534   0.555   7.778  0.00  0.00    +0.000 N 
ATOM     18  C   UNL     1      45.799   1.427   8.536  0.00  0.00    +0.000 A 
ATOM     19  H   UNL     1      46.523  -0.455   7.872  0.00  0.00    +0.000 HD
ENDBRANCH  11  14
ENDBRANCH   9  10
ENDBRANCH   3   9
BRANCH   6  20
ATOM     20  C   UNL     1      48.056   7.698  13.712  0.00  0.00    +0.000 C 
BRANCH  20  21
ATOM     21  N   UNL     1      47.924   7.492  15.137  0.00  0.00    +0.000 N 
ATOM     22  C   UNL     1      48.990   7.295  15.972  0.00  0.00    +0.000 C 
ATOM     23  O   UNL     1      50.149   7.256  15.562  0.00  0.00    +0.000 OA
ATOM     24  H   UNL     1      46.982   7.493  15.508  0.00  0.00    +0.000 HD
BRANCH  22  25
ATOM     25  C   UNL     1      48.681   7.193  17.405  0.00  0.00    +0.000 A 
ATOM     26  C   UNL     1      48.184   8.295  18.089  0.00  0.00    +0.000 A 
ATOM     27  S   UNL     1      47.821   7.980  19.725  0.00  0.00    +0.000 S 
ATOM     28  C   UNL     1      48.360   6.371  19.593  0.00  0.00    +0.000 A 
ATOM     29  N   UNL     1      48.322   5.530  20.661  0.00  0.00    +0.000 NA
ATOM     30  C   UNL     1      48.785   4.348  20.427  0.00  0.00    +0.000 A 
ATOM     31  N   UNL     1      49.291   3.934  19.223  0.00  0.00    +0.000 N 
ATOM     32  C   UNL     1      49.339   4.743  18.113  0.00  0.00    +0.000 A 
ATOM     33  O   UNL     1      49.774   4.322  17.047  0.00  0.00    +0.000 OA
ATOM     34  C   UNL     1      48.814   6.079  18.318  0.00  0.00    +0.000 A 
ATOM     35  H   UNL     1      49.642   2.995  19.103  0.00  0.00    +0.000 HD
ENDBRANCH  22  25
ENDBRANCH  20  21
ENDBRANCH   6  20
TORSDOF 7
ENDMDL
MODEL 3
REMARK VINA RESULT:    -7.805      2.306      3.314
REMARK INTER + INTRA:         -12.016
REMARK INTER:                 -10.696
REMARK INTRA:                  -1.320
REMARK UNBOUND:                -1.017
REMARK  Name = 
REMARK  8 active torsions:
REMARK  status: ('A' for Active; 'I' for Inactive)
REMARK    1  A    between atoms: C_1  and  O_2
REMARK    2  A    between atoms: O_2  and  C_3
REMARK    3  A    between atoms: C_5  and  C_6
REMARK    4  A    between atoms: C_6  and  N_7
REMARK    5  A    between atoms: C_8  and  C_10
REMARK    6  A    between atoms: C_17  and  C_18
REMARK    7  A    between atoms: C_18  and  N_19
REMARK    8  A    between atoms: C_20  and  C_22
REMARK                            x       y       z     vdW  Elec       q    Type
REMARK                         _______ _______ _______ _____ _____    ______ ____
ROOT
ATOM      1  C   UNL     1      46.878   5.407  13.049  0.00  0.00    +0.000 A 
ATOM      2  C   UNL     1      45.939   4.766  12.226  0.00  0.00    +0.000 A 
ATOM      3  C   UNL     1      45.111   5.496  11.359  0.00  0.00    +0.000 A 
ATOM      4  C   UNL     1      45.247   6.886  11.310  0.00  0.00    +0.000 A 
ATOM      5  C   UNL     1      46.177   7.533  12.124  0.00  0.00    +0.000 A 
ATOM      6  C   UNL     1      46.995   6.808  13.008  0.00  0.00    +0.000 A 
ENDROOT
BRANCH   1   8
ATOM      7  C   UNL     1      47.105   3.707  14.703  0.00  0.00    +0.000 C 
ATOM      8  O   UNL     1      47.692   4.753  13.938  0.00  0.00    +0.000 OA
ENDBRANCH   1   8
BRANCH   3   9
ATOM      9  C   UNL     1      44.116   4.787  10.476  0.00  0.00    +0.000 C 
BRANCH   9  10
ATOM     10  N   UNL     1      44.729   3.702   9.752  0.00  0.00    +0.000 N 
ATOM     11  C   UNL     1      45.551   3.947   8.676  0.00  0.00    +0.000 C 
ATOM     12  O   UNL     1      45.772   5.080   8.256  0.00  0.00    +0.000 OA
ATOM     13  H   UNL     1      44.664   2.770  10.132  0.00  0.00    +0.000 HD
BRANCH  11  14
ATOM     14  C   UNL     1      46.147   2.755   8.064  0.00  0.00    +0.000 A 
ATOM     15  C   UNL     1      47.135   2.636   7.036  0.00  0.00    +0.000 A 
ATOM     16  C   UNL     1      47.375   1.295   6.822  0.00  0.00    +0.000 A 
ATOM     17  N   UNL     1      46.571   0.582   7.670  0.00  0.00    +0.000 N 
ATOM     18  C   UNL     1      45.830   1.453   8.424  0.00  0.00    +0.000 A 
ATOM     19  H   UNL     1      46.534  -0.429   7.739  0.00  0.00    +0.000 HD
ENDBRANCH  11  14
ENDBRANCH   9  10
ENDBRANCH   3   9
BRANCH   6  20
ATOM     20  C   UNL     1      48.034   7.557  13.813  0.00  0.00    +0.000 C 
BRANCH  20  21
ATOM     21  N   UNL     1      47.917   7.237  15.219  0.00  0.00    +0.000 N 
ATOM     22  C   UNL     1      48.968   6.804  15.982  0.00  0.00    +0.000 C 
ATOM     23  O   UNL     1      50.093   6.632  15.517  0.00  0.00    +0.000 OA
ATOM     24  H   UNL     1      46.999   7.344  15.631  0.00  0.00    +0.000 HD
BRANCH  22  25
ATOM     25  C   UNL     1      48.692   6.611  17.412  0.00  0.00    +0.000 A 
ATOM     26  C   UNL     1      48.873   5.362  17.993  0.00  0.00    +0.000 A 
ATOM     27  S   UNL     1      48.569   5.336  19.671  0.00  0.00    +0.000 S 
ATOM     28  C   UNL     1      48.138   6.981  19.675  0.00  0.00    +0.000 A 
ATOM     29  N   UNL     1      47.763   7.603  20.826  0.00  0.00    +0.000 NA
ATOM     30  C   UNL     1      47.438   8.844  20.680  0.00  0.00    +0.000 A 
ATOM     31  N   UNL     1      47.447   9.517  19.487  0.00  0.00    +0.000 N 
ATOM     32  C   UNL     1      47.831   8.936  18.302  0.00  0.00    +0.000 A 
ATOM     33  O   UNL     1      47.851   9.583  17.261  0.00  0.00    +0.000 OA
ATOM     34  C   UNL     1      48.222   7.544  18.413  0.00  0.00    +0.000 A 
ATOM     35  H   UNL     1      47.179  10.489  19.437  0.00  0.00    +0.000 HD
ENDBRANCH  22  25
ENDBRANCH  20  21
ENDBRANCH   6  20
TORSDOF 7
ENDMDL
MODEL 4
REMARK VINA RESULT:    -7.272      1.812      2.474
REMARK INTER + INTRA:         -11.265
REMARK INTER:                 -10.620
REMARK INTRA:                  -0.645
REMARK UNBOUND:                -1.017
REMARK  Name = 
REMARK  8 active torsions:
REMARK  status: ('A' for Active; 'I' for Inactive)
REMARK    1  A    between atoms: C_1  and  O_2
REMARK    2  A    between atoms: O_2  and  C_3
REMARK    3  A    between atoms: C_5  and  C_6
REMARK    4  A    between atoms: C_6  and  N_7
REMARK    5  A    between atoms: C_8  and  C_10
REMARK    6  A    between atoms: C_17  and  C_18
REMARK    7  A    between atoms: C_18  and  N_19
REMARK    8  A    between atoms: C_20  and  C_22
REMARK                            x       y       z     vdW  Elec       q    Type
REMARK                         _______ _______ _______ _____ _____    ______ ____
ROOT
ATOM      1  C   UNL     1      45.389   7.582  12.347  0.00  0.00    +0.000 A 
ATOM      2  C   UNL     1      44.536   6.857  11.501  0.00  0.00    +0.000 A 
ATOM      3  C   UNL     1      44.735   5.487  11.266  0.00  0.00    +0.000 A 
ATOM      4  C   UNL     1      45.796   4.841  11.906  0.00  0.00    +0.000 A 
ATOM      5  C   UNL     1      46.650   5.553  12.750  0.00  0.00    +0.000 A 
ATOM      6  C   UNL     1      46.466   6.929  12.974  0.00  0.00    +0.000 A 
ENDROOT
BRANCH   1   8
ATOM      7  C   UNL     1      44.874   9.748  11.500  0.00  0.00    +0.000 C 
ATOM      8  O   UNL     1      45.265   8.925  12.593  0.00  0.00    +0.000 OA
ENDBRANCH   1   8
BRANCH   3   9
ATOM      9  C   UNL     1      43.802   4.724  10.361  0.00  0.00    +0.000 C 
BRANCH   9  10
ATOM     10  N   UNL     1      44.495   3.685   9.641  0.00  0.00    +0.000 N 
ATOM     11  C   UNL     1      45.423   3.995   8.673  0.00  0.00    +0.000 C 
ATOM     12  O   UNL     1      45.678   5.151   8.347  0.00  0.00    +0.000 OA
ATOM     13  H   UNL     1      44.397   2.731   9.956  0.00  0.00    +0.000 HD
BRANCH  11  14
ATOM     14  C   UNL     1      46.087   2.842   8.057  0.00  0.00    +0.000 A 
ATOM     15  C   UNL     1      47.041   2.782   6.993  0.00  0.00    +0.000 A 
ATOM     16  C   UNL     1      47.378   1.460   6.790  0.00  0.00    +0.000 A 
ATOM     17  N   UNL     1      46.666   0.702   7.679  0.00  0.00    +0.000 N 
ATOM     18  C   UNL     1      45.888   1.526   8.449  0.00  0.00    +0.000 A 
ATOM     19  H   UNL     1      46.712  -0.307   7.765  0.00  0.00    +0.000 HD
ENDBRANCH  11  14
ENDBRANCH   9  10
ENDBRANCH   3   9
BRANCH   6  20
ATOM     20  C   UNL     1      47.379   7.632  13.953  0.00  0.00    +0.000 C 
BRANCH  20  21
ATOM     21  N   UNL     1      48.060   6.672  14.794  0.00  0.00    +0.000 N 
ATOM     22  C   UNL     1      48.661   7.002  15.978  0.00  0.00    +0.000 C 
ATOM     23  O   UNL     1      48.687   8.154  16.406  0.00  0.00    +0.000 OA
ATOM     24  H   UNL     1      48.081   5.716  14.462  0.00  0.00    +0.000 HD
BRANCH  22  25
ATOM     25  C   UNL     1      49.228   5.886  16.749  0.00  0.00    +0.000 A 
ATOM     26  C   UNL     1      48.387   4.968  17.364  0.00  0.00    +0.000 A 
ATOM     27  S   UNL     1      49.214   3.706  18.160  0.00  0.00    +0.000 S 
ATOM     28  C   UNL     1      50.728   4.366  17.752  0.00  0.00    +0.000 A 
ATOM     29  N   UNL     1      51.883   3.759  18.138  0.00  0.00    +0.000 NA
ATOM     30  C   UNL     1      52.957   4.382  17.784  0.00  0.00    +0.000 A 
ATOM     31  N   UNL     1      52.980   5.560  17.085  0.00  0.00    +0.000 N 
ATOM     32  C   UNL     1      51.842   6.203  16.663  0.00  0.00    +0.000 A 
ATOM     33  O   UNL     1      51.910   7.242  16.016  0.00  0.00    +0.000 OA
ATOM     34  C   UNL     1      50.605   5.536  17.021  0.00  0.00    +0.000 A 
ATOM     35  H   UNL     1      53.855   6.000  16.840  0.00  0.00    +0.000 HD
ENDBRANCH  22  25
ENDBRANCH  20  21
ENDBRANCH   6  20
TORSDOF 7
ENDMDL
MODEL 5
REMARK VINA RESULT:    -7.208      2.762      4.166
REMARK INTER + INTRA:         -11.174
REMARK INTER:                  -9.682
REMARK INTRA:                  -1.492
REMARK UNBOUND:                -1.017
REMARK  Name = 
REMARK  8 active torsions:
REMARK  status: ('A' for Active; 'I' for Inactive)
REMARK    1  A    between atoms: C_1  and  O_2
REMARK    2  A    between atoms: O_2  and  C_3
REMARK    3  A    between atoms: C_5  and  C_6
REMARK    4  A    between atoms: C_6  and  N_7
REMARK    5  A    between atoms: C_8  and  C_10
REMARK    6  A    between atoms: C_17  and  C_18
REMARK    7  A    between atoms: C_18  and  N_19
REMARK    8  A    between atoms: C_20  and  C_22
REMARK                            x       y       z     vdW  Elec       q    Type
REMARK                         _______ _______ _______ _____ _____    ______ ____
ROOT
ATOM      1  C   UNL     1      45.916   6.431  12.724  0.00  0.00    +0.000 A 
ATOM      2  C   UNL     1      45.089   6.023  11.667  0.00  0.00    +0.000 A 
ATOM      3  C   UNL     1      44.844   4.663  11.415  0.00  0.00    +0.000 A 
ATOM      4  C   UNL     1      45.429   3.708  12.251  0.00  0.00    +0.000 A 
ATOM      5  C   UNL     1      46.253   4.103  13.306  0.00  0.00    +0.000 A 
ATOM      6  C   UNL     1      46.515   5.463  13.550  0.00  0.00    +0.000 A 
ENDROOT
BRANCH   1   8
ATOM      7  C   UNL     1      45.294   8.724  12.551  0.00  0.00    +0.000 C 
ATOM      8  O   UNL     1      46.217   7.739  13.002  0.00  0.00    +0.000 OA
ENDBRANCH   1   8
BRANCH   3   9
ATOM      9  C   UNL     1      43.945   4.246  10.280  0.00  0.00    +0.000 C 
BRANCH   9  10
ATOM     10  N   UNL     1      44.645   3.424   9.324  0.00  0.00    +0.000 N 
ATOM     11  C   UNL     1      45.542   3.978   8.439  0.00  0.00    +0.000 C 
ATOM     12  O   UNL     1      45.762   5.185   8.388  0.00  0.00    +0.000 OA
ATOM     13  H   UNL     1      44.577   2.421   9.409  0.00  0.00    +0.000 HD
BRANCH  11  14
ATOM     14  C   UNL     1      46.219   3.020   7.559  0.00  0.00    +0.000 A 
ATOM     15  C   UNL     1      46.801   3.203   6.265  0.00  0.00    +0.000 A 
ATOM     16  C   UNL     1      47.332   1.997   5.858  0.00  0.00    +0.000 A 
ATOM     17  N   UNL     1      47.094   1.077   6.843  0.00  0.00    +0.000 N 
ATOM     18  C   UNL     1      46.426   1.685   7.873  0.00  0.00    +0.000 A 
ATOM     19  H   UNL     1      47.374   0.103   6.822  0.00  0.00    +0.000 HD
ENDBRANCH  11  14
ENDBRANCH   9  10
ENDBRANCH   3   9
BRANCH   6  20
ATOM     20  C   UNL     1      47.358   5.834  14.750  0.00  0.00    +0.000 C 
BRANCH  20  21
ATOM     21  N   UNL     1      48.603   6.439  14.331  0.00  0.00    +0.000 N 
ATOM     22  C   UNL     1      49.036   7.657  14.779  0.00  0.00    +0.000 C 
ATOM     23  O   UNL     1      48.380   8.343  15.560  0.00  0.00    +0.000 OA
ATOM     24  H   UNL     1      49.160   5.913  13.668  0.00  0.00    +0.000 HD
BRANCH  22  25
ATOM     25  C   UNL     1      50.367   8.080  14.319  0.00  0.00    +0.000 A 
ATOM     26  C   UNL     1      51.320   8.493  15.241  0.00  0.00    +0.000 A 
ATOM     27  S   UNL     1      52.825   8.886  14.540  0.00  0.00    +0.000 S 
ATOM     28  C   UNL     1      52.243   8.566  12.974  0.00  0.00    +0.000 A 
ATOM     29  N   UNL     1      53.046   8.710  11.885  0.00  0.00    +0.000 NA
ATOM     30  C   UNL     1      52.467   8.459  10.759  0.00  0.00    +0.000 A 
ATOM     31  N   UNL     1      51.157   8.084  10.622  0.00  0.00    +0.000 N 
ATOM     32  C   UNL     1      50.311   7.912  11.692  0.00  0.00    +0.000 A 
ATOM     33  O   UNL     1      49.153   7.548  11.525  0.00  0.00    +0.000 OA
ATOM     34  C   UNL     1      50.917   8.167  12.985  0.00  0.00    +0.000 A 
ATOM     35  H   UNL     1      50.761   7.904   9.711  0.00  0.00    +0.000 HD
ENDBRANCH  22  25
ENDBRANCH  20  21
ENDBRANCH   6  20
TORSDOF 7
ENDMDL
MODEL 6
REMARK VINA RESULT:    -7.115      3.116      8.312
REMARK INTER + INTRA:         -11.044
REMARK INTER:                  -9.975
REMARK INTRA:                  -1.069
REMARK UNBOUND:                -1.017
REMARK  Name = 
REMARK  8 active torsions:
REMARK  status: ('A' for Active; 'I' for Inactive)
REMARK    1  A    between atoms: C_1  and  O_2
REMARK    2  A    between atoms: O_2  and  C_3
REMARK    3  A    between atoms: C_5  and  C_6
REMARK    4  A    between atoms: C_6  and  N_7
REMARK    5  A    between atoms: C_8  and  C_10
REMARK    6  A    between atoms: C_17  and  C_18
REMARK    7  A    between atoms: C_18  and  N_19
REMARK    8  A    between atoms: C_20  and  C_22
REMARK                            x       y       z     vdW  Elec       q    Type
REMARK                         _______ _______ _______ _____ _____    ______ ____
ROOT
ATOM      1  C   UNL     1      49.906   8.090  13.463  0.00  0.00    +0.000 A 
ATOM      2  C   UNL     1      50.708   7.852  14.590  0.00  0.00    +0.000 A 
ATOM      3  C   UNL     1      50.265   7.031  15.639  0.00  0.00    +0.000 A 
ATOM      4  C   UNL     1      49.006   6.431  15.539  0.00  0.00    +0.000 A 
ATOM      5  C   UNL     1      48.202   6.661  14.422  0.00  0.00    +0.000 A 
ATOM      6  C   UNL     1      48.634   7.497  13.378  0.00  0.00    +0.000 A 
ENDROOT
BRANCH   1   8
ATOM      7  C   UNL     1      51.301   8.433  11.562  0.00  0.00    +0.000 C 
ATOM      8  O   UNL     1      50.270   8.904  12.422  0.00  0.00    +0.000 OA
ENDBRANCH   1   8
BRANCH   3   9
ATOM      9  C   UNL     1      51.145   6.780  16.837  0.00  0.00    +0.000 C 
BRANCH   9  10
ATOM     10  N   UNL     1      51.556   5.400  16.912  0.00  0.00    +0.000 N 
ATOM     11  C   UNL     1      50.918   4.519  17.755  0.00  0.00    +0.000 C 
ATOM     12  O   UNL     1      50.007   4.860  18.504  0.00  0.00    +0.000 OA
ATOM     13  H   UNL     1      52.221   5.056  16.235  0.00  0.00    +0.000 HD
BRANCH  11  14
ATOM     14  C   UNL     1      51.406   3.137  17.693  0.00  0.00    +0.000 A 
ATOM     15  C   UNL     1      52.675   2.585  18.053  0.00  0.00    +0.000 A 
ATOM     16  C   UNL     1      52.634   1.225  17.826  0.00  0.00    +0.000 A 
ATOM     17  N   UNL     1      51.395   0.917  17.333  0.00  0.00    +0.000 N 
ATOM     18  C   UNL     1      50.647   2.062  17.253  0.00  0.00    +0.000 A 
ATOM     19  H   UNL     1      51.075  -0.010  17.077  0.00  0.00    +0.000 HD
ENDBRANCH  11  14
ENDBRANCH   9  10
ENDBRANCH   3   9
BRANCH   6  20
ATOM     20  C   UNL     1      47.749   7.652  12.161  0.00  0.00    +0.000 C 
BRANCH  20  21
ATOM     21  N   UNL     1      46.977   6.449  11.936  0.00  0.00    +0.000 N 
ATOM     22  C   UNL     1      45.609   6.423  11.927  0.00  0.00    +0.000 C 
ATOM     23  O   UNL     1      44.929   7.427  12.134  0.00  0.00    +0.000 OA
ATOM     24  H   UNL     1      47.503   5.598  11.785  0.00  0.00    +0.000 HD
BRANCH  22  25
ATOM     25  C   UNL     1      44.988   5.134  11.593  0.00  0.00    +0.000 A 
ATOM     26  C   UNL     1      44.276   4.435  12.559  0.00  0.00    +0.000 A 
ATOM     27  S   UNL     1      43.570   2.993  11.982  0.00  0.00    +0.000 S 
ATOM     28  C   UNL     1      44.231   3.225  10.432  0.00  0.00    +0.000 A 
ATOM     29  N   UNL     1      44.006   2.329   9.433  0.00  0.00    +0.000 NA
ATOM     30  C   UNL     1      44.588   2.615   8.317  0.00  0.00    +0.000 A 
ATOM     31  N   UNL     1      45.381   3.713   8.111  0.00  0.00    +0.000 N 
ATOM     32  C   UNL     1      45.628   4.652   9.084  0.00  0.00    +0.000 A 
ATOM     33  O   UNL     1      46.322   5.634   8.848  0.00  0.00    +0.000 OA
ATOM     34  C   UNL     1      44.983   4.386  10.355  0.00  0.00    +0.000 A 
ATOM     35  H   UNL     1      45.812   3.881   7.214  0.00  0.00    +0.000 HD
ENDBRANCH  22  25
ENDBRANCH  20  21
ENDBRANCH   6  20
TORSDOF 7
ENDMDL
MODEL 7
REMARK VINA RESULT:    -7.058      3.282      4.756
REMARK INTER + INTRA:         -10.964
REMARK INTER:                  -9.647
REMARK INTRA:                  -1.317
REMARK UNBOUND:                -1.017
REMARK  Name = 
REMARK  8 active torsions:
REMARK  status: ('A' for Active; 'I' for Inactive)
REMARK    1  A    between atoms: C_1  and  O_2
REMARK    2  A    between atoms: O_2  and  C_3
REMARK    3  A    between atoms: C_5  and  C_6
REMARK    4  A    between atoms: C_6  and  N_7
REMARK    5  A    between atoms: C_8  and  C_10
REMARK    6  A    between atoms: C_17  and  C_18
REMARK    7  A    between atoms: C_18  and  N_19
REMARK    8  A    between atoms: C_20  and  C_22
REMARK                            x       y       z     vdW  Elec       q    Type
REMARK                         _______ _______ _______ _____ _____    ______ ____
ROOT
ATOM      1  C   UNL     1      48.563   6.352  15.604  0.00  0.00    +0.000 A 
ATOM      2  C   UNL     1      48.139   6.928  14.396  0.00  0.00    +0.000 A 
ATOM      3  C   UNL     1      47.210   6.281  13.566  0.00  0.00    +0.000 A 
ATOM      4  C   UNL     1      46.691   5.048  13.971  0.00  0.00    +0.000 A 
ATOM      5  C   UNL     1      47.105   4.467  15.170  0.00  0.00    +0.000 A 
ATOM      6  C   UNL     1      48.050   5.102  15.995  0.00  0.00    +0.000 A 
ENDROOT
BRANCH   1   8
ATOM      7  C   UNL     1      50.771   7.199  15.891  0.00  0.00    +0.000 C 
ATOM      8  O   UNL     1      49.489   6.919  16.441  0.00  0.00    +0.000 OA
ENDBRANCH   1   8
BRANCH   3   9
ATOM      9  C   UNL     1      46.761   6.921  12.278  0.00  0.00    +0.000 C 
BRANCH   9  10
ATOM     10  N   UNL     1      46.463   5.932  11.272  0.00  0.00    +0.000 N 
ATOM     11  C   UNL     1      45.163   5.656  10.916  0.00  0.00    +0.000 C 
ATOM     12  O   UNL     1      44.200   6.197  11.453  0.00  0.00    +0.000 OA
ATOM     13  H   UNL     1      47.224   5.549  10.730  0.00  0.00    +0.000 HD
BRANCH  11  14
ATOM     14  C   UNL     1      45.007   4.666   9.845  0.00  0.00    +0.000 A 
ATOM     15  C   UNL     1      45.606   4.603   8.548  0.00  0.00    +0.000 A 
ATOM     16  C   UNL     1      45.152   3.463   7.919  0.00  0.00    +0.000 A 
ATOM     17  N   UNL     1      44.292   2.825   8.771  0.00  0.00    +0.000 N 
ATOM     18  C   UNL     1      44.201   3.541   9.935  0.00  0.00    +0.000 A 
ATOM     19  H   UNL     1      43.805   1.956   8.579  0.00  0.00    +0.000 HD
ENDBRANCH  11  14
ENDBRANCH   9  10
ENDBRANCH   3   9
BRANCH   6  20
ATOM     20  C   UNL     1      48.407   4.459  17.316  0.00  0.00    +0.000 C 
BRANCH  20  21
ATOM     21  N   UNL     1      49.806   4.093  17.343  0.00  0.00    +0.000 N 
ATOM     22  C   UNL     1      50.627   4.337  18.411  0.00  0.00    +0.000 C 
ATOM     23  O   UNL     1      50.236   4.910  19.426  0.00  0.00    +0.000 OA
ATOM     24  H   UNL     1      50.170   3.641  16.515  0.00  0.00    +0.000 HD
BRANCH  22  25
ATOM     25  C   UNL     1      51.998   3.818  18.305  0.00  0.00    +0.000 A 
ATOM     26  C   UNL     1      53.075   4.632  18.632  0.00  0.00    +0.000 A 
ATOM     27  S   UNL     1      54.586   3.849  18.513  0.00  0.00    +0.000 S 
ATOM     28  C   UNL     1      53.860   2.408  17.974  0.00  0.00    +0.000 A 
ATOM     29  N   UNL     1      54.611   1.312  17.682  0.00  0.00    +0.000 NA
ATOM     30  C   UNL     1      53.934   0.298  17.260  0.00  0.00    +0.000 A 
ATOM     31  N   UNL     1      52.574   0.283  17.095  0.00  0.00    +0.000 N 
ATOM     32  C   UNL     1      51.772   1.360  17.387  0.00  0.00    +0.000 A 
ATOM     33  O   UNL     1      50.556   1.294  17.251  0.00  0.00    +0.000 OA
ATOM     34  C   UNL     1      52.483   2.523  17.883  0.00  0.00    +0.000 A 
ATOM     35  H   UNL     1      52.101  -0.543  16.757  0.00  0.00    +0.000 HD
ENDBRANCH  22  25
ENDBRANCH  20  21
ENDBRANCH   6  20
TORSDOF 7
ENDMDL
MODEL 8
REMARK VINA RESULT:    -6.950      4.403      7.173
REMARK INTER + INTRA:         -10.811
REMARK INTER:                  -9.670
REMARK INTRA:                  -1.141
REMARK UNBOUND:                -1.017
REMARK  Name = 
REMARK  8 active torsions:
REMARK  status: ('A' for Active; 'I' for Inactive)
REMARK    1  A    between atoms: C_1  and  O_2
REMARK    2  A    between atoms: O_2  and  C_3
REMARK    3  A    between atoms: C_5  and  C_6
REMARK    4  A    between atoms: C_6  and  N_7
REMARK    5  A    between atoms: C_8  and  C_10
REMARK    6  A    between atoms: C_17  and  C_18
REMARK    7  A    between atoms: C_18  and  N_19
REMARK    8  A    between atoms: C_20  and  C_22
REMARK                            x       y       z     vdW  Elec       q    Type
REMARK                         _______ _______ _______ _____ _____    ______ ____
ROOT
ATOM      1  C   UNL     1      49.119   7.984  14.019  0.00  0.00    +0.000 A 
ATOM      2  C   UNL     1      50.450   8.089  13.588  0.00  0.00    +0.000 A 
ATOM      3  C   UNL     1      50.768   8.197  12.225  0.00  0.00    +0.000 A 
ATOM      4  C   UNL     1      49.729   8.218  11.291  0.00  0.00    +0.000 A 
ATOM      5  C   UNL     1      48.402   8.115  11.709  0.00  0.00    +0.000 A 
ATOM      6  C   UNL     1      48.079   7.987  13.072  0.00  0.00    +0.000 A 
ENDROOT
BRANCH   1   8
ATOM      7  C   UNL     1      49.033   6.599  15.956  0.00  0.00    +0.000 C 
ATOM      8  O   UNL     1      48.747   7.845  15.332  0.00  0.00    +0.000 OA
ENDBRANCH   1   8
BRANCH   3   9
ATOM      9  C   UNL     1      52.204   8.318  11.783  0.00  0.00    +0.000 C 
BRANCH   9  10
ATOM     10  N   UNL     1      52.561   7.275  10.854  0.00  0.00    +0.000 N 
ATOM     11  C   UNL     1      52.798   7.561   9.528  0.00  0.00    +0.000 C 
ATOM     12  O   UNL     1      52.683   8.692   9.064  0.00  0.00    +0.000 OA
ATOM     13  H   UNL     1      52.775   6.358  11.216  0.00  0.00    +0.000 HD
BRANCH  11  14
ATOM     14  C   UNL     1      53.201   6.415   8.707  0.00  0.00    +0.000 A 
ATOM     15  C   UNL     1      52.845   6.064   7.367  0.00  0.00    +0.000 A 
ATOM     16  C   UNL     1      53.501   4.897   7.038  0.00  0.00    +0.000 A 
ATOM     17  N   UNL     1      54.240   4.509   8.122  0.00  0.00    +0.000 N 
ATOM     18  C   UNL     1      54.068   5.418   9.132  0.00  0.00    +0.000 A 
ATOM     19  H   UNL     1      54.830   3.685   8.171  0.00  0.00    +0.000 HD
ENDBRANCH  11  14
ENDBRANCH   9  10
ENDBRANCH   3   9
BRANCH   6  20
ATOM     20  C   UNL     1      46.621   7.951  13.471  0.00  0.00    +0.000 C 
BRANCH  20  21
ATOM     21  N   UNL     1      46.019   6.692  13.089  0.00  0.00    +0.000 N 
ATOM     22  C   UNL     1      45.079   6.576  12.102  0.00  0.00    +0.000 C 
ATOM     23  O   UNL     1      44.656   7.547  11.477  0.00  0.00    +0.000 OA
ATOM     24  H   UNL     1      46.325   5.873  13.599  0.00  0.00    +0.000 HD
BRANCH  22  25
ATOM     25  C   UNL     1      44.641   5.210  11.782  0.00  0.00    +0.000 A 
ATOM     26  C   UNL     1      43.949   4.464  12.727  0.00  0.00    +0.000 A 
ATOM     27  S   UNL     1      43.462   2.929  12.166  0.00  0.00    +0.000 S 
ATOM     28  C   UNL     1      44.201   3.185  10.655  0.00  0.00    +0.000 A 
ATOM     29  N   UNL     1      44.156   2.234   9.683  0.00  0.00    +0.000 NA
ATOM     30  C   UNL     1      44.779   2.550   8.598  0.00  0.00    +0.000 A 
ATOM     31  N   UNL     1      45.450   3.728   8.399  0.00  0.00    +0.000 N 
ATOM     32  C   UNL     1      45.513   4.723   9.345  0.00  0.00    +0.000 A 
ATOM     33  O   UNL     1      46.101   5.773   9.115  0.00  0.00    +0.000 OA
ATOM     34  C   UNL     1      44.813   4.425  10.580  0.00  0.00    +0.000 A 
ATOM     35  H   UNL     1      45.921   3.916   7.527  0.00  0.00    +0.000 HD
ENDBRANCH  22  25
ENDBRANCH  20  21
ENDBRANCH   6  20
TORSDOF 7
ENDMDL
MODEL 9
REMARK VINA RESULT:    -6.713      3.183      4.485
REMARK INTER + INTRA:         -10.478
REMARK INTER:                  -9.191
REMARK INTRA:                  -1.287
REMARK UNBOUND:                -1.017
REMARK  Name = 
REMARK  8 active torsions:
REMARK  status: ('A' for Active; 'I' for Inactive)
REMARK    1  A    between atoms: C_1  and  O_2
REMARK    2  A    between atoms: O_2  and  C_3
REMARK    3  A    between atoms: C_5  and  C_6
REMARK    4  A    between atoms: C_6  and  N_7
REMARK    5  A    between atoms: C_8  and  C_10
REMARK    6  A    between atoms: C_17  and  C_18
REMARK    7  A    between atoms: C_18  and  N_19
REMARK    8  A    between atoms: C_20  and  C_22
REMARK                            x       y       z     vdW  Elec       q    Type
REMARK                         _______ _______ _______ _____ _____    ______ ____
ROOT
ATOM      1  C   UNL     1      45.573   6.502  12.659  0.00  0.00    +0.000 A 
ATOM      2  C   UNL     1      44.820   5.543  11.962  0.00  0.00    +0.000 A 
ATOM      3  C   UNL     1      45.138   4.177  12.030  0.00  0.00    +0.000 A 
ATOM      4  C   UNL     1      46.217   3.776  12.823  0.00  0.00    +0.000 A 
ATOM      5  C   UNL     1      46.971   4.721  13.520  0.00  0.00    +0.000 A 
ATOM      6  C   UNL     1      46.667   6.092  13.440  0.00  0.00    +0.000 A 
ENDROOT
BRANCH   1   8
ATOM      7  C   UNL     1      44.699   8.350  11.435  0.00  0.00    +0.000 C 
ATOM      8  O   UNL     1      45.331   7.850  12.608  0.00  0.00    +0.000 OA
ENDBRANCH   1   8
BRANCH   3   9
ATOM      9  C   UNL     1      44.312   3.162  11.282  0.00  0.00    +0.000 C 
BRANCH   9  10
ATOM     10  N   UNL     1      45.037   2.609  10.166  0.00  0.00    +0.000 N 
ATOM     11  C   UNL     1      45.091   3.271   8.961  0.00  0.00    +0.000 C 
ATOM     12  O   UNL     1      44.503   4.331   8.761  0.00  0.00    +0.000 OA
ATOM     13  H   UNL     1      45.623   1.802  10.322  0.00  0.00    +0.000 HD
BRANCH  11  14
ATOM     14  C   UNL     1      45.904   2.620   7.928  0.00  0.00    +0.000 A 
ATOM     15  C   UNL     1      46.376   3.114   6.672  0.00  0.00    +0.000 A 
ATOM     16  C   UNL     1      47.118   2.120   6.069  0.00  0.00    +0.000 A 
ATOM     17  N   UNL     1      47.116   1.031   6.898  0.00  0.00    +0.000 N 
ATOM     18  C   UNL     1      46.389   1.324   8.022  0.00  0.00    +0.000 A 
ATOM     19  H   UNL     1      47.585   0.150   6.718  0.00  0.00    +0.000 HD
ENDBRANCH  11  14
ENDBRANCH   9  10
ENDBRANCH   3   9
BRANCH   6  20
ATOM     20  C   UNL     1      47.475   7.062  14.273  0.00  0.00    +0.000 C 
BRANCH  20  21
ATOM     21  N   UNL     1      48.812   7.203  13.738  0.00  0.00    +0.000 N 
ATOM     22  C   UNL     1      49.141   8.105  12.763  0.00  0.00    +0.000 C 
ATOM     23  O   UNL     1      48.311   8.853  12.250  0.00  0.00    +0.000 OA
ATOM     24  H   UNL     1      49.518   6.586  14.119  0.00  0.00    +0.000 HD
BRANCH  22  25
ATOM     25  C   UNL     1      50.563   8.176  12.400  0.00  0.00    +0.000 A 
ATOM     26  C   UNL     1      50.968   7.860  11.110  0.00  0.00    +0.000 A 
ATOM     27  S   UNL     1      52.641   8.058  10.848  0.00  0.00    +0.000 S 
ATOM     28  C   UNL     1      52.895   8.529  12.463  0.00  0.00    +0.000 A 
ATOM     29  N   UNL     1      54.139   8.847  12.912  0.00  0.00    +0.000 NA
ATOM     30  C   UNL     1      54.191   9.160  14.164  0.00  0.00    +0.000 A 
ATOM     31  N   UNL     1      53.112   9.176  15.008  0.00  0.00    +0.000 N 
ATOM     32  C   UNL     1      51.835   8.875  14.598  0.00  0.00    +0.000 A 
ATOM     33  O   UNL     1      50.894   8.929  15.382  0.00  0.00    +0.000 OA
ATOM     34  C   UNL     1      51.719   8.531  13.194  0.00  0.00    +0.000 A 
ATOM     35  H   UNL     1      53.218   9.428  15.980  0.00  0.00    +0.000 HD
ENDBRANCH  22  25
ENDBRANCH  20  21
ENDBRANCH   6  20
TORSDOF 7
ENDMDL
