MODEL 1
REMARK VINA RESULT:    -8.089      0.000      0.000
REMARK INTER + INTRA:         -11.814
REMARK INTER:                 -10.926
REMARK INTRA:                  -0.888
REMARK UNBOUND:                -0.888
REMARK  Name = 
REMARK  6 active torsions:
REMARK  status: ('A' for Active; 'I' for Inactive)
REMARK    1  A    between atoms: C_2  and  C_21
REMARK    2  A    between atoms: N_3  and  C_4
REMARK    3  A    between atoms: C_4  and  C_5
REMARK    4  A    between atoms: C_8  and  C_9
REMARK    5  A    between atoms: C_9  and  N_10
REMARK    6  A    between atoms: C_11  and  C_13
REMARK                            x       y       z     vdW  Elec       q    Type
REMARK                         _______ _______ _______ _____ _____    ______ ____
ROOT
ATOM      1  C   UNL     1      46.425   4.562  14.302  0.00  0.00    +0.000 A 
ATOM      2  C   UNL     1      47.264   5.593  13.891  0.00  0.00    +0.000 A 
ATOM      3  C   UNL     1      47.107   6.122  12.613  0.00  0.00    +0.000 A 
ATOM      4  C   UNL     1      46.107   5.623  11.776  0.00  0.00    +0.000 A 
ATOM      5  C   UNL     1      45.298   4.611  12.278  0.00  0.00    +0.000 A 
ATOM      6  N   UNL     1      45.438   4.070  13.510  0.00  0.00    +0.000 NA
ENDROOT
BRANCH   1   7
ATOM      7  C   UNL     1      46.552   3.984  15.691  0.00  0.00    +0.000 C 
BRANCH   7  10
ATOM      8  O   UNL     1      47.507   4.936  18.155  0.00  0.00    +0.000 OA
ATOM      9  C   UNL     1      48.303   4.416  17.375  0.00  0.00    +0.000 C 
ATOM     10  N   UNL     1      47.928   3.968  16.137  0.00  0.00    +0.000 N 
ATOM     11  H   UNL     1      48.531   3.320  15.639  0.00  0.00    +0.000 HD
BRANCH   9  12
ATOM     12  C   UNL     1      49.729   4.299  17.704  0.00  0.00    +0.000 A 
ATOM     13  C   UNL     1      50.402   5.376  18.254  0.00  0.00    +0.000 A 
ATOM     14  S   UNL     1      52.057   5.072  18.543  0.00  0.00    +0.000 S 
ATOM     15  C   UNL     1      51.916   3.471  17.985  0.00  0.00    +0.000 A 
ATOM     16  N   UNL     1      52.985   2.630  17.986  0.00  0.00    +0.000 NA
ATOM     17  C   UNL     1      52.726   1.438  17.565  0.00  0.00    +0.000 A 
ATOM     18  N   UNL     1      51.496   1.009  17.137  0.00  0.00    +0.000 N 
ATOM     19  C   UNL     1      50.401   1.836  17.076  0.00  0.00    +0.000 A 
ATOM     20  O   UNL     1      49.336   1.445  16.612  0.00  0.00    +0.000 OA
ATOM     21  C   UNL     1      50.631   3.181  17.563  0.00  0.00    +0.000 A 
ATOM     22  H   UNL     1      51.363   0.068  16.797  0.00  0.00    +0.000 HD
ENDBRANCH   9  12
ENDBRANCH   7  10
ENDBRANCH   1   7
BRANCH   4  23
ATOM     23  C   UNL     1      45.880   6.177  10.400  0.00  0.00    +0.000 C 
BRANCH  23  24
ATOM     24  N   UNL     1      45.258   5.203   9.531  0.00  0.00    +0.000 N 
ATOM     25  C   UNL     1      45.900   4.735   8.407  0.00  0.00    +0.000 C 
ATOM     26  O   UNL     1      46.979   5.197   8.036  0.00  0.00    +0.000 OA
ATOM     27  H   UNL     1      44.541   4.616   9.931  0.00  0.00    +0.000 HD
BRANCH  25  28
ATOM     28  C   UNL     1      45.125   3.678   7.575  0.00  0.00    +0.000 C 
ATOM     29  C   UNL     1      46.024   3.029   6.518  0.00  0.00    +0.000 C 
ATOM     30  C   UNL     1      47.049   2.105   7.168  0.00  0.00    +0.000 C 
ATOM     31  C   UNL     1      46.357   1.056   8.031  0.00  0.00    +0.000 C 
ATOM     32  C   UNL     1      45.318   1.650   8.984  0.00  0.00    +0.000 C 
ATOM     33  N   UNL     1      44.442   2.639   8.372  0.00  0.00    +0.000 NA
ATOM     34  H   UNL     1      43.775   3.038   9.025  0.00  0.00    +0.000 HD
ENDBRANCH  25  28
ENDBRANCH  23  24
ENDBRANCH   4  23
TORSDOF 6
ENDMDL
MODEL 2
REMARK VINA RESULT:    -7.555      2.645      3.711
REMARK INTER + INTRA:         -11.093
REMARK INTER:                 -10.145
REMARK INTRA:                  -0.948
REMARK UNBOUND:                -0.888
REMARK  Name = 
REMARK  6 active torsions:
REMARK  status: ('A' for Active; 'I' for Inactive)
REMARK    1  A    between atoms: C_2  and  C_21
REMARK    2  A    between atoms: N_3  and  C_4
REMARK    3  A    between atoms: C_4  and  C_5
REMARK    4  A    between atoms: C_8  and  C_9
REMARK    5  A    between atoms: C_9  and  N_10
REMARK    6  A    between atoms: C_11  and  C_13
REMARK                            x       y       z     vdW  Elec       q    Type
REMARK                         _______ _______ _______ _____ _____    ______ ____
ROOT
ATOM      1  C   UNL     1      47.906   4.154  16.372  0.00  0.00    +0.000 A 
ATOM      2  C   UNL     1      48.433   5.438  16.479  0.00  0.00    +0.000 A 
ATOM      3  C   UNL     1      48.309   6.309  15.400  0.00  0.00    +0.000 A 
ATOM      4  C   UNL     1      47.651   5.887  14.242  0.00  0.00    +0.000 A 
ATOM      5  C   UNL     1      47.134   4.598  14.233  0.00  0.00    +0.000 A 
ATOM      6  N   UNL     1      47.251   3.727  15.262  0.00  0.00    +0.000 NA
ENDROOT
BRANCH   1   7
ATOM      7  C   UNL     1      47.999   3.193  17.534  0.00  0.00    +0.000 C 
BRANCH   7  10
ATOM      8  O   UNL     1      49.797   1.622  16.054  0.00  0.00    +0.000 OA
ATOM      9  C   UNL     1      50.197   2.168  17.080  0.00  0.00    +0.000 C 
ATOM     10  N   UNL     1      49.376   2.912  17.883  0.00  0.00    +0.000 N 
ATOM     11  H   UNL     1      49.784   3.551  18.557  0.00  0.00    +0.000 HD
BRANCH   9  12
ATOM     12  C   UNL     1      51.581   2.001  17.544  0.00  0.00    +0.000 A 
ATOM     13  C   UNL     1      52.110   0.731  17.699  0.00  0.00    +0.000 A 
ATOM     14  S   UNL     1      53.717   0.726  18.275  0.00  0.00    +0.000 S 
ATOM     15  C   UNL     1      53.774   2.427  18.290  0.00  0.00    +0.000 A 
ATOM     16  N   UNL     1      54.901   3.089  18.666  0.00  0.00    +0.000 NA
ATOM     17  C   UNL     1      54.812   4.374  18.601  0.00  0.00    +0.000 A 
ATOM     18  N   UNL     1      53.696   5.062  18.198  0.00  0.00    +0.000 N 
ATOM     19  C   UNL     1      52.523   4.437  17.854  0.00  0.00    +0.000 A 
ATOM     20  O   UNL     1      51.519   5.082  17.576  0.00  0.00    +0.000 OA
ATOM     21  C   UNL     1      52.577   2.989  17.885  0.00  0.00    +0.000 A 
ATOM     22  H   UNL     1      53.682   6.071  18.190  0.00  0.00    +0.000 HD
ENDBRANCH   9  12
ENDBRANCH   7  10
ENDBRANCH   1   7
BRANCH   4  23
ATOM     23  C   UNL     1      47.470   6.797  13.063  0.00  0.00    +0.000 C 
BRANCH  23  24
ATOM     24  N   UNL     1      46.720   6.153  12.007  0.00  0.00    +0.000 N 
ATOM     25  C   UNL     1      45.406   6.485  11.759  0.00  0.00    +0.000 C 
ATOM     26  O   UNL     1      44.785   7.261  12.485  0.00  0.00    +0.000 OA
ATOM     27  H   UNL     1      47.245   5.749  11.246  0.00  0.00    +0.000 HD
BRANCH  25  28
ATOM     28  C   UNL     1      44.728   5.731  10.584  0.00  0.00    +0.000 C 
ATOM     29  C   UNL     1      45.257   4.299  10.460  0.00  0.00    +0.000 C 
ATOM     30  C   UNL     1      44.755   3.432  11.611  0.00  0.00    +0.000 C 
ATOM     31  C   UNL     1      43.233   3.460  11.682  0.00  0.00    +0.000 C 
ATOM     32  C   UNL     1      42.653   4.875  11.631  0.00  0.00    +0.000 C 
ATOM     33  N   UNL     1      43.252   5.729  10.615  0.00  0.00    +0.000 NA
ATOM     34  H   UNL     1      42.871   6.671  10.612  0.00  0.00    +0.000 HD
ENDBRANCH  25  28
ENDBRANCH  23  24
ENDBRANCH   4  23
TORSDOF 6
ENDMDL
MODEL 3
REMARK VINA RESULT:    -7.267      3.240      9.064
REMARK INTER + INTRA:         -10.705
REMARK INTER:                  -9.662
REMARK INTRA:                  -1.043
REMARK UNBOUND:                -0.888
REMARK  Name = 
REMARK  6 active torsions:
REMARK  status: ('A' for Active; 'I' for Inactive)
REMARK    1  A    between atoms: C_2  and  C_21
REMARK    2  A    between atoms: N_3  and  C_4
REMARK    3  A    between atoms: C_4  and  C_5
REMARK    4  A    between atoms: C_8  and  C_9
REMARK    5  A    between atoms: C_9  and  N_10
REMARK    6  A    between atoms: C_11  and  C_13
REMARK                            x       y       z     vdW  Elec       q    Type
REMARK                         _______ _______ _______ _____ _____    ______ ____
ROOT
ATOM      1  C   UNL     1      48.156   7.994  13.096  0.00  0.00    +0.000 A 
ATOM      2  C   UNL     1      49.427   7.426  13.086  0.00  0.00    +0.000 A 
ATOM      3  C   UNL     1      50.171   7.420  14.263  0.00  0.00    +0.000 A 
ATOM      4  C   UNL     1      49.628   7.967  15.428  0.00  0.00    +0.000 A 
ATOM      5  C   UNL     1      48.342   8.489  15.351  0.00  0.00    +0.000 A 
ATOM      6  N   UNL     1      47.603   8.519  14.218  0.00  0.00    +0.000 NA
ENDROOT
BRANCH   1   7
ATOM      7  C   UNL     1      47.313   7.993  11.843  0.00  0.00    +0.000 C 
BRANCH   7  10
ATOM      8  O   UNL     1      44.533   7.621  11.682  0.00  0.00    +0.000 OA
ATOM      9  C   UNL     1      45.267   6.644  11.553  0.00  0.00    +0.000 C 
ATOM     10  N   UNL     1      46.628   6.730  11.663  0.00  0.00    +0.000 N 
ATOM     11  H   UNL     1      47.206   5.980  11.296  0.00  0.00    +0.000 HD
BRANCH   9  12
ATOM     12  C   UNL     1      44.717   5.300  11.332  0.00  0.00    +0.000 A 
ATOM     13  C   UNL     1      43.908   4.718  12.291  0.00  0.00    +0.000 A 
ATOM     14  S   UNL     1      43.385   3.145  11.881  0.00  0.00    +0.000 S 
ATOM     15  C   UNL     1      44.187   3.211  10.382  0.00  0.00    +0.000 A 
ATOM     16  N   UNL     1      44.124   2.173   9.505  0.00  0.00    +0.000 NA
ATOM     17  C   UNL     1      44.753   2.372   8.396  0.00  0.00    +0.000 A 
ATOM     18  N   UNL     1      45.445   3.514   8.083  0.00  0.00    +0.000 N 
ATOM     19  C   UNL     1      45.573   4.567   8.955  0.00  0.00    +0.000 A 
ATOM     20  O   UNL     1      46.265   5.540   8.678  0.00  0.00    +0.000 OA
ATOM     21  C   UNL     1      44.862   4.406  10.208  0.00  0.00    +0.000 A 
ATOM     22  H   UNL     1      45.936   3.600   7.206  0.00  0.00    +0.000 HD
ENDBRANCH   9  12
ENDBRANCH   7  10
ENDBRANCH   1   7
BRANCH   4  23
ATOM     23  C   UNL     1      50.379   7.961  16.726  0.00  0.00    +0.000 C 
BRANCH  23  24
ATOM     24  N   UNL     1      49.826   7.000  17.655  0.00  0.00    +0.000 N 
ATOM     25  C   UNL     1      50.239   5.686  17.654  0.00  0.00    +0.000 C 
ATOM     26  O   UNL     1      51.012   5.250  16.802  0.00  0.00    +0.000 OA
ATOM     27  H   UNL     1      49.429   7.358  18.511  0.00  0.00    +0.000 HD
BRANCH  25  28
ATOM     28  C   UNL     1      49.577   4.768  18.716  0.00  0.00    +0.000 C 
ATOM     29  C   UNL     1      48.087   5.085  18.878  0.00  0.00    +0.000 C 
ATOM     30  C   UNL     1      47.297   4.630  17.655  0.00  0.00    +0.000 C 
ATOM     31  C   UNL     1      47.525   3.147  17.388  0.00  0.00    +0.000 C 
ATOM     32  C   UNL     1      49.004   2.754  17.392  0.00  0.00    +0.000 C 
ATOM     33  N   UNL     1      49.769   3.321  18.494  0.00  0.00    +0.000 NA
ATOM     34  H   UNL     1      50.752   3.068  18.466  0.00  0.00    +0.000 HD
ENDBRANCH  25  28
ENDBRANCH  23  24
ENDBRANCH   4  23
TORSDOF 6
ENDMDL
MODEL 4
REMARK VINA RESULT:    -7.251      5.371      7.112
REMARK INTER + INTRA:         -10.683
REMARK INTER:                  -9.820
REMARK INTRA:                  -0.863
REMARK UNBOUND:                -0.888
REMARK  Name = 
REMARK  6 active torsions:
REMARK  status: ('A' for Active; 'I' for Inactive)
REMARK    1  A    between atoms: C_2  and  C_21
REMARK    2  A    between atoms: N_3  and  C_4
REMARK    3  A    between atoms: C_4  and  C_5
REMARK    4  A    between atoms: C_8  and  C_9
REMARK    5  A    between atoms: C_9  and  N_10
REMARK    6  A    between atoms: C_11  and  C_13
REMARK                            x       y       z     vdW  Elec       q    Type
REMARK                         _______ _______ _______ _____ _____    ______ ____
ROOT
ATOM      1  C   UNL     1      49.388   7.482  12.162  0.00  0.00    +0.000 A 
ATOM      2  C   UNL     1      48.281   7.404  11.321  0.00  0.00    +0.000 A 
ATOM      3  C   UNL     1      47.147   6.725  11.761  0.00  0.00    +0.000 A 
ATOM      4  C   UNL     1      47.135   6.152  13.034  0.00  0.00    +0.000 A 
ATOM      5  C   UNL     1      48.274   6.302  13.815  0.00  0.00    +0.000 A 
ATOM      6  N   UNL     1      49.393   6.945  13.408  0.00  0.00    +0.000 NA
ENDROOT
BRANCH   1   7
ATOM      7  C   UNL     1      50.623   8.233  11.726  0.00  0.00    +0.000 C 
BRANCH   7  10
ATOM      8  O   UNL     1      52.357   8.668   9.559  0.00  0.00    +0.000 OA
ATOM      9  C   UNL     1      52.490   7.643  10.224  0.00  0.00    +0.000 C 
ATOM     10  N   UNL     1      51.659   7.333  11.267  0.00  0.00    +0.000 N 
ATOM     11  H   UNL     1      51.950   6.636  11.945  0.00  0.00    +0.000 HD
BRANCH   9  12
ATOM     12  C   UNL     1      53.521   6.650   9.897  0.00  0.00    +0.000 A 
ATOM     13  C   UNL     1      54.500   6.339  10.824  0.00  0.00    +0.000 A 
ATOM     14  S   UNL     1      55.632   5.190  10.264  0.00  0.00    +0.000 S 
ATOM     15  C   UNL     1      54.818   5.034   8.777  0.00  0.00    +0.000 A 
ATOM     16  N   UNL     1      55.258   4.171   7.823  0.00  0.00    +0.000 NA
ATOM     17  C   UNL     1      54.529   4.134   6.759  0.00  0.00    +0.000 A 
ATOM     18  N   UNL     1      53.399   4.885   6.559  0.00  0.00    +0.000 N 
ATOM     19  C   UNL     1      52.945   5.801   7.475  0.00  0.00    +0.000 A 
ATOM     20  O   UNL     1      51.979   6.515   7.233  0.00  0.00    +0.000 OA
ATOM     21  C   UNL     1      53.714   5.864   8.702  0.00  0.00    +0.000 A 
ATOM     22  H   UNL     1      52.883   4.827   5.694  0.00  0.00    +0.000 HD
ENDBRANCH   9  12
ENDBRANCH   7  10
ENDBRANCH   1   7
BRANCH   4  23
ATOM     23  C   UNL     1      45.928   5.434  13.563  0.00  0.00    +0.000 C 
BRANCH  23  24
ATOM     24  N   UNL     1      45.017   5.074  12.500  0.00  0.00    +0.000 N 
ATOM     25  C   UNL     1      44.827   3.759  12.136  0.00  0.00    +0.000 C 
ATOM     26  O   UNL     1      45.496   2.849  12.622  0.00  0.00    +0.000 OA
ATOM     27  H   UNL     1      44.274   5.723  12.286  0.00  0.00    +0.000 HD
BRANCH  25  28
ATOM     28  C   UNL     1      43.805   3.515  10.993  0.00  0.00    +0.000 C 
ATOM     29  C   UNL     1      43.792   4.679   9.997  0.00  0.00    +0.000 C 
ATOM     30  C   UNL     1      45.070   4.699   9.165  0.00  0.00    +0.000 C 
ATOM     31  C   UNL     1      45.273   3.364   8.458  0.00  0.00    +0.000 C 
ATOM     32  C   UNL     1      45.120   2.159   9.389  0.00  0.00    +0.000 C 
ATOM     33  N   UNL     1      43.969   2.233  10.277  0.00  0.00    +0.000 NA
ATOM     34  H   UNL     1      43.898   1.437  10.903  0.00  0.00    +0.000 HD
ENDBRANCH  25  28
ENDBRANCH  23  24
ENDBRANCH   4  23
TORSDOF 6
ENDMDL
MODEL 5
REMARK VINA RESULT:    -6.891      2.711      3.460
REMARK INTER + INTRA:         -10.196
REMARK INTER:                  -9.562
REMARK INTRA:                  -0.634
REMARK UNBOUND:                -0.888
REMARK  Name = 
REMARK  6 active torsions:
REMARK  status: ('A' for Active; 'I' for Inactive)
REMARK    1  A    between atoms: C_2  and  C_21
REMARK    2  A    between atoms: N_3  and  C_4
REMARK    3  A    between atoms: C_4  and  C_5
REMARK    4  A    between atoms: C_8  and  C_9
REMARK    5  A    between atoms: C_9  and  N_10
REMARK    6  A    between atoms: C_11  and  C_13
REMARK                            x       y       z     vdW  Elec       q    Type
REMARK                         _______ _______ _______ _____ _____    ______ ____
ROOT
ATOM      1  C   UNL     1      48.239   5.146  16.096  0.00  0.00    +0.000 A 
ATOM      2  C   UNL     1      47.260   4.502  15.345  0.00  0.00    +0.000 A 
ATOM      3  C   UNL     1      46.957   4.986  14.075  0.00  0.00    +0.000 A 
ATOM      4  C   UNL     1      47.647   6.093  13.574  0.00  0.00    +0.000 A 
ATOM      5  C   UNL     1      48.626   6.657  14.382  0.00  0.00    +0.000 A 
ATOM      6  N   UNL     1      48.931   6.215  15.624  0.00  0.00    +0.000 NA
ENDROOT
BRANCH   1   7
ATOM      7  C   UNL     1      48.610   4.631  17.466  0.00  0.00    +0.000 C 
BRANCH   7  10
ATOM      8  O   UNL     1      50.372   4.858  19.642  0.00  0.00    +0.000 OA
ATOM      9  C   UNL     1      50.758   4.281  18.628  0.00  0.00    +0.000 C 
ATOM     10  N   UNL     1      49.980   4.167  17.508  0.00  0.00    +0.000 N 
ATOM     11  H   UNL     1      50.218   3.475  16.805  0.00  0.00    +0.000 HD
BRANCH   9  12
ATOM     12  C   UNL     1      52.116   3.728  18.535  0.00  0.00    +0.000 A 
ATOM     13  C   UNL     1      53.192   4.454  19.012  0.00  0.00    +0.000 A 
ATOM     14  S   UNL     1      54.695   3.673  18.794  0.00  0.00    +0.000 S 
ATOM     15  C   UNL     1      53.947   2.314  18.095  0.00  0.00    +0.000 A 
ATOM     16  N   UNL     1      54.677   1.238  17.695  0.00  0.00    +0.000 NA
ATOM     17  C   UNL     1      53.977   0.268  17.211  0.00  0.00    +0.000 A 
ATOM     18  N   UNL     1      52.612   0.274  17.086  0.00  0.00    +0.000 N 
ATOM     19  C   UNL     1      51.840   1.355  17.434  0.00  0.00    +0.000 A 
ATOM     20  O   UNL     1      50.631   1.361  17.235  0.00  0.00    +0.000 OA
ATOM     21  C   UNL     1      52.575   2.465  18.009  0.00  0.00    +0.000 A 
ATOM     22  H   UNL     1      52.124  -0.509  16.678  0.00  0.00    +0.000 HD
ENDBRANCH   9  12
ENDBRANCH   7  10
ENDBRANCH   1   7
BRANCH   4  23
ATOM     23  C   UNL     1      47.376   6.635  12.202  0.00  0.00    +0.000 C 
BRANCH  23  24
ATOM     24  N   UNL     1      46.145   6.107  11.656  0.00  0.00    +0.000 N 
ATOM     25  C   UNL     1      44.957   6.794  11.775  0.00  0.00    +0.000 C 
ATOM     26  O   UNL     1      44.870   7.828  12.436  0.00  0.00    +0.000 OA
ATOM     27  H   UNL     1      46.220   5.444  10.899  0.00  0.00    +0.000 HD
BRANCH  25  28
ATOM     28  C   UNL     1      43.718   6.121  11.127  0.00  0.00    +0.000 C 
ATOM     29  C   UNL     1      44.112   4.867  10.339  0.00  0.00    +0.000 C 
ATOM     30  C   UNL     1      44.522   3.739  11.279  0.00  0.00    +0.000 C 
ATOM     31  C   UNL     1      43.412   3.442  12.280  0.00  0.00    +0.000 C 
ATOM     32  C   UNL     1      42.867   4.696  12.966  0.00  0.00    +0.000 C 
ATOM     33  N   UNL     1      42.619   5.811  12.062  0.00  0.00    +0.000 NA
ATOM     34  H   UNL     1      42.279   6.641  12.539  0.00  0.00    +0.000 HD
ENDBRANCH  25  28
ENDBRANCH  23  24
ENDBRANCH   4  23
TORSDOF 6
ENDMDL
MODEL 6
REMARK VINA RESULT:    -6.879      3.542      8.828
REMARK INTER + INTRA:         -10.181
REMARK INTER:                  -9.121
REMARK INTRA:                  -1.060
REMARK UNBOUND:                -0.888
REMARK  Name = 
REMARK  6 active torsions:
REMARK  status: ('A' for Active; 'I' for Inactive)
REMARK    1  A    between atoms: C_2  and  C_21
REMARK    2  A    between atoms: N_3  and  C_4
REMARK    3  A    between atoms: C_4  and  C_5
REMARK    4  A    between atoms: C_8  and  C_9
REMARK    5  A    between atoms: C_9  and  N_10
REMARK    6  A    between atoms: C_11  and  C_13
REMARK                            x       y       z     vdW  Elec       q    Type
REMARK                         _______ _______ _______ _____ _____    ______ ____
ROOT
ATOM      1  C   UNL     1      48.816   8.169  13.198  0.00  0.00    +0.000 A 
ATOM      2  C   UNL     1      50.205   8.124  13.132  0.00  0.00    +0.000 A 
ATOM      3  C   UNL     1      50.926   7.840  14.289  0.00  0.00    +0.000 A 
ATOM      4  C   UNL     1      50.247   7.592  15.484  0.00  0.00    +0.000 A 
ATOM      5  C   UNL     1      48.859   7.633  15.452  0.00  0.00    +0.000 A 
ATOM      6  N   UNL     1      48.135   7.919  14.346  0.00  0.00    +0.000 NA
ENDROOT
BRANCH   1   7
ATOM      7  C   UNL     1      48.003   8.448  11.957  0.00  0.00    +0.000 C 
BRANCH   7  10
ATOM      8  O   UNL     1      45.248   7.906  11.860  0.00  0.00    +0.000 OA
ATOM      9  C   UNL     1      46.029   7.079  11.394  0.00  0.00    +0.000 C 
ATOM     10  N   UNL     1      47.386   7.244  11.441  0.00  0.00    +0.000 N 
ATOM     11  H   UNL     1      47.977   6.691  10.829  0.00  0.00    +0.000 HD
BRANCH   9  12
ATOM     12  C   UNL     1      45.548   5.822  10.807  0.00  0.00    +0.000 A 
ATOM     13  C   UNL     1      45.851   5.512   9.492  0.00  0.00    +0.000 A 
ATOM     14  S   UNL     1      45.184   4.030   8.968  0.00  0.00    +0.000 S 
ATOM     15  C   UNL     1      44.508   3.731  10.500  0.00  0.00    +0.000 A 
ATOM     16  N   UNL     1      43.809   2.591  10.749  0.00  0.00    +0.000 NA
ATOM     17  C   UNL     1      43.379   2.482  11.961  0.00  0.00    +0.000 A 
ATOM     18  N   UNL     1      43.580   3.411  12.949  0.00  0.00    +0.000 N 
ATOM     19  C   UNL     1      44.239   4.595  12.731  0.00  0.00    +0.000 A 
ATOM     20  O   UNL     1      44.332   5.441  13.613  0.00  0.00    +0.000 OA
ATOM     21  C   UNL     1      44.766   4.757  11.391  0.00  0.00    +0.000 A 
ATOM     22  H   UNL     1      43.198   3.277  13.874  0.00  0.00    +0.000 HD
ENDBRANCH   9  12
ENDBRANCH   7  10
ENDBRANCH   1   7
BRANCH   4  23
ATOM     23  C   UNL     1      50.978   7.256  16.750  0.00  0.00    +0.000 C 
BRANCH  23  24
ATOM     24  N   UNL     1      50.169   6.442  17.630  0.00  0.00    +0.000 N 
ATOM     25  C   UNL     1      50.353   5.079  17.713  0.00  0.00    +0.000 C 
ATOM     26  O   UNL     1      51.136   4.484  16.973  0.00  0.00    +0.000 OA
ATOM     27  H   UNL     1      49.741   6.898  18.421  0.00  0.00    +0.000 HD
BRANCH  25  28
ATOM     28  C   UNL     1      49.429   4.331  18.711  0.00  0.00    +0.000 C 
ATOM     29  C   UNL     1      48.051   4.995  18.802  0.00  0.00    +0.000 C 
ATOM     30  C   UNL     1      47.249   4.763  17.525  0.00  0.00    +0.000 C 
ATOM     31  C   UNL     1      47.131   3.273  17.227  0.00  0.00    +0.000 C 
ATOM     32  C   UNL     1      48.470   2.535  17.300  0.00  0.00    +0.000 C 
ATOM     33  N   UNL     1      49.282   2.884  18.457  0.00  0.00    +0.000 NA
ATOM     34  H   UNL     1      50.175   2.402  18.475  0.00  0.00    +0.000 HD
ENDBRANCH  25  28
ENDBRANCH  23  24
ENDBRANCH   4  23
TORSDOF 6
ENDMDL
MODEL 7
REMARK VINA RESULT:    -6.770      3.241      9.372
REMARK INTER + INTRA:         -10.034
REMARK INTER:                  -9.470
REMARK INTRA:                  -0.563
REMARK UNBOUND:                -0.888
REMARK  Name = 
REMARK  6 active torsions:
REMARK  status: ('A' for Active; 'I' for Inactive)
REMARK    1  A    between atoms: C_2  and  C_21
REMARK    2  A    between atoms: N_3  and  C_4
REMARK    3  A    between atoms: C_4  and  C_5
REMARK    4  A    between atoms: C_8  and  C_9
REMARK    5  A    between atoms: C_9  and  N_10
REMARK    6  A    between atoms: C_11  and  C_13
REMARK                            x       y       z     vdW  Elec       q    Type
REMARK                         _______ _______ _______ _____ _____    ______ ____
ROOT
ATOM      1  C   UNL     1      45.779   5.507  11.931  0.00  0.00    +0.000 A 
ATOM      2  C   UNL     1      45.900   4.858  13.156  0.00  0.00    +0.000 A 
ATOM      3  C   UNL     1      46.790   5.362  14.101  0.00  0.00    +0.000 A 
ATOM      4  C   UNL     1      47.530   6.511  13.811  0.00  0.00    +0.000 A 
ATOM      5  C   UNL     1      47.326   7.108  12.573  0.00  0.00    +0.000 A 
ATOM      6  N   UNL     1      46.478   6.632  11.632  0.00  0.00    +0.000 NA
ENDROOT
BRANCH   1   7
ATOM      7  C   UNL     1      44.804   5.001  10.895  0.00  0.00    +0.000 C 
BRANCH   7  10
ATOM      8  O   UNL     1      43.807   2.482  10.153  0.00  0.00    +0.000 OA
ATOM      9  C   UNL     1      44.854   2.875   9.644  0.00  0.00    +0.000 C 
ATOM     10  N   UNL     1      45.431   4.068   9.983  0.00  0.00    +0.000 N 
ATOM     11  H   UNL     1      46.130   4.476   9.370  0.00  0.00    +0.000 HD
BRANCH   9  12
ATOM     12  C   UNL     1      45.588   2.050   8.675  0.00  0.00    +0.000 A 
ATOM     13  C   UNL     1      45.504   0.671   8.737  0.00  0.00    +0.000 A 
ATOM     14  S   UNL     1      46.446  -0.125   7.556  0.00  0.00    +0.000 S 
ATOM     15  C   UNL     1      46.960   1.354   6.892  0.00  0.00    +0.000 A 
ATOM     16  N   UNL     1      47.784   1.390   5.810  0.00  0.00    +0.000 NA
ATOM     17  C   UNL     1      48.069   2.578   5.394  0.00  0.00    +0.000 A 
ATOM     18  N   UNL     1      47.607   3.737   5.963  0.00  0.00    +0.000 N 
ATOM     19  C   UNL     1      46.811   3.749   7.082  0.00  0.00    +0.000 A 
ATOM     20  O   UNL     1      46.482   4.803   7.614  0.00  0.00    +0.000 OA
ATOM     21  C   UNL     1      46.440   2.438   7.576  0.00  0.00    +0.000 A 
ATOM     22  H   UNL     1      47.884   4.638   5.604  0.00  0.00    +0.000 HD
ENDBRANCH   9  12
ENDBRANCH   7  10
ENDBRANCH   1   7
BRANCH   4  23
ATOM     23  C   UNL     1      48.481   7.108  14.805  0.00  0.00    +0.000 C 
BRANCH  23  24
ATOM     24  N   UNL     1      48.368   6.470  16.097  0.00  0.00    +0.000 N 
ATOM     25  C   UNL     1      49.478   5.993  16.759  0.00  0.00    +0.000 C 
ATOM     26  O   UNL     1      50.593   5.993  16.239  0.00  0.00    +0.000 OA
ATOM     27  H   UNL     1      47.560   6.697  16.658  0.00  0.00    +0.000 HD
BRANCH  25  28
ATOM     28  C   UNL     1      49.214   5.348  18.146  0.00  0.00    +0.000 C 
ATOM     29  C   UNL     1      47.714   5.172  18.404  0.00  0.00    +0.000 C 
ATOM     30  C   UNL     1      47.135   4.070  17.523  0.00  0.00    +0.000 C 
ATOM     31  C   UNL     1      47.893   2.763  17.728  0.00  0.00    +0.000 C 
ATOM     32  C   UNL     1      49.412   2.929  17.652  0.00  0.00    +0.000 C 
ATOM     33  N   UNL     1      49.925   4.076  18.386  0.00  0.00    +0.000 NA
ATOM     34  H   UNL     1      50.932   4.183  18.304  0.00  0.00    +0.000 HD
ENDBRANCH  25  28
ENDBRANCH  23  24
ENDBRANCH   4  23
TORSDOF 6
ENDMDL
MODEL 8
REMARK VINA RESULT:    -6.722      2.581      3.313
REMARK INTER + INTRA:          -9.969
REMARK INTER:                  -9.151
REMARK INTRA:                  -0.818
REMARK UNBOUND:                -0.888
REMARK  Name = 
REMARK  6 active torsions:
REMARK  status: ('A' for Active; 'I' for Inactive)
REMARK    1  A    between atoms: C_2  and  C_21
REMARK    2  A    between atoms: N_3  and  C_4
REMARK    3  A    between atoms: C_4  and  C_5
REMARK    4  A    between atoms: C_8  and  C_9
REMARK    5  A    between atoms: C_9  and  N_10
REMARK    6  A    between atoms: C_11  and  C_13
REMARK                            x       y       z     vdW  Elec       q    Type
REMARK                         _______ _______ _______ _____ _____    ______ ____
ROOT
ATOM      1  C   UNL     1      48.063   7.173  12.848  0.00  0.00    +0.000 A 
ATOM      2  C   UNL     1      46.979   7.592  12.083  0.00  0.00    +0.000 A 
ATOM      3  C   UNL     1      45.816   6.826  12.087  0.00  0.00    +0.000 A 
ATOM      4  C   UNL     1      45.753   5.667  12.865  0.00  0.00    +0.000 A 
ATOM      5  C   UNL     1      46.874   5.340  13.618  0.00  0.00    +0.000 A 
ATOM      6  N   UNL     1      48.020   6.059  13.622  0.00  0.00    +0.000 NA
ENDROOT
BRANCH   1   7
ATOM      7  C   UNL     1      49.330   7.995  12.886  0.00  0.00    +0.000 C 
BRANCH   7  10
ATOM      8  O   UNL     1      49.979   8.827  15.489  0.00  0.00    +0.000 OA
ATOM      9  C   UNL     1      50.550   7.843  15.026  0.00  0.00    +0.000 C 
ATOM     10  N   UNL     1      50.326   7.399  13.751  0.00  0.00    +0.000 N 
ATOM     11  H   UNL     1      50.602   6.455  13.497  0.00  0.00    +0.000 HD
BRANCH   9  12
ATOM     12  C   UNL     1      51.563   7.113  15.799  0.00  0.00    +0.000 A 
ATOM     13  C   UNL     1      52.902   7.430  15.657  0.00  0.00    +0.000 A 
ATOM     14  S   UNL     1      53.938   6.461  16.608  0.00  0.00    +0.000 S 
ATOM     15  C   UNL     1      52.622   5.616  17.277  0.00  0.00    +0.000 A 
ATOM     16  N   UNL     1      52.813   4.640  18.206  0.00  0.00    +0.000 NA
ATOM     17  C   UNL     1      51.725   4.105  18.649  0.00  0.00    +0.000 A 
ATOM     18  N   UNL     1      50.461   4.453  18.246  0.00  0.00    +0.000 N 
ATOM     19  C   UNL     1      50.225   5.399  17.279  0.00  0.00    +0.000 A 
ATOM     20  O   UNL     1      49.088   5.630  16.883  0.00  0.00    +0.000 OA
ATOM     21  C   UNL     1      51.413   6.051  16.765  0.00  0.00    +0.000 A 
ATOM     22  H   UNL     1      49.650   3.980  18.615  0.00  0.00    +0.000 HD
ENDBRANCH   9  12
ENDBRANCH   7  10
ENDBRANCH   1   7
BRANCH   4  23
ATOM     23  C   UNL     1      44.514   4.824  12.924  0.00  0.00    +0.000 C 
BRANCH  23  24
ATOM     24  N   UNL     1      44.098   4.400  11.605  0.00  0.00    +0.000 N 
ATOM     25  C   UNL     1      44.701   3.335  10.973  0.00  0.00    +0.000 C 
ATOM     26  O   UNL     1      45.682   2.767  11.453  0.00  0.00    +0.000 OA
ATOM     27  H   UNL     1      43.160   4.636  11.316  0.00  0.00    +0.000 HD
BRANCH  25  28
ATOM     28  C   UNL     1      44.143   2.976   9.570  0.00  0.00    +0.000 C 
ATOM     29  C   UNL     1      44.398   4.101   8.563  0.00  0.00    +0.000 C 
ATOM     30  C   UNL     1      45.879   4.188   8.207  0.00  0.00    +0.000 C 
ATOM     31  C   UNL     1      46.388   2.849   7.687  0.00  0.00    +0.000 C 
ATOM     32  C   UNL     1      46.000   1.669   8.580  0.00  0.00    +0.000 C 
ATOM     33  N   UNL     1      44.614   1.687   9.025  0.00  0.00    +0.000 NA
ATOM     34  H   UNL     1      44.383   0.908   9.635  0.00  0.00    +0.000 HD
ENDBRANCH  25  28
ENDBRANCH  23  24
ENDBRANCH   4  23
TORSDOF 6
ENDMDL
MODEL 9
REMARK VINA RESULT:    -6.420      5.554      8.540
REMARK INTER + INTRA:          -9.561
REMARK INTER:                  -8.770
REMARK INTRA:                  -0.791
REMARK UNBOUND:                -0.888
REMARK  Name = 
REMARK  6 active torsions:
REMARK  status: ('A' for Active; 'I' for Inactive)
REMARK    1  A    between atoms: C_2  and  C_21
REMARK    2  A    between atoms: N_3  and  C_4
REMARK    3  A    between atoms: C_4  and  C_5
REMARK    4  A    between atoms: C_8  and  C_9
REMARK    5  A    between atoms: C_9  and  N_10
REMARK    6  A    between atoms: C_11  and  C_13
REMARK                            x       y       z     vdW  Elec       q    Type
REMARK                         _______ _______ _______ _____ _____    ______ ____
ROOT
ATOM      1  C   UNL     1      47.590   8.376  12.484  0.00  0.00    +0.000 A 
ATOM      2  C   UNL     1      48.550   7.389  12.278  0.00  0.00    +0.000 A 
ATOM      3  C   UNL     1      49.773   7.746  11.718  0.00  0.00    +0.000 A 
ATOM      4  C   UNL     1      50.021   9.080  11.388  0.00  0.00    +0.000 A 
ATOM      5  C   UNL     1      49.015  10.002  11.652  0.00  0.00    +0.000 A 
ATOM      6  N   UNL     1      47.813   9.681  12.183  0.00  0.00    +0.000 NA
ENDROOT
BRANCH   1   7
ATOM      7  C   UNL     1      46.262   8.027  13.113  0.00  0.00    +0.000 C 
BRANCH   7  10
ATOM      8  O   UNL     1      44.229   7.469  11.258  0.00  0.00    +0.000 OA
ATOM      9  C   UNL     1      44.838   6.530  11.765  0.00  0.00    +0.000 C 
ATOM     10  N   UNL     1      45.810   6.712  12.710  0.00  0.00    +0.000 N 
ATOM     11  H   UNL     1      46.461   5.959  12.907  0.00  0.00    +0.000 HD
BRANCH   9  12
ATOM     12  C   UNL     1      44.513   5.138  11.428  0.00  0.00    +0.000 A 
ATOM     13  C   UNL     1      43.729   4.385  12.284  0.00  0.00    +0.000 A 
ATOM     14  S   UNL     1      43.479   2.782  11.749  0.00  0.00    +0.000 S 
ATOM     15  C   UNL     1      44.374   3.060  10.329  0.00  0.00    +0.000 A 
ATOM     16  N   UNL     1      44.533   2.082   9.397  0.00  0.00    +0.000 NA
ATOM     17  C   UNL     1      45.209   2.440   8.357  0.00  0.00    +0.000 A 
ATOM     18  N   UNL     1      45.744   3.688   8.164  0.00  0.00    +0.000 N 
ATOM     19  C   UNL     1      45.647   4.690   9.097  0.00  0.00    +0.000 A 
ATOM     20  O   UNL     1      46.206   5.768   8.931  0.00  0.00    +0.000 OA
ATOM     21  C   UNL     1      44.875   4.348  10.275  0.00  0.00    +0.000 A 
ATOM     22  H   UNL     1      46.282   3.900   7.337  0.00  0.00    +0.000 HD
ENDBRANCH   9  12
ENDBRANCH   7  10
ENDBRANCH   1   7
BRANCH   4  23
ATOM     23  C   UNL     1      51.333   9.518  10.807  0.00  0.00    +0.000 C 
BRANCH  23  24
ATOM     24  N   UNL     1      52.090   8.395  10.300  0.00  0.00    +0.000 N 
ATOM     25  C   UNL     1      53.426   8.517   9.986  0.00  0.00    +0.000 C 
ATOM     26  O   UNL     1      54.004   9.603  10.022  0.00  0.00    +0.000 OA
ATOM     27  H   UNL     1      51.751   7.470  10.519  0.00  0.00    +0.000 HD
BRANCH  25  28
ATOM     28  C   UNL     1      54.120   7.228   9.471  0.00  0.00    +0.000 C 
ATOM     29  C   UNL     1      53.097   6.208   8.961  0.00  0.00    +0.000 C 
ATOM     30  C   UNL     1      52.472   6.673   7.650  0.00  0.00    +0.000 C 
ATOM     31  C   UNL     1      53.549   6.951   6.608  0.00  0.00    +0.000 C 
ATOM     32  C   UNL     1      54.686   7.829   7.135  0.00  0.00    +0.000 C 
ATOM     33  N   UNL     1      55.169   7.450   8.456  0.00  0.00    +0.000 NA
ATOM     34  H   UNL     1      55.907   8.059   8.798  0.00  0.00    +0.000 HD
ENDBRANCH  25  28
ENDBRANCH  23  24
ENDBRANCH   4  23
TORSDOF 6
ENDMDL
