MODEL 1
REMARK VINA RESULT:    -8.383      0.000      0.000
REMARK INTER + INTRA:         -12.808
REMARK INTER:                 -11.814
REMARK INTRA:                  -0.994
REMARK UNBOUND:                -0.994
REMARK  Name = 
REMARK  7 active torsions:
REMARK  status: ('A' for Active; 'I' for Inactive)
REMARK    1  A    between atoms: C_2  and  C_20
REMARK    2  A    between atoms: N_3  and  C_4
REMARK    3  A    between atoms: C_4  and  C_5
REMARK    4  A    between atoms: C_8  and  C_9
REMARK    5  A    between atoms: C_9  and  N_10
REMARK    6  A    between atoms: N_10  and  C_11
REMARK    7  A    between atoms: C_11  and  C_12
REMARK                            x       y       z     vdW  Elec       q    Type
REMARK                         _______ _______ _______ _____ _____    ______ ____
ROOT
ATOM      1  C   UNL     1      46.103   6.905  12.290  0.00  0.00    +0.000 A 
ATOM      2  C   UNL     1      46.464   6.512  11.001  0.00  0.00    +0.000 A 
ATOM      3  C   UNL     1      45.712   5.551  10.322  0.00  0.00    +0.000 A 
ATOM      4  C   UNL     1      44.588   4.938  10.916  0.00  0.00    +0.000 A 
ATOM      5  C   UNL     1      44.295   5.270  12.250  0.00  0.00    +0.000 A 
ATOM      6 CL   UNL     1      43.050   4.502  13.176  0.00  0.00    +0.000 Cl
ATOM      7  C   UNL     1      45.030   6.258  12.915  0.00  0.00    +0.000 A 
ENDROOT
BRANCH   1   8
ATOM      8  C   UNL     1      46.872   7.969  13.021  0.00  0.00    +0.000 C 
BRANCH   8  11
ATOM      9  O   UNL     1      48.994   6.261  13.429  0.00  0.00    +0.000 OA
ATOM     10  C   UNL     1      48.426   6.716  14.415  0.00  0.00    +0.000 C 
ATOM     11  N   UNL     1      47.307   7.507  14.311  0.00  0.00    +0.000 N 
ATOM     12  H   UNL     1      46.991   8.028  15.121  0.00  0.00    +0.000 HD
BRANCH  10  13
ATOM     13  C   UNL     1      48.894   6.418  15.772  0.00  0.00    +0.000 A 
ATOM     14  C   UNL     1      49.661   7.348  16.457  0.00  0.00    +0.000 A 
ATOM     15  S   UNL     1      50.092   6.853  18.029  0.00  0.00    +0.000 S 
ATOM     16  C   UNL     1      49.234   5.392  17.863  0.00  0.00    +0.000 A 
ATOM     17  N   UNL     1      49.157   4.504  18.890  0.00  0.00    +0.000 NA
ATOM     18  C   UNL     1      48.442   3.459  18.638  0.00  0.00    +0.000 A 
ATOM     19  N   UNL     1      47.815   3.210  17.446  0.00  0.00    +0.000 N 
ATOM     20  C   UNL     1      47.901   4.056  16.369  0.00  0.00    +0.000 A 
ATOM     21  O   UNL     1      47.385   3.774  15.289  0.00  0.00    +0.000 OA
ATOM     22  C   UNL     1      48.661   5.266  16.612  0.00  0.00    +0.000 A 
ATOM     23  H   UNL     1      47.291   2.358  17.306  0.00  0.00    +0.000 HD
ENDBRANCH  10  13
ENDBRANCH   8  11
ENDBRANCH   1   8
BRANCH   4  24
ATOM     24  C   UNL     1      43.852   3.921  10.069  0.00  0.00    +0.000 C 
BRANCH  24  25
ATOM     25  N   UNL     1      44.196   2.516  10.254  0.00  0.00    +0.000 NA
ATOM     26  H   UNL     1      43.431   2.060  10.753  0.00  0.00    +0.000 HD
BRANCH  25  27
ATOM     27  C   UNL     1      44.456   1.788   9.005  0.00  0.00    +0.000 C 
BRANCH  27  28
ATOM     28  C   UNL     1      45.885   2.105   8.526  0.00  0.00    +0.000 C 
ATOM     29  C   UNL     1      45.915   3.123   7.395  0.00  0.00    +0.000 C 
ATOM     30  C   UNL     1      47.316   2.960   6.841  0.00  0.00    +0.000 C 
ATOM     31  C   UNL     1      47.680   1.510   7.134  0.00  0.00    +0.000 C 
ATOM     32  N   UNL     1      46.584   0.957   7.935  0.00  0.00    +0.000 NA
ATOM     33  H   UNL     1      46.948   0.344   8.664  0.00  0.00    +0.000 HD
ENDBRANCH  27  28
ENDBRANCH  25  27
ENDBRANCH  24  25
ENDBRANCH   4  24
TORSDOF 7
ENDMDL
MODEL 2
REMARK VINA RESULT:    -7.995      1.541      1.770
REMARK INTER + INTRA:         -12.261
REMARK INTER:                 -11.297
REMARK INTRA:                  -0.964
REMARK UNBOUND:                -0.994
REMARK  Name = 
REMARK  7 active torsions:
REMARK  status: ('A' for Active; 'I' for Inactive)
REMARK    1  A    between atoms: C_2  and  C_20
REMARK    2  A    between atoms: N_3  and  C_4
REMARK    3  A    between atoms: C_4  and  C_5
REMARK    4  A    between atoms: C_8  and  C_9
REMARK    5  A    between atoms: C_9  and  N_10
REMARK    6  A    between atoms: N_10  and  C_11
REMARK    7  A    between atoms: C_11  and  C_12
REMARK                            x       y       z     vdW  Elec       q    Type
REMARK                         _______ _______ _______ _____ _____    ______ ____
ROOT
ATOM      1  C   UNL     1      46.792   5.521  13.130  0.00  0.00    +0.000 A 
ATOM      2  C   UNL     1      46.762   4.149  13.377  0.00  0.00    +0.000 A 
ATOM      3  C   UNL     1      45.743   3.360  12.840  0.00  0.00    +0.000 A 
ATOM      4  C   UNL     1      44.711   3.919  12.058  0.00  0.00    +0.000 A 
ATOM      5  C   UNL     1      44.697   5.315  11.902  0.00  0.00    +0.000 A 
ATOM      6 CL   UNL     1      43.423   6.178  11.106  0.00  0.00    +0.000 Cl
ATOM      7  C   UNL     1      45.739   6.099  12.412  0.00  0.00    +0.000 A 
ENDROOT
BRANCH   1   8
ATOM      8  C   UNL     1      47.904   6.381  13.661  0.00  0.00    +0.000 C 
BRANCH   8  11
ATOM      9  O   UNL     1      50.186   6.889  15.118  0.00  0.00    +0.000 OA
ATOM     10  C   UNL     1      49.154   6.647  15.734  0.00  0.00    +0.000 C 
ATOM     11  N   UNL     1      47.989   6.299  15.094  0.00  0.00    +0.000 N 
ATOM     12  H   UNL     1      47.118   6.310  15.612  0.00  0.00    +0.000 HD
BRANCH  10  13
ATOM     13  C   UNL     1      49.112   6.689  17.198  0.00  0.00    +0.000 A 
ATOM     14  C   UNL     1      49.175   7.908  17.856  0.00  0.00    +0.000 A 
ATOM     15  S   UNL     1      49.081   7.774  19.552  0.00  0.00    +0.000 S 
ATOM     16  C   UNL     1      48.913   6.083  19.464  0.00  0.00    +0.000 A 
ATOM     17  N   UNL     1      48.738   5.337  20.588  0.00  0.00    +0.000 NA
ATOM     18  C   UNL     1      48.585   4.074  20.370  0.00  0.00    +0.000 A 
ATOM     19  N   UNL     1      48.612   3.485  19.133  0.00  0.00    +0.000 N 
ATOM     20  C   UNL     1      48.829   4.192  17.977  0.00  0.00    +0.000 A 
ATOM     21  O   UNL     1      48.918   3.628  16.888  0.00  0.00    +0.000 OA
ATOM     22  C   UNL     1      48.968   5.623  18.162  0.00  0.00    +0.000 A 
ATOM     23  H   UNL     1      48.511   2.485  19.034  0.00  0.00    +0.000 HD
ENDBRANCH  10  13
ENDBRANCH   8  11
ENDBRANCH   1   8
BRANCH   4  24
ATOM     24  C   UNL     1      43.672   2.953  11.527  0.00  0.00    +0.000 C 
BRANCH  24  25
ATOM     25  N   UNL     1      44.015   2.182  10.338  0.00  0.00    +0.000 NA
ATOM     26  H   UNL     1      43.209   1.612  10.079  0.00  0.00    +0.000 HD
BRANCH  25  27
ATOM     27  C   UNL     1      44.419   2.997   9.185  0.00  0.00    +0.000 C 
BRANCH  27  28
ATOM     28  C   UNL     1      45.789   2.508   8.679  0.00  0.00    +0.000 C 
ATOM     29  C   UNL     1      46.166   3.103   7.330  0.00  0.00    +0.000 C 
ATOM     30  C   UNL     1      47.290   2.197   6.870  0.00  0.00    +0.000 C 
ATOM     31  C   UNL     1      46.996   0.854   7.528  0.00  0.00    +0.000 C 
ATOM     32  N   UNL     1      45.847   1.064   8.414  0.00  0.00    +0.000 NA
ATOM     33  H   UNL     1      45.965   0.545   9.283  0.00  0.00    +0.000 HD
ENDBRANCH  27  28
ENDBRANCH  25  27
ENDBRANCH  24  25
ENDBRANCH   4  24
TORSDOF 7
ENDMDL
MODEL 3
REMARK VINA RESULT:    -7.417      2.076      2.509
REMARK INTER + INTRA:         -11.446
REMARK INTER:                 -10.590
REMARK INTRA:                  -0.857
REMARK UNBOUND:                -0.994
REMARK  Name = 
REMARK  7 active torsions:
REMARK  status: ('A' for Active; 'I' for Inactive)
REMARK    1  A    between atoms: C_2  and  C_20
REMARK    2  A    between atoms: N_3  and  C_4
REMARK    3  A    between atoms: C_4  and  C_5
REMARK    4  A    between atoms: C_8  and  C_9
REMARK    5  A    between atoms: C_9  and  N_10
REMARK    6  A    between atoms: N_10  and  C_11
REMARK    7  A    between atoms: C_11  and  C_12
REMARK                            x       y       z     vdW  Elec       q    Type
REMARK                         _______ _______ _______ _____ _____    ______ ____
ROOT
ATOM      1  C   UNL     1      46.722   6.312  12.820  0.00  0.00    +0.000 A 
ATOM      2  C   UNL     1      46.806   6.461  11.436  0.00  0.00    +0.000 A 
ATOM      3  C   UNL     1      45.788   5.975  10.613  0.00  0.00    +0.000 A 
ATOM      4  C   UNL     1      44.665   5.307  11.144  0.00  0.00    +0.000 A 
ATOM      5  C   UNL     1      44.641   5.075  12.530  0.00  0.00    +0.000 A 
ATOM      6 CL   UNL     1      43.418   4.141  13.324  0.00  0.00    +0.000 Cl
ATOM      7  C   UNL     1      45.646   5.594  13.355  0.00  0.00    +0.000 A 
ENDROOT
BRANCH   1   8
ATOM      8  C   UNL     1      47.784   6.867  13.726  0.00  0.00    +0.000 C 
BRANCH   8  11
ATOM      9  O   UNL     1      49.785   7.098  15.605  0.00  0.00    +0.000 OA
ATOM     10  C   UNL     1      48.792   6.444  15.902  0.00  0.00    +0.000 C 
ATOM     11  N   UNL     1      47.783   6.203  15.001  0.00  0.00    +0.000 N 
ATOM     12  H   UNL     1      46.896   5.843  15.336  0.00  0.00    +0.000 HD
BRANCH  10  13
ATOM     13  C   UNL     1      48.637   5.854  17.235  0.00  0.00    +0.000 A 
ATOM     14  C   UNL     1      48.934   4.514  17.436  0.00  0.00    +0.000 A 
ATOM     15  S   UNL     1      48.727   4.005  19.048  0.00  0.00    +0.000 S 
ATOM     16  C   UNL     1      48.270   5.568  19.542  0.00  0.00    +0.000 A 
ATOM     17  N   UNL     1      47.994   5.838  20.846  0.00  0.00    +0.000 NA
ATOM     18  C   UNL     1      47.700   7.073  21.084  0.00  0.00    +0.000 A 
ATOM     19  N   UNL     1      47.636   8.058  20.133  0.00  0.00    +0.000 N 
ATOM     20  C   UNL     1      47.864   7.822  18.801  0.00  0.00    +0.000 A 
ATOM     21  O   UNL     1      47.731   8.710  17.961  0.00  0.00    +0.000 OA
ATOM     22  C   UNL     1      48.237   6.457  18.485  0.00  0.00    +0.000 A 
ATOM     23  H   UNL     1      47.374   9.000  20.383  0.00  0.00    +0.000 HD
ENDBRANCH  10  13
ENDBRANCH   8  11
ENDBRANCH   1   8
BRANCH   4  24
ATOM     24  C   UNL     1      43.626   4.839  10.145  0.00  0.00    +0.000 C 
BRANCH  24  25
ATOM     25  N   UNL     1      44.104   4.339   8.862  0.00  0.00    +0.000 NA
ATOM     26  H   UNL     1      44.885   4.921   8.559  0.00  0.00    +0.000 HD
BRANCH  25  27
ATOM     27  C   UNL     1      44.531   2.933   8.883  0.00  0.00    +0.000 C 
BRANCH  27  28
ATOM     28  C   UNL     1      45.524   2.693   7.731  0.00  0.00    +0.000 C 
ATOM     29  C   UNL     1      46.451   1.514   7.988  0.00  0.00    +0.000 C 
ATOM     30  C   UNL     1      47.552   1.728   6.970  0.00  0.00    +0.000 C 
ATOM     31  C   UNL     1      47.592   3.237   6.758  0.00  0.00    +0.000 C 
ATOM     32  N   UNL     1      46.470   3.796   7.519  0.00  0.00    +0.000 NA
ATOM     33  H   UNL     1      46.027   4.554   7.000  0.00  0.00    +0.000 HD
ENDBRANCH  27  28
ENDBRANCH  25  27
ENDBRANCH  24  25
ENDBRANCH   4  24
TORSDOF 7
ENDMDL
MODEL 4
REMARK VINA RESULT:    -7.291      2.476      3.126
REMARK INTER + INTRA:         -11.268
REMARK INTER:                 -10.490
REMARK INTRA:                  -0.778
REMARK UNBOUND:                -0.994
REMARK  Name = 
REMARK  7 active torsions:
REMARK  status: ('A' for Active; 'I' for Inactive)
REMARK    1  A    between atoms: C_2  and  C_20
REMARK    2  A    between atoms: N_3  and  C_4
REMARK    3  A    between atoms: C_4  and  C_5
REMARK    4  A    between atoms: C_8  and  C_9
REMARK    5  A    between atoms: C_9  and  N_10
REMARK    6  A    between atoms: N_10  and  C_11
REMARK    7  A    between atoms: C_11  and  C_12
REMARK                            x       y       z     vdW  Elec       q    Type
REMARK                         _______ _______ _______ _____ _____    ______ ____
ROOT
ATOM      1  C   UNL     1      46.374   4.322  13.673  0.00  0.00    +0.000 A 
ATOM      2  C   UNL     1      45.896   3.219  12.966  0.00  0.00    +0.000 A 
ATOM      3  C   UNL     1      45.177   3.399  11.783  0.00  0.00    +0.000 A 
ATOM      4  C   UNL     1      44.896   4.686  11.279  0.00  0.00    +0.000 A 
ATOM      5  C   UNL     1      45.296   5.789  12.052  0.00  0.00    +0.000 A 
ATOM      6 CL   UNL     1      44.899   7.429  11.660  0.00  0.00    +0.000 Cl
ATOM      7  C   UNL     1      46.046   5.605  13.219  0.00  0.00    +0.000 A 
ENDROOT
BRANCH   1   8
ATOM      8  C   UNL     1      47.187   4.149  14.924  0.00  0.00    +0.000 C 
BRANCH   8  11
ATOM      9  O   UNL     1      48.832   4.470  17.110  0.00  0.00    +0.000 OA
ATOM     10  C   UNL     1      48.414   5.478  16.554  0.00  0.00    +0.000 C 
ATOM     11  N   UNL     1      47.522   5.418  15.511  0.00  0.00    +0.000 N 
ATOM     12  H   UNL     1      47.361   6.246  14.948  0.00  0.00    +0.000 HD
BRANCH  10  13
ATOM     13  C   UNL     1      48.823   6.817  16.991  0.00  0.00    +0.000 A 
ATOM     14  C   UNL     1      49.630   7.593  16.173  0.00  0.00    +0.000 A 
ATOM     15  S   UNL     1      49.981   9.129  16.821  0.00  0.00    +0.000 S 
ATOM     16  C   UNL     1      49.035   8.823  18.203  0.00  0.00    +0.000 A 
ATOM     17  N   UNL     1      48.870   9.773  19.162  0.00  0.00    +0.000 NA
ATOM     18  C   UNL     1      48.095   9.420  20.133  0.00  0.00    +0.000 A 
ATOM     19  N   UNL     1      47.487   8.196  20.242  0.00  0.00    +0.000 N 
ATOM     20  C   UNL     1      47.659   7.195  19.321  0.00  0.00    +0.000 A 
ATOM     21  O   UNL     1      47.157   6.084  19.479  0.00  0.00    +0.000 OA
ATOM     22  C   UNL     1      48.490   7.554  18.188  0.00  0.00    +0.000 A 
ATOM     23  H   UNL     1      46.913   7.975  21.042  0.00  0.00    +0.000 HD
ENDBRANCH  10  13
ENDBRANCH   8  11
ENDBRANCH   1   8
BRANCH   4  24
ATOM     24  C   UNL     1      44.117   4.744   9.980  0.00  0.00    +0.000 C 
BRANCH  24  25
ATOM     25  N   UNL     1      44.880   4.834   8.742  0.00  0.00    +0.000 NA
ATOM     26  H   UNL     1      45.860   4.996   8.977  0.00  0.00    +0.000 HD
BRANCH  25  27
ATOM     27  C   UNL     1      44.782   3.645   7.884  0.00  0.00    +0.000 C 
BRANCH  27  28
ATOM     28  C   UNL     1      46.199   3.128   7.577  0.00  0.00    +0.000 C 
ATOM     29  C   UNL     1      46.537   3.178   6.094  0.00  0.00    +0.000 C 
ATOM     30  C   UNL     1      47.749   2.274   5.999  0.00  0.00    +0.000 C 
ATOM     31  C   UNL     1      47.574   1.276   7.137  0.00  0.00    +0.000 C 
ATOM     32  N   UNL     1      46.398   1.709   7.898  0.00  0.00    +0.000 NA
ATOM     33  H   UNL     1      46.553   1.585   8.898  0.00  0.00    +0.000 HD
ENDBRANCH  27  28
ENDBRANCH  25  27
ENDBRANCH  24  25
ENDBRANCH   4  24
TORSDOF 7
ENDMDL
MODEL 5
REMARK VINA RESULT:    -7.132      4.582      8.930
REMARK INTER + INTRA:         -11.044
REMARK INTER:                 -10.210
REMARK INTRA:                  -0.835
REMARK UNBOUND:                -0.994
REMARK  Name = 
REMARK  7 active torsions:
REMARK  status: ('A' for Active; 'I' for Inactive)
REMARK    1  A    between atoms: C_2  and  C_20
REMARK    2  A    between atoms: N_3  and  C_4
REMARK    3  A    between atoms: C_4  and  C_5
REMARK    4  A    between atoms: C_8  and  C_9
REMARK    5  A    between atoms: C_9  and  N_10
REMARK    6  A    between atoms: N_10  and  C_11
REMARK    7  A    between atoms: C_11  and  C_12
REMARK                            x       y       z     vdW  Elec       q    Type
REMARK                         _______ _______ _______ _____ _____    ______ ____
ROOT
ATOM      1  C   UNL     1      48.618   3.385  17.059  0.00  0.00    +0.000 A 
ATOM      2  C   UNL     1      49.368   2.213  16.961  0.00  0.00    +0.000 A 
ATOM      3  C   UNL     1      50.721   2.212  17.310  0.00  0.00    +0.000 A 
ATOM      4  C   UNL     1      51.370   3.385  17.747  0.00  0.00    +0.000 A 
ATOM      5  C   UNL     1      50.629   4.579  17.746  0.00  0.00    +0.000 A 
ATOM      6 CL   UNL     1      51.309   6.130  18.106  0.00  0.00    +0.000 Cl
ATOM      7  C   UNL     1      49.265   4.569  17.429  0.00  0.00    +0.000 A 
ENDROOT
BRANCH   1   8
ATOM      8  C   UNL     1      47.152   3.396  16.731  0.00  0.00    +0.000 C 
BRANCH   8  11
ATOM      9  O   UNL     1      47.212   3.118  13.991  0.00  0.00    +0.000 OA
ATOM     10  C   UNL     1      46.818   4.183  14.451  0.00  0.00    +0.000 C 
ATOM     11  N   UNL     1      46.832   4.444  15.800  0.00  0.00    +0.000 N 
ATOM     12  H   UNL     1      46.314   5.239  16.157  0.00  0.00    +0.000 HD
BRANCH  10  13
ATOM     13  C   UNL     1      46.330   5.258  13.581  0.00  0.00    +0.000 A 
ATOM     14  C   UNL     1      47.154   6.333  13.283  0.00  0.00    +0.000 A 
ATOM     15  S   UNL     1      46.440   7.470  12.235  0.00  0.00    +0.000 S 
ATOM     16  C   UNL     1      45.017   6.545  12.112  0.00  0.00    +0.000 A 
ATOM     17  N   UNL     1      43.991   6.940  11.311  0.00  0.00    +0.000 NA
ATOM     18  C   UNL     1      42.992   6.123  11.283  0.00  0.00    +0.000 A 
ATOM     19  N   UNL     1      42.915   4.958  11.999  0.00  0.00    +0.000 N 
ATOM     20  C   UNL     1      43.906   4.541  12.852  0.00  0.00    +0.000 A 
ATOM     21  O   UNL     1      43.780   3.527  13.534  0.00  0.00    +0.000 OA
ATOM     22  C   UNL     1      45.070   5.404  12.890  0.00  0.00    +0.000 A 
ATOM     23  H   UNL     1      42.091   4.376  11.951  0.00  0.00    +0.000 HD
ENDBRANCH  10  13
ENDBRANCH   8  11
ENDBRANCH   1   8
BRANCH   4  24
ATOM     24  C   UNL     1      52.836   3.248  18.106  0.00  0.00    +0.000 C 
BRANCH  24  25
ATOM     25  N   UNL     1      53.225   2.103  18.920  0.00  0.00    +0.000 NA
ATOM     26  H   UNL     1      52.824   1.261  18.506  0.00  0.00    +0.000 HD
BRANCH  25  27
ATOM     27  C   UNL     1      54.677   1.926  19.058  0.00  0.00    +0.000 C 
BRANCH  27  28
ATOM     28  C   UNL     1      55.156   0.881  18.034  0.00  0.00    +0.000 C 
ATOM     29  C   UNL     1      55.651   1.509  16.739  0.00  0.00    +0.000 C 
ATOM     30  C   UNL     1      55.667   0.332  15.785  0.00  0.00    +0.000 C 
ATOM     31  C   UNL     1      54.579  -0.600  16.305  0.00  0.00    +0.000 C 
ATOM     32  N   UNL     1      54.097  -0.020  17.562  0.00  0.00    +0.000 NA
ATOM     33  H   UNL     1      53.917  -0.752  18.248  0.00  0.00    +0.000 HD
ENDBRANCH  27  28
ENDBRANCH  25  27
ENDBRANCH  24  25
ENDBRANCH   4  24
TORSDOF 7
ENDMDL
MODEL 6
REMARK VINA RESULT:    -6.920      2.403      3.171
REMARK INTER + INTRA:         -10.745
REMARK INTER:                 -10.000
REMARK INTRA:                  -0.745
REMARK UNBOUND:                -0.994
REMARK  Name = 
REMARK  7 active torsions:
REMARK  status: ('A' for Active; 'I' for Inactive)
REMARK    1  A    between atoms: C_2  and  C_20
REMARK    2  A    between atoms: N_3  and  C_4
REMARK    3  A    between atoms: C_4  and  C_5
REMARK    4  A    between atoms: C_8  and  C_9
REMARK    5  A    between atoms: C_9  and  N_10
REMARK    6  A    between atoms: N_10  and  C_11
REMARK    7  A    between atoms: C_11  and  C_12
REMARK                            x       y       z     vdW  Elec       q    Type
REMARK                         _______ _______ _______ _____ _____    ______ ____
ROOT
ATOM      1  C   UNL     1      46.364   4.455  13.830  0.00  0.00    +0.000 A 
ATOM      2  C   UNL     1      45.884   3.353  13.123  0.00  0.00    +0.000 A 
ATOM      3  C   UNL     1      45.225   3.531  11.904  0.00  0.00    +0.000 A 
ATOM      4  C   UNL     1      45.008   4.816  11.364  0.00  0.00    +0.000 A 
ATOM      5  C   UNL     1      45.407   5.922  12.134  0.00  0.00    +0.000 A 
ATOM      6 CL   UNL     1      45.079   7.564  11.694  0.00  0.00    +0.000 Cl
ATOM      7  C   UNL     1      46.097   5.738  13.338  0.00  0.00    +0.000 A 
ENDROOT
BRANCH   1   8
ATOM      8  C   UNL     1      47.114   4.282  15.120  0.00  0.00    +0.000 C 
BRANCH   8  11
ATOM      9  O   UNL     1      48.130   4.832  17.621  0.00  0.00    +0.000 OA
ATOM     10  C   UNL     1      48.394   5.609  16.711  0.00  0.00    +0.000 C 
ATOM     11  N   UNL     1      47.863   5.463  15.452  0.00  0.00    +0.000 N 
ATOM     12  H   UNL     1      48.259   5.992  14.683  0.00  0.00    +0.000 HD
BRANCH  10  13
ATOM     13  C   UNL     1      49.275   6.762  16.922  0.00  0.00    +0.000 A 
ATOM     14  C   UNL     1      48.737   8.038  16.989  0.00  0.00    +0.000 A 
ATOM     15  S   UNL     1      49.898   9.253  17.270  0.00  0.00    +0.000 S 
ATOM     16  C   UNL     1      51.156   8.109  17.350  0.00  0.00    +0.000 A 
ATOM     17  N   UNL     1      52.434   8.491  17.618  0.00  0.00    +0.000 NA
ATOM     18  C   UNL     1      53.277   7.516  17.689  0.00  0.00    +0.000 A 
ATOM     19  N   UNL     1      52.964   6.197  17.494  0.00  0.00    +0.000 N 
ATOM     20  C   UNL     1      51.699   5.770  17.179  0.00  0.00    +0.000 A 
ATOM     21  O   UNL     1      51.461   4.588  16.941  0.00  0.00    +0.000 OA
ATOM     22  C   UNL     1      50.703   6.824  17.127  0.00  0.00    +0.000 A 
ATOM     23  H   UNL     1      53.679   5.484  17.538  0.00  0.00    +0.000 HD
ENDBRANCH  10  13
ENDBRANCH   8  11
ENDBRANCH   1   8
BRANCH   4  24
ATOM     24  C   UNL     1      44.291   4.872  10.030  0.00  0.00    +0.000 C 
BRANCH  24  25
ATOM     25  N   UNL     1      45.111   4.900   8.826  0.00  0.00    +0.000 NA
ATOM     26  H   UNL     1      46.092   4.954   9.104  0.00  0.00    +0.000 HD
BRANCH  25  27
ATOM     27  C   UNL     1      44.926   3.742   7.941  0.00  0.00    +0.000 C 
BRANCH  27  28
ATOM     28  C   UNL     1      46.301   3.129   7.620  0.00  0.00    +0.000 C 
ATOM     29  C   UNL     1      46.635   3.173   6.136  0.00  0.00    +0.000 C 
ATOM     30  C   UNL     1      47.779   2.185   6.024  0.00  0.00    +0.000 C 
ATOM     31  C   UNL     1      47.539   1.188   7.151  0.00  0.00    +0.000 C 
ATOM     32  N   UNL     1      46.399   1.695   7.923  0.00  0.00    +0.000 NA
ATOM     33  H   UNL     1      46.549   1.548   8.920  0.00  0.00    +0.000 HD
ENDBRANCH  27  28
ENDBRANCH  25  27
ENDBRANCH  24  25
ENDBRANCH   4  24
TORSDOF 7
ENDMDL
MODEL 7
REMARK VINA RESULT:    -6.886      2.383      3.284
REMARK INTER + INTRA:         -10.698
REMARK INTER:                  -9.156
REMARK INTRA:                  -1.541
REMARK UNBOUND:                -0.994
REMARK  Name = 
REMARK  7 active torsions:
REMARK  status: ('A' for Active; 'I' for Inactive)
REMARK    1  A    between atoms: C_2  and  C_20
REMARK    2  A    between atoms: N_3  and  C_4
REMARK    3  A    between atoms: C_4  and  C_5
REMARK    4  A    between atoms: C_8  and  C_9
REMARK    5  A    between atoms: C_9  and  N_10
REMARK    6  A    between atoms: N_10  and  C_11
REMARK    7  A    between atoms: C_11  and  C_12
REMARK                            x       y       z     vdW  Elec       q    Type
REMARK                         _______ _______ _______ _____ _____    ______ ____
ROOT
ATOM      1  C   UNL     1      47.758   7.916  12.795  0.00  0.00    +0.000 A 
ATOM      2  C   UNL     1      46.751   8.770  13.246  0.00  0.00    +0.000 A 
ATOM      3  C   UNL     1      45.454   8.657  12.738  0.00  0.00    +0.000 A 
ATOM      4  C   UNL     1      45.128   7.703  11.752  0.00  0.00    +0.000 A 
ATOM      5  C   UNL     1      46.173   6.918  11.235  0.00  0.00    +0.000 A 
ATOM      6 CL   UNL     1      45.978   5.811   9.917  0.00  0.00    +0.000 Cl
ATOM      7  C   UNL     1      47.463   7.010  11.770  0.00  0.00    +0.000 A 
ENDROOT
BRANCH   1   8
ATOM      8  C   UNL     1      49.148   7.992  13.360  0.00  0.00    +0.000 C 
BRANCH   8  11
ATOM      9  O   UNL     1      48.990   8.667  16.025  0.00  0.00    +0.000 OA
ATOM     10  C   UNL     1      49.148   7.486  15.741  0.00  0.00    +0.000 C 
ATOM     11  N   UNL     1      49.322   7.065  14.445  0.00  0.00    +0.000 N 
ATOM     12  H   UNL     1      49.243   6.078  14.229  0.00  0.00    +0.000 HD
BRANCH  10  13
ATOM     13  C   UNL     1      49.187   6.450  16.778  0.00  0.00    +0.000 A 
ATOM     14  C   UNL     1      49.927   6.657  17.933  0.00  0.00    +0.000 A 
ATOM     15  S   UNL     1      49.836   5.367  19.041  0.00  0.00    +0.000 S 
ATOM     16  C   UNL     1      48.772   4.502  18.032  0.00  0.00    +0.000 A 
ATOM     17  N   UNL     1      48.260   3.303  18.418  0.00  0.00    +0.000 NA
ATOM     18  C   UNL     1      47.437   2.778  17.573  0.00  0.00    +0.000 A 
ATOM     19  N   UNL     1      47.096   3.333  16.367  0.00  0.00    +0.000 N 
ATOM     20  C   UNL     1      47.620   4.519  15.919  0.00  0.00    +0.000 A 
ATOM     21  O   UNL     1      47.349   4.959  14.803  0.00  0.00    +0.000 OA
ATOM     22  C   UNL     1      48.522   5.170  16.849  0.00  0.00    +0.000 A 
ATOM     23  H   UNL     1      46.464   2.857  15.740  0.00  0.00    +0.000 HD
ENDBRANCH  10  13
ENDBRANCH   8  11
ENDBRANCH   1   8
BRANCH   4  24
ATOM     24  C   UNL     1      43.684   7.677  11.295  0.00  0.00    +0.000 C 
BRANCH  24  25
ATOM     25  N   UNL     1      43.144   6.400  10.845  0.00  0.00    +0.000 NA
ATOM     26  H   UNL     1      43.900   5.859  10.426  0.00  0.00    +0.000 HD
BRANCH  25  27
ATOM     27  C   UNL     1      42.513   5.603  11.906  0.00  0.00    +0.000 C 
BRANCH  27  28
ATOM     28  C   UNL     1      43.156   4.204  11.934  0.00  0.00    +0.000 C 
ATOM     29  C   UNL     1      44.492   4.185  12.662  0.00  0.00    +0.000 C 
ATOM     30  C   UNL     1      45.096   2.870  12.213  0.00  0.00    +0.000 C 
ATOM     31  C   UNL     1      44.501   2.625  10.832  0.00  0.00    +0.000 C 
ATOM     32  N   UNL     1      43.514   3.686  10.607  0.00  0.00    +0.000 NA
ATOM     33  H   UNL     1      42.691   3.314  10.134  0.00  0.00    +0.000 HD
ENDBRANCH  27  28
ENDBRANCH  25  27
ENDBRANCH  24  25
ENDBRANCH   4  24
TORSDOF 7
ENDMDL
MODEL 8
REMARK VINA RESULT:    -6.804      3.547      8.367
REMARK INTER + INTRA:         -10.583
REMARK INTER:                  -9.497
REMARK INTRA:                  -1.086
REMARK UNBOUND:                -0.994
REMARK  Name = 
REMARK  7 active torsions:
REMARK  status: ('A' for Active; 'I' for Inactive)
REMARK    1  A    between atoms: C_2  and  C_20
REMARK    2  A    between atoms: N_3  and  C_4
REMARK    3  A    between atoms: C_4  and  C_5
REMARK    4  A    between atoms: C_8  and  C_9
REMARK    5  A    between atoms: C_9  and  N_10
REMARK    6  A    between atoms: N_10  and  C_11
REMARK    7  A    between atoms: C_11  and  C_12
REMARK                            x       y       z     vdW  Elec       q    Type
REMARK                         _______ _______ _______ _____ _____    ______ ____
ROOT
ATOM      1  C   UNL     1      48.713   6.456  15.502  0.00  0.00    +0.000 A 
ATOM      2  C   UNL     1      49.780   6.885  16.292  0.00  0.00    +0.000 A 
ATOM      3  C   UNL     1      50.174   6.139  17.406  0.00  0.00    +0.000 A 
ATOM      4  C   UNL     1      49.503   4.956  17.777  0.00  0.00    +0.000 A 
ATOM      5  C   UNL     1      48.368   4.590  17.032  0.00  0.00    +0.000 A 
ATOM      6 CL   UNL     1      47.341   3.258  17.441  0.00  0.00    +0.000 Cl
ATOM      7  C   UNL     1      47.998   5.320  15.896  0.00  0.00    +0.000 A 
ENDROOT
BRANCH   1   8
ATOM      8  C   UNL     1      48.302   7.220  14.274  0.00  0.00    +0.000 C 
BRANCH   8  11
ATOM      9  O   UNL     1      47.451   7.338  11.657  0.00  0.00    +0.000 OA
ATOM     10  C   UNL     1      46.692   6.848  12.486  0.00  0.00    +0.000 C 
ATOM     11  N   UNL     1      46.995   6.824  13.826  0.00  0.00    +0.000 N 
ATOM     12  H   UNL     1      46.450   6.235  14.446  0.00  0.00    +0.000 HD
BRANCH  10  13
ATOM     13  C   UNL     1      45.398   6.282  12.095  0.00  0.00    +0.000 A 
ATOM     14  C   UNL     1      44.433   7.096  11.522  0.00  0.00    +0.000 A 
ATOM     15  S   UNL     1      43.004   6.269  11.102  0.00  0.00    +0.000 S 
ATOM     16  C   UNL     1      43.641   4.784  11.637  0.00  0.00    +0.000 A 
ATOM     17  N   UNL     1      42.929   3.632  11.515  0.00  0.00    +0.000 NA
ATOM     18  C   UNL     1      43.549   2.576  11.925  0.00  0.00    +0.000 A 
ATOM     19  N   UNL     1      44.809   2.571  12.464  0.00  0.00    +0.000 N 
ATOM     20  C   UNL     1      45.547   3.713  12.645  0.00  0.00    +0.000 A 
ATOM     21  O   UNL     1      46.646   3.686  13.195  0.00  0.00    +0.000 OA
ATOM     22  C   UNL     1      44.910   4.924  12.164  0.00  0.00    +0.000 A 
ATOM     23  H   UNL     1      45.228   1.711  12.789  0.00  0.00    +0.000 HD
ENDBRANCH  10  13
ENDBRANCH   8  11
ENDBRANCH   1   8
BRANCH   4  24
ATOM     24  C   UNL     1      50.036   4.236  18.998  0.00  0.00    +0.000 C 
BRANCH  24  25
ATOM     25  N   UNL     1      51.364   3.643  18.904  0.00  0.00    +0.000 NA
ATOM     26  H   UNL     1      51.542   3.113  19.758  0.00  0.00    +0.000 HD
BRANCH  25  27
ATOM     27  C   UNL     1      51.552   2.762  17.744  0.00  0.00    +0.000 C 
BRANCH  27  28
ATOM     28  C   UNL     1      52.958   2.138  17.809  0.00  0.00    +0.000 C 
ATOM     29  C   UNL     1      52.966   0.662  17.439  0.00  0.00    +0.000 C 
ATOM     30  C   UNL     1      54.311   0.196  17.959  0.00  0.00    +0.000 C 
ATOM     31  C   UNL     1      54.610   1.121  19.133  0.00  0.00    +0.000 C 
ATOM     32  N   UNL     1      53.544   2.128  19.155  0.00  0.00    +0.000 NA
ATOM     33  H   UNL     1      53.923   3.045  19.388  0.00  0.00    +0.000 HD
ENDBRANCH  27  28
ENDBRANCH  25  27
ENDBRANCH  24  25
ENDBRANCH   4  24
TORSDOF 7
ENDMDL
MODEL 9
REMARK VINA RESULT:    -6.611      3.410      8.732
REMARK INTER + INTRA:         -10.310
REMARK INTER:                  -8.901
REMARK INTRA:                  -1.409
REMARK UNBOUND:                -0.994
REMARK  Name = 
REMARK  7 active torsions:
REMARK  status: ('A' for Active; 'I' for Inactive)
REMARK    1  A    between atoms: C_2  and  C_20
REMARK    2  A    between atoms: N_3  and  C_4
REMARK    3  A    between atoms: C_4  and  C_5
REMARK    4  A    between atoms: C_8  and  C_9
REMARK    5  A    between atoms: C_9  and  N_10
REMARK    6  A    between atoms: N_10  and  C_11
REMARK    7  A    between atoms: C_11  and  C_12
REMARK                            x       y       z     vdW  Elec       q    Type
REMARK                         _______ _______ _______ _____ _____    ______ ____
ROOT
ATOM      1  C   UNL     1      48.872   6.648  15.437  0.00  0.00    +0.000 A 
ATOM      2  C   UNL     1      49.983   6.937  16.229  0.00  0.00    +0.000 A 
ATOM      3  C   UNL     1      50.342   6.084  17.275  0.00  0.00    +0.000 A 
ATOM      4  C   UNL     1      49.592   4.928  17.575  0.00  0.00    +0.000 A 
ATOM      5  C   UNL     1      48.420   4.702  16.833  0.00  0.00    +0.000 A 
ATOM      6 CL   UNL     1      47.305   3.420  17.170  0.00  0.00    +0.000 Cl
ATOM      7  C   UNL     1      48.082   5.540  15.764  0.00  0.00    +0.000 A 
ENDROOT
BRANCH   1   8
ATOM      8  C   UNL     1      48.495   7.529  14.279  0.00  0.00    +0.000 C 
BRANCH   8  11
ATOM      9  O   UNL     1      47.934   6.889  11.659  0.00  0.00    +0.000 OA
ATOM     10  C   UNL     1      47.020   6.827  12.473  0.00  0.00    +0.000 C 
ATOM     11  N   UNL     1      47.184   7.208  13.783  0.00  0.00    +0.000 N 
ATOM     12  H   UNL     1      46.480   6.951  14.466  0.00  0.00    +0.000 HD
BRANCH  10  13
ATOM     13  C   UNL     1      45.684   6.365  12.087  0.00  0.00    +0.000 A 
ATOM     14  C   UNL     1      44.797   7.244  11.485  0.00  0.00    +0.000 A 
ATOM     15  S   UNL     1      43.304   6.533  11.074  0.00  0.00    +0.000 S 
ATOM     16  C   UNL     1      43.806   5.013  11.654  0.00  0.00    +0.000 A 
ATOM     17  N   UNL     1      42.997   3.925  11.557  0.00  0.00    +0.000 NA
ATOM     18  C   UNL     1      43.520   2.830  12.000  0.00  0.00    +0.000 A 
ATOM     19  N   UNL     1      44.772   2.730  12.550  0.00  0.00    +0.000 N 
ATOM     20  C   UNL     1      45.605   3.808  12.706  0.00  0.00    +0.000 A 
ATOM     21  O   UNL     1      46.694   3.701  13.266  0.00  0.00    +0.000 OA
ATOM     22  C   UNL     1      45.079   5.056  12.188  0.00  0.00    +0.000 A 
ATOM     23  H   UNL     1      45.112   1.846  12.901  0.00  0.00    +0.000 HD
ENDBRANCH  10  13
ENDBRANCH   8  11
ENDBRANCH   1   8
BRANCH   4  24
ATOM     24  C   UNL     1      50.094   4.081  18.726  0.00  0.00    +0.000 C 
BRANCH  24  25
ATOM     25  N   UNL     1      49.305   4.074  19.951  0.00  0.00    +0.000 NA
ATOM     26  H   UNL     1      49.186   3.107  20.254  0.00  0.00    +0.000 HD
BRANCH  25  27
ATOM     27  C   UNL     1      49.889   4.854  21.051  0.00  0.00    +0.000 C 
BRANCH  27  28
ATOM     28  C   UNL     1      49.174   6.215  21.139  0.00  0.00    +0.000 C 
ATOM     29  C   UNL     1      47.827   6.219  20.430  0.00  0.00    +0.000 C 
ATOM     30  C   UNL     1      47.529   7.699  20.295  0.00  0.00    +0.000 C 
ATOM     31  C   UNL     1      48.898   8.364  20.232  0.00  0.00    +0.000 C 
ATOM     32  N   UNL     1      49.888   7.307  20.465  0.00  0.00    +0.000 NA
ATOM     33  H   UNL     1      50.649   7.652  21.050  0.00  0.00    +0.000 HD
ENDBRANCH  27  28
ENDBRANCH  25  27
ENDBRANCH  24  25
ENDBRANCH   4  24
TORSDOF 7
ENDMDL
