MODEL 1
REMARK VINA RESULT:    -8.883      0.000      0.000
REMARK INTER + INTRA:         -12.388
REMARK INTER:                 -11.480
REMARK INTRA:                  -0.908
REMARK UNBOUND:                -0.908
REMARK  Name = 
REMARK  5 active torsions:
REMARK  status: ('A' for Active; 'I' for Inactive)
REMARK    1  A    between atoms: C_2  and  C_4
REMARK    2  A    between atoms: C_7  and  N_8
REMARK    3  A    between atoms: N_8  and  C_9
REMARK    4  A    between atoms: C_9  and  C_10
REMARK    5  A    between atoms: C_14  and  C_15
REMARK                            x       y       z     vdW  Elec       q    Type
REMARK                         _______ _______ _______ _____ _____    ______ ____
ROOT
ATOM      1  C   UNL     1      43.504   4.722  11.281  0.00  0.00    +0.000 C 
ENDROOT
BRANCH   1   2
ATOM      2  C   UNL     1      44.730   4.990  12.105  0.00  0.00    +0.000 A 
ATOM      3  C   UNL     1      45.041   4.188  13.194  0.00  0.00    +0.000 A 
ATOM      4  N   UNL     1      46.142   4.346  13.954  0.00  0.00    +0.000 NA
ATOM      5  C   UNL     1      46.979   5.360  13.611  0.00  0.00    +0.000 A 
ATOM      6  C   UNL     1      46.793   6.236  12.539  0.00  0.00    +0.000 A 
ATOM      7  C   UNL     1      45.633   6.014  11.777  0.00  0.00    +0.000 A 
BRANCH   6   8
ATOM      8  C   UNL     1      47.743   7.330  12.233  0.00  0.00    +0.000 A 
ATOM      9  C   UNL     1      47.308   8.666  12.109  0.00  0.00    +0.000 A 
ATOM     10  C   UNL     1      48.200   9.710  11.834  0.00  0.00    +0.000 A 
ATOM     11  C   UNL     1      49.554   9.443  11.686  0.00  0.00    +0.000 A 
ATOM     12  C   UNL     1      50.003   8.135  11.806  0.00  0.00    +0.000 A 
ATOM     13  F   UNL     1      51.309   7.873  11.668  0.00  0.00    +0.000 F 
ATOM     14  C   UNL     1      49.119   7.090  12.068  0.00  0.00    +0.000 A 
ENDBRANCH   6   8
ENDBRANCH   1   2
BRANCH   1  15
ATOM     15  N   UNL     1      43.771   4.932   9.864  0.00  0.00    +0.000 N 
ATOM     16  H   UNL     1      42.963   5.244   9.328  0.00  0.00    +0.000 HD
BRANCH  15  20
ATOM     17  C   UNL     1      46.348   2.270   7.834  0.00  0.00    +0.000 A 
ATOM     18  C   UNL     1      45.397   1.764   8.720  0.00  0.00    +0.000 A 
ATOM     19  C   UNL     1      44.526   2.635   9.384  0.00  0.00    +0.000 A 
ATOM     20  C   UNL     1      44.559   4.018   9.160  0.00  0.00    +0.000 A 
ATOM     21  C   UNL     1      45.532   4.510   8.279  0.00  0.00    +0.000 A 
ATOM     22  C   UNL     1      46.423   3.649   7.623  0.00  0.00    +0.000 A 
BRANCH  17  24
ATOM     23  N   UNL     1      48.384   1.979   6.530  0.00  0.00    +0.000 N 
ATOM     24  C   UNL     1      47.318   1.382   7.145  0.00  0.00    +0.000 C 
ATOM     25  O   UNL     1      47.192   0.164   7.148  0.00  0.00    +0.000 OA
ATOM     26  H   UNL     1      49.086   1.359   6.149  0.00  0.00    +0.000 HD
ATOM     27  H   UNL     1      48.652   2.935   6.720  0.00  0.00    +0.000 HD
ENDBRANCH  17  24
ENDBRANCH  15  20
ENDBRANCH   1  15
TORSDOF 5
ENDMDL
MODEL 2
REMARK VINA RESULT:    -8.778      1.052      1.548
REMARK INTER + INTRA:         -12.251
REMARK INTER:                 -11.363
REMARK INTRA:                  -0.888
REMARK UNBOUND:                -0.908
REMARK  Name = 
REMARK  5 active torsions:
REMARK  status: ('A' for Active; 'I' for Inactive)
REMARK    1  A    between atoms: C_2  and  C_4
REMARK    2  A    between atoms: C_7  and  N_8
REMARK    3  A    between atoms: N_8  and  C_9
REMARK    4  A    between atoms: C_9  and  C_10
REMARK    5  A    between atoms: C_14  and  C_15
REMARK                            x       y       z     vdW  Elec       q    Type
REMARK                         _______ _______ _______ _____ _____    ______ ____
ROOT
ATOM      1  C   UNL     1      43.803   5.532  10.981  0.00  0.00    +0.000 C 
ENDROOT
BRANCH   1   2
ATOM      2  C   UNL     1      44.923   5.401  11.972  0.00  0.00    +0.000 A 
ATOM      3  C   UNL     1      44.883   4.429  12.962  0.00  0.00    +0.000 A 
ATOM      4  N   UNL     1      45.867   4.231  13.859  0.00  0.00    +0.000 NA
ATOM      5  C   UNL     1      46.950   5.045  13.767  0.00  0.00    +0.000 A 
ATOM      6  C   UNL     1      47.125   6.057  12.819  0.00  0.00    +0.000 A 
ATOM      7  C   UNL     1      46.070   6.209  11.903  0.00  0.00    +0.000 A 
BRANCH   6   8
ATOM      8  C   UNL     1      48.329   6.917  12.788  0.00  0.00    +0.000 A 
ATOM      9  C   UNL     1      48.710   7.605  11.617  0.00  0.00    +0.000 A 
ATOM     10  C   UNL     1      49.839   8.432  11.580  0.00  0.00    +0.000 A 
ATOM     11  C   UNL     1      50.612   8.600  12.722  0.00  0.00    +0.000 A 
ATOM     12  C   UNL     1      50.254   7.934  13.885  0.00  0.00    +0.000 A 
ATOM     13  F   UNL     1      50.992   8.096  14.990  0.00  0.00    +0.000 F 
ATOM     14  C   UNL     1      49.137   7.100  13.925  0.00  0.00    +0.000 A 
ENDBRANCH   6   8
ENDBRANCH   1   2
BRANCH   1  15
ATOM     15  N   UNL     1      43.575   4.275  10.281  0.00  0.00    +0.000 N 
ATOM     16  H   UNL     1      43.092   3.569  10.835  0.00  0.00    +0.000 HD
BRANCH  15  20
ATOM     17  C   UNL     1      46.455   2.489   7.757  0.00  0.00    +0.000 A 
ATOM     18  C   UNL     1      46.275   3.872   7.724  0.00  0.00    +0.000 A 
ATOM     19  C   UNL     1      45.338   4.477   8.569  0.00  0.00    +0.000 A 
ATOM     20  C   UNL     1      44.583   3.728   9.482  0.00  0.00    +0.000 A 
ATOM     21  C   UNL     1      44.764   2.338   9.489  0.00  0.00    +0.000 A 
ATOM     22  C   UNL     1      45.686   1.719   8.633  0.00  0.00    +0.000 A 
BRANCH  17  24
ATOM     23  N   UNL     1      48.480   2.534   6.405  0.00  0.00    +0.000 N 
ATOM     24  C   UNL     1      47.408   1.808   6.844  0.00  0.00    +0.000 C 
ATOM     25  O   UNL     1      47.262   0.636   6.519  0.00  0.00    +0.000 OA
ATOM     26  H   UNL     1      49.170   2.031   5.864  0.00  0.00    +0.000 HD
ATOM     27  H   UNL     1      48.764   3.399   6.844  0.00  0.00    +0.000 HD
ENDBRANCH  17  24
ENDBRANCH  15  20
ENDBRANCH   1  15
TORSDOF 5
ENDMDL
MODEL 3
REMARK VINA RESULT:    -8.606      2.580      3.699
REMARK INTER + INTRA:         -12.029
REMARK INTER:                 -11.327
REMARK INTRA:                  -0.702
REMARK UNBOUND:                -0.908
REMARK  Name = 
REMARK  5 active torsions:
REMARK  status: ('A' for Active; 'I' for Inactive)
REMARK    1  A    between atoms: C_2  and  C_4
REMARK    2  A    between atoms: C_7  and  N_8
REMARK    3  A    between atoms: N_8  and  C_9
REMARK    4  A    between atoms: C_9  and  C_10
REMARK    5  A    between atoms: C_14  and  C_15
REMARK                            x       y       z     vdW  Elec       q    Type
REMARK                         _______ _______ _______ _____ _____    ______ ____
ROOT
ATOM      1  C   UNL     1      43.919   4.778  11.470  0.00  0.00    +0.000 C 
ENDROOT
BRANCH   1   2
ATOM      2  C   UNL     1      45.160   5.407  12.035  0.00  0.00    +0.000 A 
ATOM      3  C   UNL     1      45.770   6.475  11.391  0.00  0.00    +0.000 A 
ATOM      4  N   UNL     1      46.862   7.110  11.860  0.00  0.00    +0.000 NA
ATOM      5  C   UNL     1      47.375   6.657  13.033  0.00  0.00    +0.000 A 
ATOM      6  C   UNL     1      46.860   5.600  13.787  0.00  0.00    +0.000 A 
ATOM      7  C   UNL     1      45.715   4.983  13.254  0.00  0.00    +0.000 A 
BRANCH   6   8
ATOM      8  C   UNL     1      47.483   5.150  15.053  0.00  0.00    +0.000 A 
ATOM      9  C   UNL     1      48.497   5.904  15.679  0.00  0.00    +0.000 A 
ATOM     10  C   UNL     1      49.083   5.495  16.884  0.00  0.00    +0.000 A 
ATOM     11  C   UNL     1      48.660   4.324  17.498  0.00  0.00    +0.000 A 
ATOM     12  C   UNL     1      47.662   3.569  16.899  0.00  0.00    +0.000 A 
ATOM     13  F   UNL     1      47.246   2.441  17.489  0.00  0.00    +0.000 F 
ATOM     14  C   UNL     1      47.082   3.964  15.694  0.00  0.00    +0.000 A 
ENDBRANCH   6   8
ENDBRANCH   1   2
BRANCH   1  15
ATOM     15  N   UNL     1      43.905   4.868  10.016  0.00  0.00    +0.000 N 
ATOM     16  H   UNL     1      42.982   5.029   9.615  0.00  0.00    +0.000 HD
BRANCH  15  20
ATOM     17  C   UNL     1      46.415   2.289   7.802  0.00  0.00    +0.000 A 
ATOM     18  C   UNL     1      45.525   1.751   8.731  0.00  0.00    +0.000 A 
ATOM     19  C   UNL     1      44.675   2.594   9.457  0.00  0.00    +0.000 A 
ATOM     20  C   UNL     1      44.670   3.980   9.254  0.00  0.00    +0.000 A 
ATOM     21  C   UNL     1      45.583   4.506   8.329  0.00  0.00    +0.000 A 
ATOM     22  C   UNL     1      46.453   3.673   7.611  0.00  0.00    +0.000 A 
BRANCH  17  24
ATOM     23  N   UNL     1      48.495   2.027   6.563  0.00  0.00    +0.000 N 
ATOM     24  C   UNL     1      47.363   1.431   7.046  0.00  0.00    +0.000 C 
ATOM     25  O   UNL     1      47.160   0.235   6.884  0.00  0.00    +0.000 OA
ATOM     26  H   UNL     1      49.176   1.414   6.135  0.00  0.00    +0.000 HD
ATOM     27  H   UNL     1      48.812   2.930   6.888  0.00  0.00    +0.000 HD
ENDBRANCH  17  24
ENDBRANCH  15  20
ENDBRANCH   1  15
TORSDOF 5
ENDMDL
MODEL 4
REMARK VINA RESULT:    -8.521      3.444      6.666
REMARK INTER + INTRA:         -11.920
REMARK INTER:                 -10.996
REMARK INTRA:                  -0.924
REMARK UNBOUND:                -0.908
REMARK  Name = 
REMARK  5 active torsions:
REMARK  status: ('A' for Active; 'I' for Inactive)
REMARK    1  A    between atoms: C_2  and  C_4
REMARK    2  A    between atoms: C_7  and  N_8
REMARK    3  A    between atoms: N_8  and  C_9
REMARK    4  A    between atoms: C_9  and  C_10
REMARK    5  A    between atoms: C_14  and  C_15
REMARK                            x       y       z     vdW  Elec       q    Type
REMARK                         _______ _______ _______ _____ _____    ______ ____
ROOT
ATOM      1  C   UNL     1      43.521   6.433  11.389  0.00  0.00    +0.000 C 
ENDROOT
BRANCH   1   2
ATOM      2  C   UNL     1      43.718   4.980  11.063  0.00  0.00    +0.000 A 
ATOM      3  C   UNL     1      43.065   3.995  11.791  0.00  0.00    +0.000 A 
ATOM      4  N   UNL     1      43.166   2.678  11.531  0.00  0.00    +0.000 NA
ATOM      5  C   UNL     1      43.962   2.321  10.490  0.00  0.00    +0.000 A 
ATOM      6  C   UNL     1      44.671   3.204   9.672  0.00  0.00    +0.000 A 
ATOM      7  C   UNL     1      44.517   4.566   9.985  0.00  0.00    +0.000 A 
BRANCH   6   8
ATOM      8  C   UNL     1      45.533   2.741   8.561  0.00  0.00    +0.000 A 
ATOM      9  C   UNL     1      46.022   3.638   7.588  0.00  0.00    +0.000 A 
ATOM     10  C   UNL     1      46.849   3.213   6.541  0.00  0.00    +0.000 A 
ATOM     11  C   UNL     1      47.217   1.877   6.448  0.00  0.00    +0.000 A 
ATOM     12  C   UNL     1      46.748   0.978   7.395  0.00  0.00    +0.000 A 
ATOM     13  F   UNL     1      47.102  -0.310   7.313  0.00  0.00    +0.000 F 
ATOM     14  C   UNL     1      45.914   1.393   8.433  0.00  0.00    +0.000 A 
ENDBRANCH   6   8
ENDBRANCH   1   2
BRANCH   1  15
ATOM     15  N   UNL     1      44.194   6.784  12.633  0.00  0.00    +0.000 N 
ATOM     16  H   UNL     1      43.669   7.426  13.225  0.00  0.00    +0.000 HD
BRANCH  15  20
ATOM     17  C   UNL     1      48.367   7.424  12.478  0.00  0.00    +0.000 A 
ATOM     18  C   UNL     1      47.501   8.434  12.058  0.00  0.00    +0.000 A 
ATOM     19  C   UNL     1      46.117   8.240  12.122  0.00  0.00    +0.000 A 
ATOM     20  C   UNL     1      45.564   7.058  12.631  0.00  0.00    +0.000 A 
ATOM     21  C   UNL     1      46.450   6.047  13.033  0.00  0.00    +0.000 A 
ATOM     22  C   UNL     1      47.838   6.222  12.955  0.00  0.00    +0.000 A 
BRANCH  17  24
ATOM     23  N   UNL     1      50.545   7.582  13.556  0.00  0.00    +0.000 N 
ATOM     24  C   UNL     1      49.841   7.576  12.383  0.00  0.00    +0.000 C 
ATOM     25  O   UNL     1      50.412   7.662  11.304  0.00  0.00    +0.000 OA
ATOM     26  H   UNL     1      51.553   7.589  13.474  0.00  0.00    +0.000 HD
ATOM     27  H   UNL     1      50.145   7.264  14.428  0.00  0.00    +0.000 HD
ENDBRANCH  17  24
ENDBRANCH  15  20
ENDBRANCH   1  15
TORSDOF 5
ENDMDL
MODEL 5
REMARK VINA RESULT:    -7.656      3.703      7.264
REMARK INTER + INTRA:         -10.801
REMARK INTER:                 -10.333
REMARK INTRA:                  -0.469
REMARK UNBOUND:                -0.908
REMARK  Name = 
REMARK  5 active torsions:
REMARK  status: ('A' for Active; 'I' for Inactive)
REMARK    1  A    between atoms: C_2  and  C_4
REMARK    2  A    between atoms: C_7  and  N_8
REMARK    3  A    between atoms: N_8  and  C_9
REMARK    4  A    between atoms: C_9  and  C_10
REMARK    5  A    between atoms: C_14  and  C_15
REMARK                            x       y       z     vdW  Elec       q    Type
REMARK                         _______ _______ _______ _____ _____    ______ ____
ROOT
ATOM      1  C   UNL     1      45.394   6.968  11.623  0.00  0.00    +0.000 C 
ENDROOT
BRANCH   1   2
ATOM      2  C   UNL     1      44.871   5.678  11.059  0.00  0.00    +0.000 A 
ATOM      3  C   UNL     1      43.672   5.142  11.508  0.00  0.00    +0.000 A 
ATOM      4  N   UNL     1      43.126   4.011  11.022  0.00  0.00    +0.000 NA
ATOM      5  C   UNL     1      43.811   3.378  10.035  0.00  0.00    +0.000 A 
ATOM      6  C   UNL     1      45.021   3.808   9.486  0.00  0.00    +0.000 A 
ATOM      7  C   UNL     1      45.537   4.999  10.026  0.00  0.00    +0.000 A 
BRANCH   6   8
ATOM      8  C   UNL     1      45.721   3.056   8.419  0.00  0.00    +0.000 A 
ATOM      9  C   UNL     1      46.021   1.686   8.563  0.00  0.00    +0.000 A 
ATOM     10  C   UNL     1      46.670   0.962   7.555  0.00  0.00    +0.000 A 
ATOM     11  C   UNL     1      47.025   1.591   6.369  0.00  0.00    +0.000 A 
ATOM     12  C   UNL     1      46.737   2.939   6.207  0.00  0.00    +0.000 A 
ATOM     13  F   UNL     1      47.074   3.551   5.064  0.00  0.00    +0.000 F 
ATOM     14  C   UNL     1      46.103   3.669   7.211  0.00  0.00    +0.000 A 
ENDBRANCH   6   8
ENDBRANCH   1   2
BRANCH   1  15
ATOM     15  N   UNL     1      46.793   6.838  12.012  0.00  0.00    +0.000 N 
ATOM     16  H   UNL     1      47.398   6.468  11.280  0.00  0.00    +0.000 HD
BRANCH  15  20
ATOM     17  C   UNL     1      47.871   5.146  15.730  0.00  0.00    +0.000 A 
ATOM     18  C   UNL     1      48.448   6.351  15.331  0.00  0.00    +0.000 A 
ATOM     19  C   UNL     1      48.084   6.931  14.110  0.00  0.00    +0.000 A 
ATOM     20  C   UNL     1      47.122   6.344  13.277  0.00  0.00    +0.000 A 
ATOM     21  C   UNL     1      46.566   5.124  13.686  0.00  0.00    +0.000 A 
ATOM     22  C   UNL     1      46.937   4.524  14.898  0.00  0.00    +0.000 A 
BRANCH  17  24
ATOM     23  N   UNL     1      47.351   4.482  18.015  0.00  0.00    +0.000 N 
ATOM     24  C   UNL     1      48.265   4.478  16.997  0.00  0.00    +0.000 C 
ATOM     25  O   UNL     1      49.347   3.920  17.122  0.00  0.00    +0.000 OA
ATOM     26  H   UNL     1      47.592   3.943  18.835  0.00  0.00    +0.000 HD
ATOM     27  H   UNL     1      46.376   4.703  17.865  0.00  0.00    +0.000 HD
ENDBRANCH  17  24
ENDBRANCH  15  20
ENDBRANCH   1  15
TORSDOF 5
ENDMDL
MODEL 6
REMARK VINA RESULT:    -7.407      3.448      6.909
REMARK INTER + INTRA:         -10.480
REMARK INTER:                  -9.671
REMARK INTRA:                  -0.809
REMARK UNBOUND:                -0.908
REMARK  Name = 
REMARK  5 active torsions:
REMARK  status: ('A' for Active; 'I' for Inactive)
REMARK    1  A    between atoms: C_2  and  C_4
REMARK    2  A    between atoms: C_7  and  N_8
REMARK    3  A    between atoms: N_8  and  C_9
REMARK    4  A    between atoms: C_9  and  C_10
REMARK    5  A    between atoms: C_14  and  C_15
REMARK                            x       y       z     vdW  Elec       q    Type
REMARK                         _______ _______ _______ _____ _____    ______ ____
ROOT
ATOM      1  C   UNL     1      45.581   4.956  13.430  0.00  0.00    +0.000 C 
ENDROOT
BRANCH   1   2
ATOM      2  C   UNL     1      44.949   4.729  12.087  0.00  0.00    +0.000 A 
ATOM      3  C   UNL     1      43.685   5.227  11.806  0.00  0.00    +0.000 A 
ATOM      4  N   UNL     1      43.073   5.093  10.613  0.00  0.00    +0.000 NA
ATOM      5  C   UNL     1      43.756   4.424   9.649  0.00  0.00    +0.000 A 
ATOM      6  C   UNL     1      45.034   3.878   9.793  0.00  0.00    +0.000 A 
ATOM      7  C   UNL     1      45.625   4.059  11.055  0.00  0.00    +0.000 A 
BRANCH   6   8
ATOM      8  C   UNL     1      45.713   3.147   8.699  0.00  0.00    +0.000 A 
ATOM      9  C   UNL     1      46.289   3.830   7.608  0.00  0.00    +0.000 A 
ATOM     10  C   UNL     1      46.946   3.150   6.575  0.00  0.00    +0.000 A 
ATOM     11  C   UNL     1      47.052   1.766   6.614  0.00  0.00    +0.000 A 
ATOM     12  C   UNL     1      46.494   1.075   7.680  0.00  0.00    +0.000 A 
ATOM     13  F   UNL     1      46.597  -0.259   7.726  0.00  0.00    +0.000 F 
ATOM     14  C   UNL     1      45.828   1.745   8.706  0.00  0.00    +0.000 A 
ENDBRANCH   6   8
ENDBRANCH   1   2
BRANCH   1  15
ATOM     15  N   UNL     1      45.991   6.346  13.585  0.00  0.00    +0.000 N 
ATOM     16  H   UNL     1      45.284   7.025  13.307  0.00  0.00    +0.000 HD
BRANCH  15  20
ATOM     17  C   UNL     1      49.801   7.746  12.411  0.00  0.00    +0.000 A 
ATOM     18  C   UNL     1      49.600   7.320  13.724  0.00  0.00    +0.000 A 
ATOM     19  C   UNL     1      48.348   6.836  14.119  0.00  0.00    +0.000 A 
ATOM     20  C   UNL     1      47.281   6.738  13.216  0.00  0.00    +0.000 A 
ATOM     21  C   UNL     1      47.496   7.188  11.905  0.00  0.00    +0.000 A 
ATOM     22  C   UNL     1      48.741   7.692  11.503  0.00  0.00    +0.000 A 
BRANCH  17  24
ATOM     23  N   UNL     1      51.893   8.883  12.923  0.00  0.00    +0.000 N 
ATOM     24  C   UNL     1      51.103   8.307  11.967  0.00  0.00    +0.000 C 
ATOM     25  O   UNL     1      51.472   8.232  10.802  0.00  0.00    +0.000 OA
ATOM     26  H   UNL     1      52.815   9.174  12.626  0.00  0.00    +0.000 HD
ATOM     27  H   UNL     1      51.740   8.738  13.911  0.00  0.00    +0.000 HD
ENDBRANCH  17  24
ENDBRANCH  15  20
ENDBRANCH   1  15
TORSDOF 5
ENDMDL
MODEL 7
REMARK VINA RESULT:    -6.633      4.822      7.949
REMARK INTER + INTRA:          -9.480
REMARK INTER:                  -8.725
REMARK INTRA:                  -0.755
REMARK UNBOUND:                -0.908
REMARK  Name = 
REMARK  5 active torsions:
REMARK  status: ('A' for Active; 'I' for Inactive)
REMARK    1  A    between atoms: C_2  and  C_4
REMARK    2  A    between atoms: C_7  and  N_8
REMARK    3  A    between atoms: N_8  and  C_9
REMARK    4  A    between atoms: C_9  and  C_10
REMARK    5  A    between atoms: C_14  and  C_15
REMARK                            x       y       z     vdW  Elec       q    Type
REMARK                         _______ _______ _______ _____ _____    ______ ____
ROOT
ATOM      1  C   UNL     1      48.719   6.836  15.838  0.00  0.00    +0.000 C 
ENDROOT
BRANCH   1   2
ATOM      2  C   UNL     1      48.252   6.865  14.411  0.00  0.00    +0.000 A 
ATOM      3  C   UNL     1      49.007   7.493  13.431  0.00  0.00    +0.000 A 
ATOM      4  N   UNL     1      48.668   7.525  12.127  0.00  0.00    +0.000 NA
ATOM      5  C   UNL     1      47.513   6.899  11.782  0.00  0.00    +0.000 A 
ATOM      6  C   UNL     1      46.663   6.225  12.662  0.00  0.00    +0.000 A 
ATOM      7  C   UNL     1      47.075   6.216  14.005  0.00  0.00    +0.000 A 
BRANCH   6   8
ATOM      8  C   UNL     1      45.410   5.575  12.214  0.00  0.00    +0.000 A 
ATOM      9  C   UNL     1      44.353   5.324  13.113  0.00  0.00    +0.000 A 
ATOM     10  C   UNL     1      43.158   4.723  12.698  0.00  0.00    +0.000 A 
ATOM     11  C   UNL     1      42.987   4.368  11.366  0.00  0.00    +0.000 A 
ATOM     12  C   UNL     1      44.014   4.608  10.465  0.00  0.00    +0.000 A 
ATOM     13  F   UNL     1      43.854   4.272   9.179  0.00  0.00    +0.000 F 
ATOM     14  C   UNL     1      45.211   5.195  10.874  0.00  0.00    +0.000 A 
ENDBRANCH   6   8
ENDBRANCH   1   2
BRANCH   1  15
ATOM     15  N   UNL     1      48.245   5.638  16.518  0.00  0.00    +0.000 N 
ATOM     16  H   UNL     1      47.540   5.813  17.233  0.00  0.00    +0.000 HD
BRANCH  15  20
ATOM     17  C   UNL     1      50.985   2.555  17.435  0.00  0.00    +0.000 A 
ATOM     18  C   UNL     1      51.367   3.886  17.604  0.00  0.00    +0.000 A 
ATOM     19  C   UNL     1      50.461   4.915  17.322  0.00  0.00    +0.000 A 
ATOM     20  C   UNL     1      49.154   4.645  16.897  0.00  0.00    +0.000 A 
ATOM     21  C   UNL     1      48.793   3.302  16.716  0.00  0.00    +0.000 A 
ATOM     22  C   UNL     1      49.698   2.264  16.977  0.00  0.00    +0.000 A 
BRANCH  17  24
ATOM     23  N   UNL     1      51.400   0.252  18.108  0.00  0.00    +0.000 N 
ATOM     24  C   UNL     1      51.932   1.438  17.682  0.00  0.00    +0.000 C 
ATOM     25  O   UNL     1      53.134   1.557  17.486  0.00  0.00    +0.000 OA
ATOM     26  H   UNL     1      52.042  -0.527  18.180  0.00  0.00    +0.000 HD
ATOM     27  H   UNL     1      50.414   0.044  18.036  0.00  0.00    +0.000 HD
ENDBRANCH  17  24
ENDBRANCH  15  20
ENDBRANCH   1  15
TORSDOF 5
ENDMDL
MODEL 8
REMARK VINA RESULT:    -6.603      3.580      7.022
REMARK INTER + INTRA:          -9.441
REMARK INTER:                  -8.712
REMARK INTRA:                  -0.729
REMARK UNBOUND:                -0.908
REMARK  Name = 
REMARK  5 active torsions:
REMARK  status: ('A' for Active; 'I' for Inactive)
REMARK    1  A    between atoms: C_2  and  C_4
REMARK    2  A    between atoms: C_7  and  N_8
REMARK    3  A    between atoms: N_8  and  C_9
REMARK    4  A    between atoms: C_9  and  C_10
REMARK    5  A    between atoms: C_14  and  C_15
REMARK                            x       y       z     vdW  Elec       q    Type
REMARK                         _______ _______ _______ _____ _____    ______ ____
ROOT
ATOM      1  C   UNL     1      45.660   7.094  12.938  0.00  0.00    +0.000 C 
ENDROOT
BRANCH   1   2
ATOM      2  C   UNL     1      44.877   6.082  12.153  0.00  0.00    +0.000 A 
ATOM      3  C   UNL     1      43.527   5.879  12.406  0.00  0.00    +0.000 A 
ATOM      4  N   UNL     1      42.755   5.016  11.718  0.00  0.00    +0.000 NA
ATOM      5  C   UNL     1      43.361   4.316  10.724  0.00  0.00    +0.000 A 
ATOM      6  C   UNL     1      44.705   4.425  10.359  0.00  0.00    +0.000 A 
ATOM      7  C   UNL     1      45.456   5.348  11.105  0.00  0.00    +0.000 A 
BRANCH   6   8
ATOM      8  C   UNL     1      45.301   3.616   9.271  0.00  0.00    +0.000 A 
ATOM      9  C   UNL     1      45.374   2.210   9.358  0.00  0.00    +0.000 A 
ATOM     10  C   UNL     1      45.923   1.435   8.329  0.00  0.00    +0.000 A 
ATOM     11  C   UNL     1      46.404   2.048   7.180  0.00  0.00    +0.000 A 
ATOM     12  C   UNL     1      46.340   3.430   7.074  0.00  0.00    +0.000 A 
ATOM     13  F   UNL     1      46.798   4.028   5.967  0.00  0.00    +0.000 F 
ATOM     14  C   UNL     1      45.805   4.209   8.099  0.00  0.00    +0.000 A 
ENDBRANCH   6   8
ENDBRANCH   1   2
BRANCH   1  15
ATOM     15  N   UNL     1      46.130   8.172  12.077  0.00  0.00    +0.000 N 
ATOM     16  H   UNL     1      45.685   8.200  11.161  0.00  0.00    +0.000 HD
BRANCH  15  20
ATOM     17  C   UNL     1      50.248   9.021  11.669  0.00  0.00    +0.000 A 
ATOM     18  C   UNL     1      49.370  10.041  12.033  0.00  0.00    +0.000 A 
ATOM     19  C   UNL     1      48.006   9.767  12.190  0.00  0.00    +0.000 A 
ATOM     20  C   UNL     1      47.493   8.475  12.019  0.00  0.00    +0.000 A 
ATOM     21  C   UNL     1      48.388   7.466  11.636  0.00  0.00    +0.000 A 
ATOM     22  C   UNL     1      49.753   7.732  11.457  0.00  0.00    +0.000 A 
BRANCH  17  24
ATOM     23  N   UNL     1      52.563   8.820  12.401  0.00  0.00    +0.000 N 
ATOM     24  C   UNL     1      51.694   9.282  11.450  0.00  0.00    +0.000 C 
ATOM     25  O   UNL     1      52.100   9.858  10.450  0.00  0.00    +0.000 OA
ATOM     26  H   UNL     1      53.547   8.919  12.193  0.00  0.00    +0.000 HD
ATOM     27  H   UNL     1      52.293   8.134  13.092  0.00  0.00    +0.000 HD
ENDBRANCH  17  24
ENDBRANCH  15  20
ENDBRANCH   1  15
TORSDOF 5
ENDMDL
MODEL 9
REMARK VINA RESULT:    -6.479      4.651      8.029
REMARK INTER + INTRA:          -9.281
REMARK INTER:                  -8.721
REMARK INTRA:                  -0.561
REMARK UNBOUND:                -0.908
REMARK  Name = 
REMARK  5 active torsions:
REMARK  status: ('A' for Active; 'I' for Inactive)
REMARK    1  A    between atoms: C_2  and  C_4
REMARK    2  A    between atoms: C_7  and  N_8
REMARK    3  A    between atoms: N_8  and  C_9
REMARK    4  A    between atoms: C_9  and  C_10
REMARK    5  A    between atoms: C_14  and  C_15
REMARK                            x       y       z     vdW  Elec       q    Type
REMARK                         _______ _______ _______ _____ _____    ______ ____
ROOT
ATOM      1  C   UNL     1      48.467   7.381  13.962  0.00  0.00    +0.000 C 
ENDROOT
BRANCH   1   2
ATOM      2  C   UNL     1      47.219   7.361  13.127  0.00  0.00    +0.000 A 
ATOM      3  C   UNL     1      46.375   8.462  13.088  0.00  0.00    +0.000 A 
ATOM      4  N   UNL     1      45.260   8.527  12.335  0.00  0.00    +0.000 NA
ATOM      5  C   UNL     1      44.970   7.437  11.580  0.00  0.00    +0.000 A 
ATOM      6  C   UNL     1      45.732   6.268  11.518  0.00  0.00    +0.000 A 
ATOM      7  C   UNL     1      46.888   6.262  12.318  0.00  0.00    +0.000 A 
BRANCH   6   8
ATOM      8  C   UNL     1      45.345   5.110  10.681  0.00  0.00    +0.000 A 
ATOM      9  C   UNL     1      44.603   4.035  11.214  0.00  0.00    +0.000 A 
ATOM     10  C   UNL     1      44.219   2.941  10.428  0.00  0.00    +0.000 A 
ATOM     11  C   UNL     1      44.561   2.901   9.082  0.00  0.00    +0.000 A 
ATOM     12  C   UNL     1      45.289   3.949   8.538  0.00  0.00    +0.000 A 
ATOM     13  F   UNL     1      45.618   3.919   7.241  0.00  0.00    +0.000 F 
ATOM     14  C   UNL     1      45.685   5.035   9.318  0.00  0.00    +0.000 A 
ENDBRANCH   6   8
ENDBRANCH   1   2
BRANCH   1  15
ATOM     15  N   UNL     1      48.159   7.152  15.368  0.00  0.00    +0.000 N 
ATOM     16  H   UNL     1      47.843   7.982  15.867  0.00  0.00    +0.000 HD
BRANCH  15  20
ATOM     17  C   UNL     1      50.653   4.542  17.563  0.00  0.00    +0.000 A 
ATOM     18  C   UNL     1      51.192   5.702  17.008  0.00  0.00    +0.000 A 
ATOM     19  C   UNL     1      50.372   6.584  16.294  0.00  0.00    +0.000 A 
ATOM     20  C   UNL     1      48.999   6.349  16.144  0.00  0.00    +0.000 A 
ATOM     21  C   UNL     1      48.477   5.169  16.694  0.00  0.00    +0.000 A 
ATOM     22  C   UNL     1      49.293   4.269  17.394  0.00  0.00    +0.000 A 
BRANCH  17  24
ATOM     23  N   UNL     1      51.398   2.250  17.912  0.00  0.00    +0.000 N 
ATOM     24  C   UNL     1      51.500   3.562  18.288  0.00  0.00    +0.000 C 
ATOM     25  O   UNL     1      52.280   3.908  19.166  0.00  0.00    +0.000 OA
ATOM     26  H   UNL     1      52.048   1.608  18.346  0.00  0.00    +0.000 HD
ATOM     27  H   UNL     1      50.967   1.969  17.043  0.00  0.00    +0.000 HD
ENDBRANCH  17  24
ENDBRANCH  15  20
ENDBRANCH   1  15
TORSDOF 5
ENDMDL
