MODEL 1
REMARK VINA RESULT:    -6.700      0.000      0.000
REMARK INTER + INTRA:          -8.176
REMARK INTER:                  -7.875
REMARK INTRA:                  -0.301
REMARK UNBOUND:                -0.301
REMARK  Name = 
REMARK  4 active torsions:
REMARK  status: ('A' for Active; 'I' for Inactive)
REMARK    1  A    between atoms: C_1  and  C_2
REMARK    2  A    between atoms: C_2  and  N_3
REMARK    3  A    between atoms: C_2  and  C_13
REMARK    4  A    between atoms: C_7  and  C_8
REMARK                            x       y       z     vdW  Elec       q    Type
REMARK                         _______ _______ _______ _____ _____    ______ ____
ROOT
ATOM      1  N   UNL     1      45.543   3.078  12.557  0.00  0.00    +0.000 N 
ATOM      2  C   UNL     1      46.300   4.036  13.249  0.00  0.00    +0.000 A 
ATOM      3  C   UNL     1      46.928   3.666  14.449  0.00  0.00    +0.000 A 
ATOM      4  N   UNL     1      47.716   4.487  15.193  0.00  0.00    +0.000 NA
ATOM      5  C   UNL     1      47.884   5.726  14.660  0.00  0.00    +0.000 A 
ATOM      6  C   UNL     1      47.293   6.104  13.463  0.00  0.00    +0.000 A 
ATOM      7  N   UNL     1      46.489   5.272  12.742  0.00  0.00    +0.000 NA
ATOM      8  H   UNL     1      46.204   2.465  12.081  0.00  0.00    +0.000 HD
ENDROOT
BRANCH   5   9
ATOM      9  C   UNL     1      48.734   6.693  15.409  0.00  0.00    +0.000 C 
ATOM     10  N   UNL     1      48.166   7.912  15.669  0.00  0.00    +0.000 N 
ATOM     11  O   UNL     1      49.876   6.424  15.764  0.00  0.00    +0.000 OA
ATOM     12  H   UNL     1      47.225   8.118  15.351  0.00  0.00    +0.000 HD
ATOM     13  H   UNL     1      48.703   8.606  16.166  0.00  0.00    +0.000 HD
ENDBRANCH   5   9
BRANCH   1  15
ATOM     14  C   UNL     1      43.259   2.721  11.697  0.00  0.00    +0.000 C 
ATOM     15  C   UNL     1      44.530   3.578  11.617  0.00  0.00    +0.000 C 
BRANCH  15  16
ATOM     16  C   UNL     1      45.055   3.493  10.189  0.00  0.00    +0.000 A 
ATOM     17  C   UNL     1      45.159   2.292   9.474  0.00  0.00    +0.000 A 
ATOM     18  C   UNL     1      45.537   2.309   8.133  0.00  0.00    +0.000 A 
ATOM     19  C   UNL     1      45.796   3.531   7.539  0.00  0.00    +0.000 A 
ATOM     20  N   UNL     1      45.720   4.710   8.189  0.00  0.00    +0.000 NA
ATOM     21  C   UNL     1      45.352   4.664   9.492  0.00  0.00    +0.000 A 
ENDBRANCH  15  16
ENDBRANCH   1  15
TORSDOF 3
ENDMDL
MODEL 2
REMARK VINA RESULT:    -6.390      1.580      2.601
REMARK INTER + INTRA:          -7.812
REMARK INTER:                  -8.968
REMARK INTRA:                   1.155
REMARK UNBOUND:                -0.301
REMARK  Name = 
REMARK  4 active torsions:
REMARK  status: ('A' for Active; 'I' for Inactive)
REMARK    1  A    between atoms: C_1  and  C_2
REMARK    2  A    between atoms: C_2  and  N_3
REMARK    3  A    between atoms: C_2  and  C_13
REMARK    4  A    between atoms: C_7  and  C_8
REMARK                            x       y       z     vdW  Elec       q    Type
REMARK                         _______ _______ _______ _____ _____    ______ ____
ROOT
ATOM      1  N   UNL     1      44.647   5.144   9.878  0.00  0.00    +0.000 N 
ATOM      2  C   UNL     1      45.421   5.191  11.048  0.00  0.00    +0.000 A 
ATOM      3  C   UNL     1      46.283   6.282  11.247  0.00  0.00    +0.000 A 
ATOM      4  N   UNL     1      47.055   6.464  12.350  0.00  0.00    +0.000 NA
ATOM      5  C   UNL     1      46.910   5.497  13.294  0.00  0.00    +0.000 A 
ATOM      6  C   UNL     1      46.047   4.424  13.129  0.00  0.00    +0.000 A 
ATOM      7  N   UNL     1      45.294   4.248  12.004  0.00  0.00    +0.000 NA
ATOM      8  H   UNL     1      43.874   5.795  10.007  0.00  0.00    +0.000 HD
ENDROOT
BRANCH   5   9
ATOM      9  C   UNL     1      47.720   5.616  14.539  0.00  0.00    +0.000 C 
ATOM     10  N   UNL     1      47.213   4.983  15.643  0.00  0.00    +0.000 N 
ATOM     11  O   UNL     1      48.770   6.246  14.580  0.00  0.00    +0.000 OA
ATOM     12  H   UNL     1      46.335   4.481  15.589  0.00  0.00    +0.000 HD
ATOM     13  H   UNL     1      47.719   5.040  16.514  0.00  0.00    +0.000 HD
ENDBRANCH   5   9
BRANCH   1  15
ATOM     14  C   UNL     1      43.888   2.940  10.684  0.00  0.00    +0.000 C 
ATOM     15  C   UNL     1      44.150   3.826   9.458  0.00  0.00    +0.000 C 
BRANCH  15  16
ATOM     16  C   UNL     1      45.192   3.124   8.596  0.00  0.00    +0.000 A 
ATOM     17  C   UNL     1      46.020   3.794   7.685  0.00  0.00    +0.000 A 
ATOM     18  C   UNL     1      47.028   3.101   7.019  0.00  0.00    +0.000 A 
ATOM     19  C   UNL     1      47.187   1.752   7.287  0.00  0.00    +0.000 A 
ATOM     20  N   UNL     1      46.408   1.065   8.147  0.00  0.00    +0.000 NA
ATOM     21  C   UNL     1      45.435   1.763   8.779  0.00  0.00    +0.000 A 
ENDBRANCH  15  16
ENDBRANCH   1  15
TORSDOF 3
ENDMDL
MODEL 3
REMARK VINA RESULT:    -6.313      3.342      7.051
REMARK INTER + INTRA:          -7.722
REMARK INTER:                  -7.324
REMARK INTRA:                  -0.398
REMARK UNBOUND:                -0.301
REMARK  Name = 
REMARK  4 active torsions:
REMARK  status: ('A' for Active; 'I' for Inactive)
REMARK    1  A    between atoms: C_1  and  C_2
REMARK    2  A    between atoms: C_2  and  N_3
REMARK    3  A    between atoms: C_2  and  C_13
REMARK    4  A    between atoms: C_7  and  C_8
REMARK                            x       y       z     vdW  Elec       q    Type
REMARK                         _______ _______ _______ _____ _____    ______ ____
ROOT
ATOM      1  N   UNL     1      47.510   5.135  15.451  0.00  0.00    +0.000 N 
ATOM      2  C   UNL     1      46.774   4.827  14.296  0.00  0.00    +0.000 A 
ATOM      3  C   UNL     1      46.419   5.867  13.422  0.00  0.00    +0.000 A 
ATOM      4  N   UNL     1      45.741   5.698  12.256  0.00  0.00    +0.000 NA
ATOM      5  C   UNL     1      45.445   4.402  11.970  0.00  0.00    +0.000 A 
ATOM      6  C   UNL     1      45.808   3.357  12.808  0.00  0.00    +0.000 A 
ATOM      7  N   UNL     1      46.471   3.550  13.984  0.00  0.00    +0.000 NA
ATOM      8  H   UNL     1      48.475   5.284  15.157  0.00  0.00    +0.000 HD
ENDROOT
BRANCH   5   9
ATOM      9  C   UNL     1      44.702   4.122  10.710  0.00  0.00    +0.000 C 
ATOM     10  N   UNL     1      43.907   5.136  10.247  0.00  0.00    +0.000 N 
ATOM     11  O   UNL     1      44.787   3.049  10.123  0.00  0.00    +0.000 OA
ATOM     12  H   UNL     1      43.839   6.010  10.758  0.00  0.00    +0.000 HD
ATOM     13  H   UNL     1      43.376   4.995   9.401  0.00  0.00    +0.000 HD
ENDBRANCH   5   9
BRANCH   1  15
ATOM     14  C   UNL     1      47.033   4.876  17.857  0.00  0.00    +0.000 C 
ATOM     15  C   UNL     1      47.450   4.171  16.558  0.00  0.00    +0.000 C 
BRANCH  15  16
ATOM     16  C   UNL     1      48.823   3.553  16.789  0.00  0.00    +0.000 A 
ATOM     17  C   UNL     1      49.851   4.194  17.493  0.00  0.00    +0.000 A 
ATOM     18  C   UNL     1      51.038   3.518  17.764  0.00  0.00    +0.000 A 
ATOM     19  C   UNL     1      51.165   2.211  17.328  0.00  0.00    +0.000 A 
ATOM     20  N   UNL     1      50.208   1.557  16.639  0.00  0.00    +0.000 NA
ATOM     21  C   UNL     1      49.065   2.239  16.388  0.00  0.00    +0.000 A 
ENDBRANCH  15  16
ENDBRANCH   1  15
TORSDOF 3
ENDMDL
MODEL 4
REMARK VINA RESULT:    -5.911      3.812      6.512
REMARK INTER + INTRA:          -7.249
REMARK INTER:                  -6.971
REMARK INTRA:                  -0.278
REMARK UNBOUND:                -0.301
REMARK  Name = 
REMARK  4 active torsions:
REMARK  status: ('A' for Active; 'I' for Inactive)
REMARK    1  A    between atoms: C_1  and  C_2
REMARK    2  A    between atoms: C_2  and  N_3
REMARK    3  A    between atoms: C_2  and  C_13
REMARK    4  A    between atoms: C_7  and  C_8
REMARK                            x       y       z     vdW  Elec       q    Type
REMARK                         _______ _______ _______ _____ _____    ______ ____
ROOT
ATOM      1  N   UNL     1      46.623   7.003  13.379  0.00  0.00    +0.000 N 
ATOM      2  C   UNL     1      45.991   5.924  12.742  0.00  0.00    +0.000 A 
ATOM      3  C   UNL     1      45.503   4.866  13.527  0.00  0.00    +0.000 A 
ATOM      4  N   UNL     1      44.842   3.784  13.038  0.00  0.00    +0.000 NA
ATOM      5  C   UNL     1      44.654   3.811  11.692  0.00  0.00    +0.000 A 
ATOM      6  C   UNL     1      45.105   4.857  10.902  0.00  0.00    +0.000 A 
ATOM      7  N   UNL     1      45.785   5.926  11.409  0.00  0.00    +0.000 NA
ATOM      8  H   UNL     1      45.888   7.579  13.787  0.00  0.00    +0.000 HD
ENDROOT
BRANCH   5   9
ATOM      9  C   UNL     1      43.937   2.663  11.069  0.00  0.00    +0.000 C 
ATOM     10  N   UNL     1      44.479   2.180   9.908  0.00  0.00    +0.000 N 
ATOM     11  O   UNL     1      42.920   2.183  11.557  0.00  0.00    +0.000 OA
ATOM     12  H   UNL     1      45.311   2.603   9.515  0.00  0.00    +0.000 HD
ATOM     13  H   UNL     1      44.026   1.408   9.442  0.00  0.00    +0.000 HD
ENDBRANCH   5   9
BRANCH   1  15
ATOM     14  C   UNL     1      48.854   8.053  13.303  0.00  0.00    +0.000 C 
ATOM     15  C   UNL     1      47.529   7.823  12.562  0.00  0.00    +0.000 C 
BRANCH  15  16
ATOM     16  C   UNL     1      46.905   9.188  12.299  0.00  0.00    +0.000 A 
ATOM     17  C   UNL     1      47.626  10.286  11.811  0.00  0.00    +0.000 A 
ATOM     18  C   UNL     1      46.963  11.466  11.484  0.00  0.00    +0.000 A 
ATOM     19  C   UNL     1      45.590  11.516  11.648  0.00  0.00    +0.000 A 
ATOM     20  N   UNL     1      44.856  10.489  12.124  0.00  0.00    +0.000 NA
ATOM     21  C   UNL     1      45.527   9.355  12.435  0.00  0.00    +0.000 A 
ENDBRANCH  15  16
ENDBRANCH   1  15
TORSDOF 3
ENDMDL
MODEL 5
REMARK VINA RESULT:    -5.647      3.183      4.248
REMARK INTER + INTRA:          -6.939
REMARK INTER:                  -6.605
REMARK INTRA:                  -0.334
REMARK UNBOUND:                -0.301
REMARK  Name = 
REMARK  4 active torsions:
REMARK  status: ('A' for Active; 'I' for Inactive)
REMARK    1  A    between atoms: C_1  and  C_2
REMARK    2  A    between atoms: C_2  and  N_3
REMARK    3  A    between atoms: C_2  and  C_13
REMARK    4  A    between atoms: C_7  and  C_8
REMARK                            x       y       z     vdW  Elec       q    Type
REMARK                         _______ _______ _______ _____ _____    ______ ____
ROOT
ATOM      1  N   UNL     1      46.935   6.315  13.989  0.00  0.00    +0.000 N 
ATOM      2  C   UNL     1      47.480   5.435  14.936  0.00  0.00    +0.000 A 
ATOM      3  C   UNL     1      48.188   5.968  16.027  0.00  0.00    +0.000 A 
ATOM      4  N   UNL     1      48.732   5.228  17.029  0.00  0.00    +0.000 NA
ATOM      5  C   UNL     1      48.511   3.891  16.914  0.00  0.00    +0.000 A 
ATOM      6  C   UNL     1      47.794   3.347  15.859  0.00  0.00    +0.000 A 
ATOM      7  N   UNL     1      47.273   4.105  14.851  0.00  0.00    +0.000 NA
ATOM      8  H   UNL     1      46.093   6.714  14.404  0.00  0.00    +0.000 HD
ENDROOT
BRANCH   5   9
ATOM      9  C   UNL     1      49.072   3.003  17.970  0.00  0.00    +0.000 C 
ATOM     10  N   UNL     1      48.495   3.108  19.207  0.00  0.00    +0.000 N 
ATOM     11  O   UNL     1      49.997   2.229  17.752  0.00  0.00    +0.000 OA
ATOM     12  H   UNL     1      47.742   3.767  19.368  0.00  0.00    +0.000 HD
ATOM     13  H   UNL     1      48.844   2.534  19.960  0.00  0.00    +0.000 HD
ENDBRANCH   5   9
BRANCH   1  15
ATOM     14  C   UNL     1      47.253   6.660  11.567  0.00  0.00    +0.000 C 
ATOM     15  C   UNL     1      46.644   5.766  12.657  0.00  0.00    +0.000 C 
BRANCH  15  16
ATOM     16  C   UNL     1      45.139   5.720  12.427  0.00  0.00    +0.000 A 
ATOM     17  C   UNL     1      44.461   6.591  11.564  0.00  0.00    +0.000 A 
ATOM     18  C   UNL     1      43.102   6.411  11.317  0.00  0.00    +0.000 A 
ATOM     19  C   UNL     1      42.455   5.357  11.937  0.00  0.00    +0.000 A 
ATOM     20  N   UNL     1      43.063   4.501  12.783  0.00  0.00    +0.000 NA
ATOM     21  C   UNL     1      44.384   4.700  13.006  0.00  0.00    +0.000 A 
ENDBRANCH  15  16
ENDBRANCH   1  15
TORSDOF 3
ENDMDL
MODEL 6
REMARK VINA RESULT:    -5.413      3.124      7.580
REMARK INTER + INTRA:          -6.664
REMARK INTER:                  -6.442
REMARK INTRA:                  -0.222
REMARK UNBOUND:                -0.301
REMARK  Name = 
REMARK  4 active torsions:
REMARK  status: ('A' for Active; 'I' for Inactive)
REMARK    1  A    between atoms: C_1  and  C_2
REMARK    2  A    between atoms: C_2  and  N_3
REMARK    3  A    between atoms: C_2  and  C_13
REMARK    4  A    between atoms: C_7  and  C_8
REMARK                            x       y       z     vdW  Elec       q    Type
REMARK                         _______ _______ _______ _____ _____    ______ ____
ROOT
ATOM      1  N   UNL     1      47.461   5.397  15.172  0.00  0.00    +0.000 N 
ATOM      2  C   UNL     1      46.660   4.787  14.194  0.00  0.00    +0.000 A 
ATOM      3  C   UNL     1      45.734   5.575  13.490  0.00  0.00    +0.000 A 
ATOM      4  N   UNL     1      44.927   5.114  12.497  0.00  0.00    +0.000 NA
ATOM      5  C   UNL     1      45.105   3.799  12.203  0.00  0.00    +0.000 A 
ATOM      6  C   UNL     1      46.031   3.010  12.869  0.00  0.00    +0.000 A 
ATOM      7  N   UNL     1      46.818   3.486  13.877  0.00  0.00    +0.000 NA
ATOM      8  H   UNL     1      48.194   5.907  14.679  0.00  0.00    +0.000 HD
ENDROOT
BRANCH   5   9
ATOM      9  C   UNL     1      44.263   3.209  11.126  0.00  0.00    +0.000 C 
ATOM     10  N   UNL     1      44.928   2.469  10.185  0.00  0.00    +0.000 N 
ATOM     11  O   UNL     1      43.050   3.380  11.075  0.00  0.00    +0.000 OA
ATOM     12  H   UNL     1      45.934   2.355  10.238  0.00  0.00    +0.000 HD
ATOM     13  H   UNL     1      44.404   2.054   9.429  0.00  0.00    +0.000 HD
ENDBRANCH   5   9
BRANCH   1  15
ATOM     14  C   UNL     1      46.955   4.063  17.184  0.00  0.00    +0.000 C 
ATOM     15  C   UNL     1      48.041   4.523  16.201  0.00  0.00    +0.000 C 
BRANCH  15  16
ATOM     16  C   UNL     1      49.095   5.281  16.999  0.00  0.00    +0.000 A 
ATOM     17  C   UNL     1      48.921   6.594  17.455  0.00  0.00    +0.000 A 
ATOM     18  C   UNL     1      49.881   7.179  18.279  0.00  0.00    +0.000 A 
ATOM     19  C   UNL     1      50.990   6.430  18.630  0.00  0.00    +0.000 A 
ATOM     20  N   UNL     1      51.204   5.168  18.206  0.00  0.00    +0.000 NA
ATOM     21  C   UNL     1      50.256   4.625  17.406  0.00  0.00    +0.000 A 
ENDBRANCH  15  16
ENDBRANCH   1  15
TORSDOF 3
ENDMDL
MODEL 7
REMARK VINA RESULT:    -5.187      3.005      7.188
REMARK INTER + INTRA:          -6.399
REMARK INTER:                  -5.995
REMARK INTRA:                  -0.403
REMARK UNBOUND:                -0.301
REMARK  Name = 
REMARK  4 active torsions:
REMARK  status: ('A' for Active; 'I' for Inactive)
REMARK    1  A    between atoms: C_1  and  C_2
REMARK    2  A    between atoms: C_2  and  N_3
REMARK    3  A    between atoms: C_2  and  C_13
REMARK    4  A    between atoms: C_7  and  C_8
REMARK                            x       y       z     vdW  Elec       q    Type
REMARK                         _______ _______ _______ _____ _____    ______ ____
ROOT
ATOM      1  N   UNL     1      48.006   7.046  13.298  0.00  0.00    +0.000 N 
ATOM      2  C   UNL     1      46.921   6.393  12.693  0.00  0.00    +0.000 A 
ATOM      3  C   UNL     1      46.784   6.460  11.297  0.00  0.00    +0.000 A 
ATOM      4  N   UNL     1      45.802   5.843  10.587  0.00  0.00    +0.000 NA
ATOM      5  C   UNL     1      44.949   5.107  11.347  0.00  0.00    +0.000 A 
ATOM      6  C   UNL     1      45.081   5.007  12.724  0.00  0.00    +0.000 A 
ATOM      7  N   UNL     1      46.061   5.651  13.421  0.00  0.00    +0.000 NA
ATOM      8  H   UNL     1      48.828   6.465  13.140  0.00  0.00    +0.000 HD
ENDROOT
BRANCH   5   9
ATOM      9  C   UNL     1      43.840   4.394  10.652  0.00  0.00    +0.000 C 
ATOM     10  N   UNL     1      43.827   4.498   9.287  0.00  0.00    +0.000 N 
ATOM     11  O   UNL     1      42.986   3.760  11.260  0.00  0.00    +0.000 OA
ATOM     12  H   UNL     1      44.535   5.042   8.806  0.00  0.00    +0.000 HD
ATOM     13  H   UNL     1      43.092   4.041   8.768  0.00  0.00    +0.000 HD
ENDBRANCH   5   9
BRANCH   1  15
ATOM     14  C   UNL     1      48.156   8.870  14.952  0.00  0.00    +0.000 C 
ATOM     15  C   UNL     1      47.874   7.378  14.724  0.00  0.00    +0.000 C 
BRANCH  15  16
ATOM     16  C   UNL     1      48.887   6.587  15.541  0.00  0.00    +0.000 A 
ATOM     17  C   UNL     1      50.204   7.011  15.761  0.00  0.00    +0.000 A 
ATOM     18  C   UNL     1      51.036   6.292  16.616  0.00  0.00    +0.000 A 
ATOM     19  C   UNL     1      50.525   5.166  17.236  0.00  0.00    +0.000 A 
ATOM     20  N   UNL     1      49.269   4.714  17.048  0.00  0.00    +0.000 NA
ATOM     21  C   UNL     1      48.483   5.432  16.210  0.00  0.00    +0.000 A 
ENDBRANCH  15  16
ENDBRANCH   1  15
TORSDOF 3
ENDMDL
MODEL 8
REMARK VINA RESULT:    -5.128      3.191      7.262
REMARK INTER + INTRA:          -6.328
REMARK INTER:                  -5.987
REMARK INTRA:                  -0.341
REMARK UNBOUND:                -0.301
REMARK  Name = 
REMARK  4 active torsions:
REMARK  status: ('A' for Active; 'I' for Inactive)
REMARK    1  A    between atoms: C_1  and  C_2
REMARK    2  A    between atoms: C_2  and  N_3
REMARK    3  A    between atoms: C_2  and  C_13
REMARK    4  A    between atoms: C_7  and  C_8
REMARK                            x       y       z     vdW  Elec       q    Type
REMARK                         _______ _______ _______ _____ _____    ______ ____
ROOT
ATOM      1  N   UNL     1      47.516   6.857  14.004  0.00  0.00    +0.000 N 
ATOM      2  C   UNL     1      46.618   5.990  13.364  0.00  0.00    +0.000 A 
ATOM      3  C   UNL     1      46.497   4.672  13.834  0.00  0.00    +0.000 A 
ATOM      4  N   UNL     1      45.641   3.747  13.327  0.00  0.00    +0.000 NA
ATOM      5  C   UNL     1      44.859   4.210  12.316  0.00  0.00    +0.000 A 
ATOM      6  C   UNL     1      44.945   5.515  11.853  0.00  0.00    +0.000 A 
ATOM      7  N   UNL     1      45.826   6.423  12.362  0.00  0.00    +0.000 NA
ATOM      8  H   UNL     1      47.074   7.155  14.873  0.00  0.00    +0.000 HD
ENDROOT
BRANCH   5   9
ATOM      9  C   UNL     1      43.889   3.264  11.699  0.00  0.00    +0.000 C 
ATOM     10  N   UNL     1      43.652   2.111  12.399  0.00  0.00    +0.000 N 
ATOM     11  O   UNL     1      43.340   3.493  10.627  0.00  0.00    +0.000 OA
ATOM     12  H   UNL     1      44.130   1.935  13.276  0.00  0.00    +0.000 HD
ATOM     13  H   UNL     1      43.008   1.432  12.020  0.00  0.00    +0.000 HD
ENDBRANCH   5   9
BRANCH   1  15
ATOM     14  C   UNL     1      49.167   7.628  12.340  0.00  0.00    +0.000 C 
ATOM     15  C   UNL     1      47.983   8.020  13.237  0.00  0.00    +0.000 C 
BRANCH  15  16
ATOM     16  C   UNL     1      48.465   9.113  14.184  0.00  0.00    +0.000 A 
ATOM     17  C   UNL     1      48.919  10.366  13.751  0.00  0.00    +0.000 A 
ATOM     18  C   UNL     1      49.231  11.354  14.682  0.00  0.00    +0.000 A 
ATOM     19  C   UNL     1      49.076  11.064  16.026  0.00  0.00    +0.000 A 
ATOM     20  N   UNL     1      48.652   9.870  16.489  0.00  0.00    +0.000 NA
ATOM     21  C   UNL     1      48.357   8.928  15.562  0.00  0.00    +0.000 A 
ENDBRANCH  15  16
ENDBRANCH   1  15
TORSDOF 3
ENDMDL
MODEL 9
REMARK VINA RESULT:    -5.108      3.387      6.625
REMARK INTER + INTRA:          -6.305
REMARK INTER:                  -5.932
REMARK INTRA:                  -0.373
REMARK UNBOUND:                -0.301
REMARK  Name = 
REMARK  4 active torsions:
REMARK  status: ('A' for Active; 'I' for Inactive)
REMARK    1  A    between atoms: C_1  and  C_2
REMARK    2  A    between atoms: C_2  and  N_3
REMARK    3  A    between atoms: C_2  and  C_13
REMARK    4  A    between atoms: C_7  and  C_8
REMARK                            x       y       z     vdW  Elec       q    Type
REMARK                         _______ _______ _______ _____ _____    ______ ____
ROOT
ATOM      1  N   UNL     1      47.109   7.830  13.130  0.00  0.00    +0.000 N 
ATOM      2  C   UNL     1      46.290   6.720  12.872  0.00  0.00    +0.000 A 
ATOM      3  C   UNL     1      44.980   6.938  12.414  0.00  0.00    +0.000 A 
ATOM      4  N   UNL     1      44.101   5.951  12.094  0.00  0.00    +0.000 NA
ATOM      5  C   UNL     1      44.605   4.696  12.224  0.00  0.00    +0.000 A 
ATOM      6  C   UNL     1      45.904   4.460  12.651  0.00  0.00    +0.000 A 
ATOM      7  N   UNL     1      46.765   5.463  12.987  0.00  0.00    +0.000 NA
ATOM      8  H   UNL     1      47.430   8.180  12.227  0.00  0.00    +0.000 HD
ENDROOT
BRANCH   5   9
ATOM      9  C   UNL     1      43.711   3.552  11.894  0.00  0.00    +0.000 C 
ATOM     10  N   UNL     1      43.818   2.455  12.708  0.00  0.00    +0.000 N 
ATOM     11  O   UNL     1      42.932   3.580  10.948  0.00  0.00    +0.000 OA
ATOM     12  H   UNL     1      44.481   2.448  13.475  0.00  0.00    +0.000 HD
ATOM     13  H   UNL     1      43.239   1.650  12.522  0.00  0.00    +0.000 HD
ENDBRANCH   5   9
BRANCH   1  15
ATOM     14  C   UNL     1      48.209   8.647  15.182  0.00  0.00    +0.000 C 
ATOM     15  C   UNL     1      48.247   7.624  14.038  0.00  0.00    +0.000 C 
BRANCH  15  16
ATOM     16  C   UNL     1      49.558   7.820  13.287  0.00  0.00    +0.000 A 
ATOM     17  C   UNL     1      49.679   7.694  11.896  0.00  0.00    +0.000 A 
ATOM     18  C   UNL     1      50.884   8.004  11.270  0.00  0.00    +0.000 A 
ATOM     19  C   UNL     1      51.939   8.439  12.052  0.00  0.00    +0.000 A 
ATOM     20  N   UNL     1      51.872   8.565  13.393  0.00  0.00    +0.000 NA
ATOM     21  C   UNL     1      50.689   8.256  13.976  0.00  0.00    +0.000 A 
ENDBRANCH  15  16
ENDBRANCH   1  15
TORSDOF 3
ENDMDL
