MODEL 1
REMARK VINA RESULT:    -8.501      0.000      0.000
REMARK INTER + INTRA:         -10.534
REMARK INTER:                  -9.992
REMARK INTRA:                  -0.542
REMARK UNBOUND:                -0.542
REMARK  Name = 
REMARK  3 active torsions:
REMARK  status: ('A' for Active; 'I' for Inactive)
REMARK    1  A    between atoms: C_2  and  C_4
REMARK    2  A    between atoms: N_8  and  C_9
REMARK    3  A    between atoms: C_9  and  C_10
REMARK                            x       y       z     vdW  Elec       q    Type
REMARK                         _______ _______ _______ _____ _____    ______ ____
ROOT
ATOM      1  C   UNL     1      46.562   2.747   7.476  0.00  0.00    +0.000 A 
ATOM      2  C   UNL     1      46.201   4.075   7.684  0.00  0.00    +0.000 A 
ATOM      3  C   UNL     1      45.346   4.394   8.740  0.00  0.00    +0.000 A 
ATOM      4  C   UNL     1      44.862   3.388   9.568  0.00  0.00    +0.000 A 
ATOM      5  N   UNL     1      43.933   3.611  10.585  0.00  0.00    +0.000 N 
ATOM      6  N   UNL     1      45.201   2.094   9.368  0.00  0.00    +0.000 NA
ATOM      7  C   UNL     1      46.027   1.799   8.335  0.00  0.00    +0.000 A 
ATOM      8  H   UNL     1      43.804   2.723  11.071  0.00  0.00    +0.000 HD
ENDROOT
BRANCH   1  10
ATOM      9  N   UNL     1      47.352   2.981   5.191  0.00  0.00    +0.000 N 
ATOM     10  C   UNL     1      47.450   2.310   6.380  0.00  0.00    +0.000 C 
ATOM     11  O   UNL     1      48.264   1.411   6.536  0.00  0.00    +0.000 OA
ATOM     12  H   UNL     1      48.033   2.737   4.484  0.00  0.00    +0.000 HD
ATOM     13  H   UNL     1      46.880   3.867   5.098  0.00  0.00    +0.000 HD
ENDBRANCH   1  10
BRANCH   5  14
ATOM     14  C   UNL     1      43.880   4.814  11.437  0.00  0.00    +0.000 C 
ATOM     15  C   UNL     1      42.537   5.031  12.134  0.00  0.00    +0.000 C 
ATOM     16  C   UNL     1      43.006   6.015  11.116  0.00  0.00    +0.000 C 
BRANCH  14  17
ATOM     17  C   UNL     1      45.137   5.062  12.290  0.00  0.00    +0.000 A 
ATOM     18  C   UNL     1      45.952   6.176  12.055  0.00  0.00    +0.000 A 
ATOM     19  C   UNL     1      47.038   6.437  12.893  0.00  0.00    +0.000 A 
ATOM     20  C   UNL     1      47.296   5.571  13.939  0.00  0.00    +0.000 A 
ATOM     21  F   UNL     1      48.314   5.802  14.774  0.00  0.00    +0.000 F 
ATOM     22  C   UNL     1      46.476   4.472  14.107  0.00  0.00    +0.000 A 
ATOM     23  N   UNL     1      45.413   4.198  13.309  0.00  0.00    +0.000 NA
ENDBRANCH  14  17
ENDBRANCH   5  14
TORSDOF 3
ENDMDL
MODEL 2
REMARK VINA RESULT:    -6.606      3.686      6.237
REMARK INTER + INTRA:          -8.307
REMARK INTER:                  -7.919
REMARK INTRA:                  -0.388
REMARK UNBOUND:                -0.542
REMARK  Name = 
REMARK  3 active torsions:
REMARK  status: ('A' for Active; 'I' for Inactive)
REMARK    1  A    between atoms: C_2  and  C_4
REMARK    2  A    between atoms: N_8  and  C_9
REMARK    3  A    between atoms: C_9  and  C_10
REMARK                            x       y       z     vdW  Elec       q    Type
REMARK                         _______ _______ _______ _____ _____    ______ ____
ROOT
ATOM      1  C   UNL     1      48.413   6.711  13.691  0.00  0.00    +0.000 A 
ATOM      2  C   UNL     1      47.546   5.688  14.069  0.00  0.00    +0.000 A 
ATOM      3  C   UNL     1      46.380   5.473  13.332  0.00  0.00    +0.000 A 
ATOM      4  C   UNL     1      46.094   6.280  12.237  0.00  0.00    +0.000 A 
ATOM      5  N   UNL     1      44.908   6.191  11.506  0.00  0.00    +0.000 N 
ATOM      6  N   UNL     1      46.926   7.282  11.869  0.00  0.00    +0.000 NA
ATOM      7  C   UNL     1      48.051   7.482  12.598  0.00  0.00    +0.000 A 
ATOM      8  H   UNL     1      44.988   6.847  10.728  0.00  0.00    +0.000 HD
ENDROOT
BRANCH   1  10
ATOM      9  N   UNL     1      50.586   7.794  13.764  0.00  0.00    +0.000 N 
ATOM     10  C   UNL     1      49.662   7.023  14.415  0.00  0.00    +0.000 C 
ATOM     11  O   UNL     1      49.850   6.640  15.561  0.00  0.00    +0.000 OA
ATOM     12  H   UNL     1      51.390   8.081  14.306  0.00  0.00    +0.000 HD
ATOM     13  H   UNL     1      50.371   8.324  12.932  0.00  0.00    +0.000 HD
ENDBRANCH   1  10
BRANCH   5  14
ATOM     14  C   UNL     1      44.186   4.939  11.210  0.00  0.00    +0.000 C 
ATOM     15  C   UNL     1      42.664   5.061  11.283  0.00  0.00    +0.000 C 
ATOM     16  C   UNL     1      43.381   4.185  12.254  0.00  0.00    +0.000 C 
BRANCH  14  17
ATOM     17  C   UNL     1      44.749   4.128  10.030  0.00  0.00    +0.000 A 
ATOM     18  C   UNL     1      45.433   4.765   8.987  0.00  0.00    +0.000 A 
ATOM     19  C   UNL     1      46.015   4.007   7.968  0.00  0.00    +0.000 A 
ATOM     20  C   UNL     1      45.890   2.631   8.006  0.00  0.00    +0.000 A 
ATOM     21  F   UNL     1      46.453   1.874   7.059  0.00  0.00    +0.000 F 
ATOM     22  C   UNL     1      45.180   2.058   9.043  0.00  0.00    +0.000 A 
ATOM     23  N   UNL     1      44.607   2.771  10.046  0.00  0.00    +0.000 NA
ENDBRANCH  14  17
ENDBRANCH   5  14
TORSDOF 3
ENDMDL
MODEL 3
REMARK VINA RESULT:    -6.362      3.545      6.477
REMARK INTER + INTRA:          -8.019
REMARK INTER:                  -8.422
REMARK INTRA:                   0.403
REMARK UNBOUND:                -0.542
REMARK  Name = 
REMARK  3 active torsions:
REMARK  status: ('A' for Active; 'I' for Inactive)
REMARK    1  A    between atoms: C_2  and  C_4
REMARK    2  A    between atoms: N_8  and  C_9
REMARK    3  A    between atoms: C_9  and  C_10
REMARK                            x       y       z     vdW  Elec       q    Type
REMARK                         _______ _______ _______ _____ _____    ______ ____
ROOT
ATOM      1  C   UNL     1      47.851   5.937  14.492  0.00  0.00    +0.000 A 
ATOM      2  C   UNL     1      47.515   6.128  13.154  0.00  0.00    +0.000 A 
ATOM      3  C   UNL     1      46.717   5.183  12.507  0.00  0.00    +0.000 A 
ATOM      4  C   UNL     1      46.271   4.063  13.199  0.00  0.00    +0.000 A 
ATOM      5  N   UNL     1      45.550   3.028  12.602  0.00  0.00    +0.000 N 
ATOM      6  N   UNL     1      46.601   3.864  14.496  0.00  0.00    +0.000 NA
ATOM      7  C   UNL     1      47.381   4.788  15.109  0.00  0.00    +0.000 A 
ATOM      8  H   UNL     1      45.298   2.373  13.343  0.00  0.00    +0.000 HD
ENDROOT
BRANCH   1  10
ATOM      9  N   UNL     1      48.116   8.034  15.688  0.00  0.00    +0.000 N 
ATOM     10  C   UNL     1      48.698   6.873  15.257  0.00  0.00    +0.000 C 
ATOM     11  O   UNL     1      49.862   6.609  15.526  0.00  0.00    +0.000 OA
ATOM     12  H   UNL     1      48.679   8.618  16.293  0.00  0.00    +0.000 HD
ATOM     13  H   UNL     1      47.118   8.176  15.701  0.00  0.00    +0.000 HD
ENDBRANCH   1  10
BRANCH   5  14
ATOM     14  C   UNL     1      44.543   3.200  11.538  0.00  0.00    +0.000 C 
ATOM     15  C   UNL     1      43.421   4.178  11.889  0.00  0.00    +0.000 C 
ATOM     16  C   UNL     1      43.104   2.736  11.680  0.00  0.00    +0.000 C 
BRANCH  14  17
ATOM     17  C   UNL     1      45.115   3.303  10.113  0.00  0.00    +0.000 A 
ATOM     18  C   UNL     1      45.348   2.151   9.351  0.00  0.00    +0.000 A 
ATOM     19  C   UNL     1      45.782   2.264   8.029  0.00  0.00    +0.000 A 
ATOM     20  C   UNL     1      45.988   3.524   7.500  0.00  0.00    +0.000 A 
ATOM     21  F   UNL     1      46.383   3.670   6.231  0.00  0.00    +0.000 F 
ATOM     22  C   UNL     1      45.770   4.625   8.305  0.00  0.00    +0.000 A 
ATOM     23  N   UNL     1      45.345   4.543   9.592  0.00  0.00    +0.000 NA
ENDBRANCH  14  17
ENDBRANCH   5  14
TORSDOF 3
ENDMDL
MODEL 4
REMARK VINA RESULT:    -5.690      4.017      6.452
REMARK INTER + INTRA:          -7.229
REMARK INTER:                  -7.477
REMARK INTRA:                   0.248
REMARK UNBOUND:                -0.542
REMARK  Name = 
REMARK  3 active torsions:
REMARK  status: ('A' for Active; 'I' for Inactive)
REMARK    1  A    between atoms: C_2  and  C_4
REMARK    2  A    between atoms: N_8  and  C_9
REMARK    3  A    between atoms: C_9  and  C_10
REMARK                            x       y       z     vdW  Elec       q    Type
REMARK                         _______ _______ _______ _____ _____    ______ ____
ROOT
ATOM      1  C   UNL     1      45.327   8.840  11.940  0.00  0.00    +0.000 A 
ATOM      2  C   UNL     1      45.913   7.711  12.506  0.00  0.00    +0.000 A 
ATOM      3  C   UNL     1      45.341   6.457  12.279  0.00  0.00    +0.000 A 
ATOM      4  C   UNL     1      44.196   6.349  11.498  0.00  0.00    +0.000 A 
ATOM      5  N   UNL     1      43.512   5.149  11.299  0.00  0.00    +0.000 N 
ATOM      6  N   UNL     1      43.616   7.443  10.952  0.00  0.00    +0.000 NA
ATOM      7  C   UNL     1      44.179   8.653  11.186  0.00  0.00    +0.000 A 
ATOM      8  H   UNL     1      42.757   5.342  10.640  0.00  0.00    +0.000 HD
ENDROOT
BRANCH   1  10
ATOM      9  N   UNL     1      44.957  11.239  12.033  0.00  0.00    +0.000 N 
ATOM     10  C   UNL     1      45.850  10.207  12.134  0.00  0.00    +0.000 C 
ATOM     11  O   UNL     1      47.025  10.410  12.408  0.00  0.00    +0.000 OA
ATOM     12  H   UNL     1      45.310  12.159  12.265  0.00  0.00    +0.000 HD
ATOM     13  H   UNL     1      43.958  11.104  12.053  0.00  0.00    +0.000 HD
ENDBRANCH   1  10
BRANCH   5  14
ATOM     14  C   UNL     1      44.146   3.823  11.168  0.00  0.00    +0.000 C 
ATOM     15  C   UNL     1      43.259   2.658  11.607  0.00  0.00    +0.000 C 
ATOM     16  C   UNL     1      44.508   2.960  12.364  0.00  0.00    +0.000 C 
BRANCH  14  17
ATOM     17  C   UNL     1      44.955   3.615   9.875  0.00  0.00    +0.000 A 
ATOM     18  C   UNL     1      45.135   2.332   9.344  0.00  0.00    +0.000 A 
ATOM     19  C   UNL     1      45.794   2.167   8.124  0.00  0.00    +0.000 A 
ATOM     20  C   UNL     1      46.271   3.286   7.467  0.00  0.00    +0.000 A 
ATOM     21  F   UNL     1      46.887   3.167   6.287  0.00  0.00    +0.000 F 
ATOM     22  C   UNL     1      46.090   4.525   8.051  0.00  0.00    +0.000 A 
ATOM     23  N   UNL     1      45.451   4.712   9.234  0.00  0.00    +0.000 NA
ENDBRANCH  14  17
ENDBRANCH   5  14
TORSDOF 3
ENDMDL
MODEL 5
REMARK VINA RESULT:    -5.533      3.673      6.396
REMARK INTER + INTRA:          -7.045
REMARK INTER:                  -7.491
REMARK INTRA:                   0.446
REMARK UNBOUND:                -0.542
REMARK  Name = 
REMARK  3 active torsions:
REMARK  status: ('A' for Active; 'I' for Inactive)
REMARK    1  A    between atoms: C_2  and  C_4
REMARK    2  A    between atoms: N_8  and  C_9
REMARK    3  A    between atoms: C_9  and  C_10
REMARK                            x       y       z     vdW  Elec       q    Type
REMARK                         _______ _______ _______ _____ _____    ______ ____
ROOT
ATOM      1  C   UNL     1      48.779   7.323  13.744  0.00  0.00    +0.000 A 
ATOM      2  C   UNL     1      48.086   7.294  12.536  0.00  0.00    +0.000 A 
ATOM      3  C   UNL     1      47.130   6.299  12.320  0.00  0.00    +0.000 A 
ATOM      4  C   UNL     1      46.883   5.350  13.305  0.00  0.00    +0.000 A 
ATOM      5  N   UNL     1      46.014   4.272  13.132  0.00  0.00    +0.000 N 
ATOM      6  N   UNL     1      47.558   5.366  14.477  0.00  0.00    +0.000 NA
ATOM      7  C   UNL     1      48.488   6.334  14.670  0.00  0.00    +0.000 A 
ATOM      8  H   UNL     1      45.972   3.777  14.024  0.00  0.00    +0.000 HD
ENDROOT
BRANCH   1  10
ATOM      9  N   UNL     1      50.035   8.605  15.380  0.00  0.00    +0.000 N 
ATOM     10  C   UNL     1      49.815   8.327  14.059  0.00  0.00    +0.000 C 
ATOM     11  O   UNL     1      50.476   8.862  13.180  0.00  0.00    +0.000 OA
ATOM     12  H   UNL     1      50.813   9.219  15.584  0.00  0.00    +0.000 HD
ATOM     13  H   UNL     1      49.694   8.021  16.129  0.00  0.00    +0.000 HD
ENDBRANCH   1  10
BRANCH   5  14
ATOM     14  C   UNL     1      44.752   4.314  12.369  0.00  0.00    +0.000 C 
ATOM     15  C   UNL     1      43.828   5.471  12.748  0.00  0.00    +0.000 C 
ATOM     16  C   UNL     1      43.395   4.068  13.004  0.00  0.00    +0.000 C 
BRANCH  14  17
ATOM     17  C   UNL     1      44.893   4.020  10.865  0.00  0.00    +0.000 A 
ATOM     18  C   UNL     1      45.359   5.004   9.985  0.00  0.00    +0.000 A 
ATOM     19  C   UNL     1      45.566   4.696   8.638  0.00  0.00    +0.000 A 
ATOM     20  C   UNL     1      45.291   3.415   8.198  0.00  0.00    +0.000 A 
ATOM     21  F   UNL     1      45.499   3.079   6.920  0.00  0.00    +0.000 F 
ATOM     22  C   UNL     1      44.807   2.492   9.104  0.00  0.00    +0.000 A 
ATOM     23  N   UNL     1      44.599   2.765  10.417  0.00  0.00    +0.000 NA
ENDBRANCH  14  17
ENDBRANCH   5  14
TORSDOF 3
ENDMDL
