MODEL 1
REMARK VINA RESULT:    -7.044      0.000      0.000
REMARK INTER + INTRA:         -11.370
REMARK INTER:                 -10.133
REMARK INTRA:                  -1.237
REMARK UNBOUND:                -1.237
REMARK  Name = 
REMARK  8 active torsions:
REMARK  status: ('A' for Active; 'I' for Inactive)
REMARK    1  A    between atoms: N_1  and  C_2
REMARK    2  A    between atoms: C_2  and  C_3
REMARK    3  A    between atoms: C_3  and  N_4
REMARK    4  A    between atoms: C_3  and  C_17
REMARK    5  A    between atoms: C_5  and  C_7
REMARK    6  A    between atoms: C_20  and  C_21
REMARK    7  A    between atoms: C_21  and  N_22
REMARK    8  A    between atoms: C_23  and  C_25
REMARK                            x       y       z     vdW  Elec       q    Type
REMARK                         _______ _______ _______ _____ _____    ______ ____
ROOT
ATOM      1  C   UNL     1      47.699   6.962  13.441  0.00  0.00    +0.000 C 
ENDROOT
BRANCH   1   2
ATOM      2  C   UNL     1      46.786   6.095  12.567  0.00  0.00    +0.000 A 
ATOM      3  C   UNL     1      46.510   6.467  11.244  0.00  0.00    +0.000 A 
ATOM      4  C   UNL     1      45.635   5.710  10.450  0.00  0.00    +0.000 A 
ATOM      5  C   UNL     1      45.018   4.561  10.964  0.00  0.00    +0.000 A 
ATOM      6  C   UNL     1      45.332   4.160  12.268  0.00  0.00    +0.000 A 
ATOM      7  C   UNL     1      46.204   4.915  13.059  0.00  0.00    +0.000 A 
BRANCH   5   8
ATOM      8  C   UNL     1      44.009   3.784  10.159  0.00  0.00    +0.000 C 
BRANCH   8   9
ATOM      9  N   UNL     1      44.407   3.578   8.786  0.00  0.00    +0.000 N 
ATOM     10  C   UNL     1      45.245   2.518   8.481  0.00  0.00    +0.000 C 
ATOM     11  O   UNL     1      45.641   1.729   9.335  0.00  0.00    +0.000 OA
ATOM     12  H   UNL     1      44.315   4.339   8.124  0.00  0.00    +0.000 HD
BRANCH  10  13
ATOM     13  C   UNL     1      45.620   2.418   6.985  0.00  0.00    +0.000 C 
ATOM     14  C   UNL     1      46.416   3.615   6.493  0.00  0.00    +0.000 C 
ATOM     15  C   UNL     1      47.831   3.306   6.946  0.00  0.00    +0.000 C 
ATOM     16  C   UNL     1      47.906   1.786   6.953  0.00  0.00    +0.000 C 
ATOM     17  N   UNL     1      46.540   1.282   6.755  0.00  0.00    +0.000 NA
ATOM     18  H   UNL     1      46.350   0.530   7.417  0.00  0.00    +0.000 HD
ENDBRANCH  10  13
ENDBRANCH   8   9
ENDBRANCH   5   8
ENDBRANCH   1   2
BRANCH   1  19
ATOM     19  N   UNL     1      47.698   6.418  14.788  0.00  0.00    +0.000 N 
ATOM     20  C   UNL     1      48.832   6.272  15.544  0.00  0.00    +0.000 C 
ATOM     21  O   UNL     1      49.932   6.702  15.211  0.00  0.00    +0.000 OA
ATOM     22  H   UNL     1      46.911   5.818  15.000  0.00  0.00    +0.000 HD
BRANCH  20  23
ATOM     23  C   UNL     1      48.630   5.605  16.831  0.00  0.00    +0.000 A 
ATOM     24  C   UNL     1      48.732   4.227  16.943  0.00  0.00    +0.000 A 
ATOM     25  S   UNL     1      48.471   3.665  18.536  0.00  0.00    +0.000 S 
ATOM     26  C   UNL     1      48.162   5.238  19.107  0.00  0.00    +0.000 A 
ATOM     27  N   UNL     1      47.828   5.472  20.403  0.00  0.00    +0.000 NA
ATOM     28  C   UNL     1      47.589   6.712  20.680  0.00  0.00    +0.000 A 
ATOM     29  N   UNL     1      47.668   7.743  19.782  0.00  0.00    +0.000 N 
ATOM     30  C   UNL     1      48.049   7.558  18.482  0.00  0.00    +0.000 A 
ATOM     31  O   UNL     1      48.200   8.521  17.730  0.00  0.00    +0.000 OA
ATOM     32  C   UNL     1      48.292   6.183  18.106  0.00  0.00    +0.000 A 
ATOM     33  H   UNL     1      47.498   8.697  20.061  0.00  0.00    +0.000 HD
ENDBRANCH  20  23
ENDBRANCH   1  19
BRANCH   1  34
ATOM     34  C   UNL     1      47.266   8.457  13.434  0.00  0.00    +0.000 C 
BRANCH  34  35
ATOM     35  N   UNL     1      47.123   9.057  14.765  0.00  0.00    +0.000 NA
ATOM     36  H   UNL     1      47.462   8.391  15.458  0.00  0.00    +0.000 HD
ATOM     37  H   UNL     1      46.136   9.207  14.968  0.00  0.00    +0.000 HD
ENDBRANCH  34  35
ENDBRANCH   1  34
TORSDOF 8
ENDMDL
MODEL 2
REMARK VINA RESULT:    -6.973      1.564      2.346
REMARK INTER + INTRA:         -11.268
REMARK INTER:                  -9.897
REMARK INTRA:                  -1.371
REMARK UNBOUND:                -1.237
REMARK  Name = 
REMARK  8 active torsions:
REMARK  status: ('A' for Active; 'I' for Inactive)
REMARK    1  A    between atoms: N_1  and  C_2
REMARK    2  A    between atoms: C_2  and  C_3
REMARK    3  A    between atoms: C_3  and  N_4
REMARK    4  A    between atoms: C_3  and  C_17
REMARK    5  A    between atoms: C_5  and  C_7
REMARK    6  A    between atoms: C_20  and  C_21
REMARK    7  A    between atoms: C_21  and  N_22
REMARK    8  A    between atoms: C_23  and  C_25
REMARK                            x       y       z     vdW  Elec       q    Type
REMARK                         _______ _______ _______ _____ _____    ______ ____
ROOT
ATOM      1  C   UNL     1      47.443   7.515  12.713  0.00  0.00    +0.000 C 
ENDROOT
BRANCH   1   2
ATOM      2  C   UNL     1      46.528   6.526  11.983  0.00  0.00    +0.000 A 
ATOM      3  C   UNL     1      45.718   5.641  12.710  0.00  0.00    +0.000 A 
ATOM      4  C   UNL     1      44.915   4.696  12.055  0.00  0.00    +0.000 A 
ATOM      5  C   UNL     1      44.903   4.616  10.655  0.00  0.00    +0.000 A 
ATOM      6  C   UNL     1      45.672   5.532   9.927  0.00  0.00    +0.000 A 
ATOM      7  C   UNL     1      46.473   6.473  10.580  0.00  0.00    +0.000 A 
BRANCH   5   8
ATOM      8  C   UNL     1      44.116   3.552   9.935  0.00  0.00    +0.000 C 
BRANCH   8   9
ATOM      9  N   UNL     1      44.546   3.345   8.572  0.00  0.00    +0.000 N 
ATOM     10  C   UNL     1      45.391   2.286   8.288  0.00  0.00    +0.000 C 
ATOM     11  O   UNL     1      45.768   1.499   9.152  0.00  0.00    +0.000 OA
ATOM     12  H   UNL     1      44.468   4.106   7.907  0.00  0.00    +0.000 HD
BRANCH  10  13
ATOM     13  C   UNL     1      45.802   2.184   6.802  0.00  0.00    +0.000 C 
ATOM     14  C   UNL     1      46.433   3.462   6.273  0.00  0.00    +0.000 C 
ATOM     15  C   UNL     1      47.869   3.368   6.754  0.00  0.00    +0.000 C 
ATOM     16  C   UNL     1      48.153   1.875   6.820  0.00  0.00    +0.000 C 
ATOM     17  N   UNL     1      46.873   1.179   6.626  0.00  0.00    +0.000 NA
ATOM     18  H   UNL     1      46.778   0.433   7.315  0.00  0.00    +0.000 HD
ENDBRANCH  10  13
ENDBRANCH   8   9
ENDBRANCH   5   8
ENDBRANCH   1   2
BRANCH   1  19
ATOM     19  N   UNL     1      47.542   7.108  14.104  0.00  0.00    +0.000 N 
ATOM     20  C   UNL     1      48.732   7.000  14.776  0.00  0.00    +0.000 C 
ATOM     21  O   UNL     1      49.810   7.357  14.312  0.00  0.00    +0.000 OA
ATOM     22  H   UNL     1      46.761   6.559  14.440  0.00  0.00    +0.000 HD
BRANCH  20  23
ATOM     23  C   UNL     1      48.622   6.472  16.136  0.00  0.00    +0.000 A 
ATOM     24  C   UNL     1      48.982   7.243  17.231  0.00  0.00    +0.000 A 
ATOM     25  S   UNL     1      48.762   6.433  18.720  0.00  0.00    +0.000 S 
ATOM     26  C   UNL     1      48.230   5.017  17.942  0.00  0.00    +0.000 A 
ATOM     27  N   UNL     1      47.906   3.899  18.644  0.00  0.00    +0.000 NA
ATOM     28  C   UNL     1      47.552   2.891  17.913  0.00  0.00    +0.000 A 
ATOM     29  N   UNL     1      47.479   2.904  16.547  0.00  0.00    +0.000 N 
ATOM     30  C   UNL     1      47.748   4.022  15.805  0.00  0.00    +0.000 A 
ATOM     31  O   UNL     1      47.580   4.022  14.587  0.00  0.00    +0.000 OA
ATOM     32  C   UNL     1      48.186   5.170  16.569  0.00  0.00    +0.000 A 
ATOM     33  H   UNL     1      47.170   2.096  16.029  0.00  0.00    +0.000 HD
ENDBRANCH  20  23
ENDBRANCH   1  19
BRANCH   1  34
ATOM     34  C   UNL     1      46.936   8.981  12.587  0.00  0.00    +0.000 C 
BRANCH  34  35
ATOM     35  N   UNL     1      45.618   9.225  13.184  0.00  0.00    +0.000 NA
ATOM     36  H   UNL     1      44.969   8.524  12.830  0.00  0.00    +0.000 HD
ATOM     37  H   UNL     1      45.264  10.128  12.873  0.00  0.00    +0.000 HD
ENDBRANCH  34  35
ENDBRANCH   1  34
TORSDOF 8
ENDMDL
MODEL 3
REMARK VINA RESULT:    -6.960      2.632      3.689
REMARK INTER + INTRA:         -11.249
REMARK INTER:                  -9.870
REMARK INTRA:                  -1.379
REMARK UNBOUND:                -1.237
REMARK  Name = 
REMARK  8 active torsions:
REMARK  status: ('A' for Active; 'I' for Inactive)
REMARK    1  A    between atoms: N_1  and  C_2
REMARK    2  A    between atoms: C_2  and  C_3
REMARK    3  A    between atoms: C_3  and  N_4
REMARK    4  A    between atoms: C_3  and  C_17
REMARK    5  A    between atoms: C_5  and  C_7
REMARK    6  A    between atoms: C_20  and  C_21
REMARK    7  A    between atoms: C_21  and  N_22
REMARK    8  A    between atoms: C_23  and  C_25
REMARK                            x       y       z     vdW  Elec       q    Type
REMARK                         _______ _______ _______ _____ _____    ______ ____
ROOT
ATOM      1  C   UNL     1      47.240   4.209  15.825  0.00  0.00    +0.000 C 
ENDROOT
BRANCH   1   2
ATOM      2  C   UNL     1      46.809   4.686  14.434  0.00  0.00    +0.000 A 
ATOM      3  C   UNL     1      47.283   5.905  13.926  0.00  0.00    +0.000 A 
ATOM      4  C   UNL     1      46.856   6.378  12.676  0.00  0.00    +0.000 A 
ATOM      5  C   UNL     1      45.947   5.641  11.905  0.00  0.00    +0.000 A 
ATOM      6  C   UNL     1      45.513   4.400  12.389  0.00  0.00    +0.000 A 
ATOM      7  C   UNL     1      45.938   3.929  13.634  0.00  0.00    +0.000 A 
BRANCH   5   8
ATOM      8  C   UNL     1      45.409   6.171  10.602  0.00  0.00    +0.000 C 
BRANCH   8   9
ATOM      9  N   UNL     1      44.872   5.142   9.742  0.00  0.00    +0.000 N 
ATOM     10  C   UNL     1      45.593   4.759   8.623  0.00  0.00    +0.000 C 
ATOM     11  O   UNL     1      46.687   5.245   8.350  0.00  0.00    +0.000 OA
ATOM     12  H   UNL     1      43.886   4.918   9.793  0.00  0.00    +0.000 HD
BRANCH  10  13
ATOM     13  C   UNL     1      44.905   3.670   7.769  0.00  0.00    +0.000 C 
ATOM     14  C   UNL     1      45.872   2.936   6.854  0.00  0.00    +0.000 C 
ATOM     15  C   UNL     1      46.517   1.914   7.773  0.00  0.00    +0.000 C 
ATOM     16  C   UNL     1      45.452   1.613   8.817  0.00  0.00    +0.000 C 
ATOM     17  N   UNL     1      44.371   2.593   8.632  0.00  0.00    +0.000 NA
ATOM     18  H   UNL     1      44.088   2.969   9.537  0.00  0.00    +0.000 HD
ENDBRANCH  10  13
ENDBRANCH   8   9
ENDBRANCH   5   8
ENDBRANCH   1   2
BRANCH   1  19
ATOM     19  N   UNL     1      48.107   5.217  16.409  0.00  0.00    +0.000 N 
ATOM     20  C   UNL     1      47.975   5.674  17.695  0.00  0.00    +0.000 C 
ATOM     21  O   UNL     1      47.202   5.187  18.514  0.00  0.00    +0.000 OA
ATOM     22  H   UNL     1      48.557   5.827  15.738  0.00  0.00    +0.000 HD
BRANCH  20  23
ATOM     23  C   UNL     1      48.879   6.767  18.054  0.00  0.00    +0.000 A 
ATOM     24  C   UNL     1      48.393   7.943  18.603  0.00  0.00    +0.000 A 
ATOM     25  S   UNL     1      49.623   9.076  18.956  0.00  0.00    +0.000 S 
ATOM     26  C   UNL     1      50.831   8.050  18.338  0.00  0.00    +0.000 A 
ATOM     27  N   UNL     1      52.136   8.428  18.300  0.00  0.00    +0.000 NA
ATOM     28  C   UNL     1      52.932   7.557  17.771  0.00  0.00    +0.000 A 
ATOM     29  N   UNL     1      52.545   6.335  17.289  0.00  0.00    +0.000 N 
ATOM     30  C   UNL     1      51.251   5.895  17.353  0.00  0.00    +0.000 A 
ATOM     31  O   UNL     1      50.959   4.754  16.997  0.00  0.00    +0.000 OA
ATOM     32  C   UNL     1      50.309   6.846  17.902  0.00  0.00    +0.000 A 
ATOM     33  H   UNL     1      53.214   5.682  16.912  0.00  0.00    +0.000 HD
ENDBRANCH  20  23
ENDBRANCH   1  19
BRANCH   1  34
ATOM     34  C   UNL     1      47.942   2.820  15.775  0.00  0.00    +0.000 C 
BRANCH  34  35
ATOM     35  N   UNL     1      49.095   2.686  16.672  0.00  0.00    +0.000 NA
ATOM     36  H   UNL     1      48.791   2.209  17.519  0.00  0.00    +0.000 HD
ATOM     37  H   UNL     1      49.413   3.611  16.960  0.00  0.00    +0.000 HD
ENDBRANCH  34  35
ENDBRANCH   1  34
TORSDOF 8
ENDMDL
MODEL 4
REMARK VINA RESULT:    -6.902      1.733      2.409
REMARK INTER + INTRA:         -11.166
REMARK INTER:                 -10.020
REMARK INTRA:                  -1.146
REMARK UNBOUND:                -1.237
REMARK  Name = 
REMARK  8 active torsions:
REMARK  status: ('A' for Active; 'I' for Inactive)
REMARK    1  A    between atoms: N_1  and  C_2
REMARK    2  A    between atoms: C_2  and  C_3
REMARK    3  A    between atoms: C_3  and  N_4
REMARK    4  A    between atoms: C_3  and  C_17
REMARK    5  A    between atoms: C_5  and  C_7
REMARK    6  A    between atoms: C_20  and  C_21
REMARK    7  A    between atoms: C_21  and  N_22
REMARK    8  A    between atoms: C_23  and  C_25
REMARK                            x       y       z     vdW  Elec       q    Type
REMARK                         _______ _______ _______ _____ _____    ______ ____
ROOT
ATOM      1  C   UNL     1      48.533   6.637  13.478  0.00  0.00    +0.000 C 
ENDROOT
BRANCH   1   2
ATOM      2  C   UNL     1      47.183   6.302  12.834  0.00  0.00    +0.000 A 
ATOM      3  C   UNL     1      46.241   5.527  13.527  0.00  0.00    +0.000 A 
ATOM      4  C   UNL     1      45.023   5.171  12.930  0.00  0.00    +0.000 A 
ATOM      5  C   UNL     1      44.719   5.584  11.625  0.00  0.00    +0.000 A 
ATOM      6  C   UNL     1      45.636   6.400  10.952  0.00  0.00    +0.000 A 
ATOM      7  C   UNL     1      46.850   6.755  11.547  0.00  0.00    +0.000 A 
BRANCH   5   8
ATOM      8  C   UNL     1      43.456   5.141  10.934  0.00  0.00    +0.000 C 
BRANCH   8   9
ATOM      9  N   UNL     1      43.698   4.428   9.700  0.00  0.00    +0.000 N 
ATOM     10  C   UNL     1      44.204   3.140   9.757  0.00  0.00    +0.000 C 
ATOM     11  O   UNL     1      44.430   2.571  10.821  0.00  0.00    +0.000 OA
ATOM     12  H   UNL     1      43.768   4.948   8.834  0.00  0.00    +0.000 HD
BRANCH  10  13
ATOM     13  C   UNL     1      44.444   2.493   8.374  0.00  0.00    +0.000 C 
ATOM     14  C   UNL     1      44.859   3.500   7.314  0.00  0.00    +0.000 C 
ATOM     15  C   UNL     1      46.344   3.684   7.569  0.00  0.00    +0.000 C 
ATOM     16  C   UNL     1      46.800   2.353   8.148  0.00  0.00    +0.000 C 
ATOM     17  N   UNL     1      45.593   1.563   8.428  0.00  0.00    +0.000 NA
ATOM     18  H   UNL     1      45.665   1.139   9.353  0.00  0.00    +0.000 HD
ENDBRANCH  10  13
ENDBRANCH   8   9
ENDBRANCH   5   8
ENDBRANCH   1   2
BRANCH   1  19
ATOM     19  N   UNL     1      48.326   6.837  14.901  0.00  0.00    +0.000 N 
ATOM     20  C   UNL     1      49.332   6.757  15.830  0.00  0.00    +0.000 C 
ATOM     21  O   UNL     1      50.518   6.638  15.539  0.00  0.00    +0.000 OA
ATOM     22  H   UNL     1      47.380   6.668  15.218  0.00  0.00    +0.000 HD
BRANCH  20  23
ATOM     23  C   UNL     1      48.895   6.885  17.220  0.00  0.00    +0.000 A 
ATOM     24  C   UNL     1      48.458   8.102  17.721  0.00  0.00    +0.000 A 
ATOM     25  S   UNL     1      47.985   8.018  19.362  0.00  0.00    +0.000 S 
ATOM     26  C   UNL     1      48.399   6.371  19.461  0.00  0.00    +0.000 A 
ATOM     27  N   UNL     1      48.274   5.675  20.622  0.00  0.00    +0.000 NA
ATOM     28  C   UNL     1      48.661   4.443  20.553  0.00  0.00    +0.000 A 
ATOM     29  N   UNL     1      49.146   3.838  19.425  0.00  0.00    +0.000 N 
ATOM     30  C   UNL     1      49.240   4.487  18.224  0.00  0.00    +0.000 A 
ATOM     31  O   UNL     1      49.591   3.883  17.211  0.00  0.00    +0.000 OA
ATOM     32  C   UNL     1      48.857   5.881  18.252  0.00  0.00    +0.000 A 
ATOM     33  H   UNL     1      49.406   2.864  19.420  0.00  0.00    +0.000 HD
ENDBRANCH  20  23
ENDBRANCH   1  19
BRANCH   1  34
ATOM     34  C   UNL     1      49.200   7.881  12.822  0.00  0.00    +0.000 C 
BRANCH  34  35
ATOM     35  N   UNL     1      50.635   7.733  12.552  0.00  0.00    +0.000 NA
ATOM     36  H   UNL     1      51.153   8.221  13.281  0.00  0.00    +0.000 HD
ATOM     37  H   UNL     1      50.866   8.196  11.674  0.00  0.00    +0.000 HD
ENDBRANCH  34  35
ENDBRANCH   1  34
TORSDOF 8
ENDMDL
MODEL 5
REMARK VINA RESULT:    -6.810      4.192      6.261
REMARK INTER + INTRA:         -11.034
REMARK INTER:                  -9.533
REMARK INTRA:                  -1.501
REMARK UNBOUND:                -1.237
REMARK  Name = 
REMARK  8 active torsions:
REMARK  status: ('A' for Active; 'I' for Inactive)
REMARK    1  A    between atoms: N_1  and  C_2
REMARK    2  A    between atoms: C_2  and  C_3
REMARK    3  A    between atoms: C_3  and  N_4
REMARK    4  A    between atoms: C_3  and  C_17
REMARK    5  A    between atoms: C_5  and  C_7
REMARK    6  A    between atoms: C_20  and  C_21
REMARK    7  A    between atoms: C_21  and  N_22
REMARK    8  A    between atoms: C_23  and  C_25
REMARK                            x       y       z     vdW  Elec       q    Type
REMARK                         _______ _______ _______ _____ _____    ______ ____
ROOT
ATOM      1  C   UNL     1      48.947   4.538  17.777  0.00  0.00    +0.000 C 
ENDROOT
BRANCH   1   2
ATOM      2  C   UNL     1      48.505   5.153  16.444  0.00  0.00    +0.000 A 
ATOM      3  C   UNL     1      47.525   4.523  15.664  0.00  0.00    +0.000 A 
ATOM      4  C   UNL     1      47.149   5.047  14.419  0.00  0.00    +0.000 A 
ATOM      5  C   UNL     1      47.745   6.215  13.926  0.00  0.00    +0.000 A 
ATOM      6  C   UNL     1      48.688   6.873  14.726  0.00  0.00    +0.000 A 
ATOM      7  C   UNL     1      49.063   6.350  15.967  0.00  0.00    +0.000 A 
BRANCH   5   8
ATOM      8  C   UNL     1      47.420   6.746  12.554  0.00  0.00    +0.000 C 
BRANCH   8   9
ATOM      9  N   UNL     1      46.572   5.865  11.785  0.00  0.00    +0.000 N 
ATOM     10  C   UNL     1      45.376   6.352  11.286  0.00  0.00    +0.000 C 
ATOM     11  O   UNL     1      45.021   7.516  11.452  0.00  0.00    +0.000 OA
ATOM     12  H   UNL     1      46.707   4.864  11.853  0.00  0.00    +0.000 HD
BRANCH  10  13
ATOM     13  C   UNL     1      44.546   5.310  10.503  0.00  0.00    +0.000 C 
ATOM     14  C   UNL     1      44.576   3.930  11.139  0.00  0.00    +0.000 C 
ATOM     15  C   UNL     1      43.543   4.031  12.247  0.00  0.00    +0.000 C 
ATOM     16  C   UNL     1      42.537   5.052  11.737  0.00  0.00    +0.000 C 
ATOM     17  N   UNL     1      43.110   5.663  10.529  0.00  0.00    +0.000 NA
ATOM     18  H   UNL     1      42.992   6.675  10.565  0.00  0.00    +0.000 HD
ENDBRANCH  10  13
ENDBRANCH   8   9
ENDBRANCH   5   8
ENDBRANCH   1   2
BRANCH   1  19
ATOM     19  N   UNL     1      50.311   4.061  17.634  0.00  0.00    +0.000 N 
ATOM     20  C   UNL     1      51.250   4.146  18.629  0.00  0.00    +0.000 C 
ATOM     21  O   UNL     1      50.998   4.513  19.772  0.00  0.00    +0.000 OA
ATOM     22  H   UNL     1      50.642   4.010  16.678  0.00  0.00    +0.000 HD
BRANCH  20  23
ATOM     23  C   UNL     1      52.592   3.706  18.245  0.00  0.00    +0.000 A 
ATOM     24  C   UNL     1      53.669   4.579  18.293  0.00  0.00    +0.000 A 
ATOM     25  S   UNL     1      55.140   3.852  17.815  0.00  0.00    +0.000 S 
ATOM     26  C   UNL     1      54.372   2.371  17.483  0.00  0.00    +0.000 A 
ATOM     27  N   UNL     1      55.061   1.306  16.993  0.00  0.00    +0.000 NA
ATOM     28  C   UNL     1      54.336   0.261  16.757  0.00  0.00    +0.000 A 
ATOM     29  N   UNL     1      52.988   0.178  16.979  0.00  0.00    +0.000 N 
ATOM     30  C   UNL     1      52.266   1.208  17.517  0.00  0.00    +0.000 A 
ATOM     31  O   UNL     1      51.075   1.064  17.790  0.00  0.00    +0.000 OA
ATOM     32  C   UNL     1      53.019   2.417  17.766  0.00  0.00    +0.000 A 
ATOM     33  H   UNL     1      52.477  -0.673  16.803  0.00  0.00    +0.000 HD
ENDBRANCH  20  23
ENDBRANCH   1  19
BRANCH   1  34
ATOM     34  C   UNL     1      47.994   3.397  18.239  0.00  0.00    +0.000 C 
BRANCH  34  35
ATOM     35  N   UNL     1      48.220   2.930  19.610  0.00  0.00    +0.000 NA
ATOM     36  H   UNL     1      47.995   1.937  19.655  0.00  0.00    +0.000 HD
ATOM     37  H   UNL     1      47.574   3.400  20.243  0.00  0.00    +0.000 HD
ENDBRANCH  34  35
ENDBRANCH   1  34
TORSDOF 8
ENDMDL
MODEL 6
REMARK VINA RESULT:    -6.801      3.754      6.212
REMARK INTER + INTRA:         -11.021
REMARK INTER:                  -9.648
REMARK INTRA:                  -1.372
REMARK UNBOUND:                -1.237
REMARK  Name = 
REMARK  8 active torsions:
REMARK  status: ('A' for Active; 'I' for Inactive)
REMARK    1  A    between atoms: N_1  and  C_2
REMARK    2  A    between atoms: C_2  and  C_3
REMARK    3  A    between atoms: C_3  and  N_4
REMARK    4  A    between atoms: C_3  and  C_17
REMARK    5  A    between atoms: C_5  and  C_7
REMARK    6  A    between atoms: C_20  and  C_21
REMARK    7  A    between atoms: C_21  and  N_22
REMARK    8  A    between atoms: C_23  and  C_25
REMARK                            x       y       z     vdW  Elec       q    Type
REMARK                         _______ _______ _______ _____ _____    ______ ____
ROOT
ATOM      1  C   UNL     1      49.021   5.755  19.161  0.00  0.00    +0.000 C 
ENDROOT
BRANCH   1   2
ATOM      2  C   UNL     1      48.483   5.554  17.740  0.00  0.00    +0.000 A 
ATOM      3  C   UNL     1      47.654   4.462  17.445  0.00  0.00    +0.000 A 
ATOM      4  C   UNL     1      47.197   4.238  16.138  0.00  0.00    +0.000 A 
ATOM      5  C   UNL     1      47.558   5.104  15.096  0.00  0.00    +0.000 A 
ATOM      6  C   UNL     1      48.344   6.223  15.399  0.00  0.00    +0.000 A 
ATOM      7  C   UNL     1      48.800   6.445  16.702  0.00  0.00    +0.000 A 
BRANCH   5   8
ATOM      8  C   UNL     1      47.151   4.834  13.671  0.00  0.00    +0.000 C 
BRANCH   8   9
ATOM      9  N   UNL     1      45.782   4.391  13.541  0.00  0.00    +0.000 N 
ATOM     10  C   UNL     1      44.807   5.314  13.204  0.00  0.00    +0.000 C 
ATOM     11  O   UNL     1      45.068   6.494  12.985  0.00  0.00    +0.000 OA
ATOM     12  H   UNL     1      45.504   3.511  13.958  0.00  0.00    +0.000 HD
BRANCH  10  13
ATOM     13  C   UNL     1      43.380   4.726  13.120  0.00  0.00    +0.000 C 
ATOM     14  C   UNL     1      42.632   5.163  11.871  0.00  0.00    +0.000 C 
ATOM     15  C   UNL     1      43.162   4.228  10.799  0.00  0.00    +0.000 C 
ATOM     16  C   UNL     1      43.524   2.955  11.549  0.00  0.00    +0.000 C 
ATOM     17  N   UNL     1      43.432   3.254  12.985  0.00  0.00    +0.000 NA
ATOM     18  H   UNL     1      44.249   2.881  13.469  0.00  0.00    +0.000 HD
ENDBRANCH  10  13
ENDBRANCH   8   9
ENDBRANCH   5   8
ENDBRANCH   1   2
BRANCH   1  19
ATOM     19  N   UNL     1      50.154   4.866  19.353  0.00  0.00    +0.000 N 
ATOM     20  C   UNL     1      51.427   5.165  18.942  0.00  0.00    +0.000 C 
ATOM     21  O   UNL     1      51.757   6.257  18.491  0.00  0.00    +0.000 OA
ATOM     22  H   UNL     1      49.911   3.889  19.456  0.00  0.00    +0.000 HD
BRANCH  20  23
ATOM     23  C   UNL     1      52.402   4.091  19.133  0.00  0.00    +0.000 A 
ATOM     24  C   UNL     1      53.471   4.245  20.003  0.00  0.00    +0.000 A 
ATOM     25  S   UNL     1      54.475   2.863  20.081  0.00  0.00    +0.000 S 
ATOM     26  C   UNL     1      53.540   2.044  18.919  0.00  0.00    +0.000 A 
ATOM     27  N   UNL     1      53.874   0.798  18.487  0.00  0.00    +0.000 NA
ATOM     28  C   UNL     1      53.090   0.318  17.577  0.00  0.00    +0.000 A 
ATOM     29  N   UNL     1      51.994   0.963  17.070  0.00  0.00    +0.000 N 
ATOM     30  C   UNL     1      51.595   2.195  17.512  0.00  0.00    +0.000 A 
ATOM     31  O   UNL     1      50.552   2.700  17.100  0.00  0.00    +0.000 OA
ATOM     32  C   UNL     1      52.458   2.797  18.504  0.00  0.00    +0.000 A 
ATOM     33  H   UNL     1      51.401   0.528  16.380  0.00  0.00    +0.000 HD
ENDBRANCH  20  23
ENDBRANCH   1  19
BRANCH   1  34
ATOM     34  C   UNL     1      47.925   5.515  20.240  0.00  0.00    +0.000 C 
BRANCH  34  35
ATOM     35  N   UNL     1      48.189   4.385  21.138  0.00  0.00    +0.000 NA
ATOM     36  H   UNL     1      47.602   4.486  21.965  0.00  0.00    +0.000 HD
ATOM     37  H   UNL     1      49.154   4.426  21.464  0.00  0.00    +0.000 HD
ENDBRANCH  34  35
ENDBRANCH   1  34
TORSDOF 8
ENDMDL
MODEL 7
REMARK VINA RESULT:    -6.706      2.678      8.814
REMARK INTER + INTRA:         -10.884
REMARK INTER:                  -9.658
REMARK INTRA:                  -1.226
REMARK UNBOUND:                -1.237
REMARK  Name = 
REMARK  8 active torsions:
REMARK  status: ('A' for Active; 'I' for Inactive)
REMARK    1  A    between atoms: N_1  and  C_2
REMARK    2  A    between atoms: C_2  and  C_3
REMARK    3  A    between atoms: C_3  and  N_4
REMARK    4  A    between atoms: C_3  and  C_17
REMARK    5  A    between atoms: C_5  and  C_7
REMARK    6  A    between atoms: C_20  and  C_21
REMARK    7  A    between atoms: C_21  and  N_22
REMARK    8  A    between atoms: C_23  and  C_25
REMARK                            x       y       z     vdW  Elec       q    Type
REMARK                         _______ _______ _______ _____ _____    ______ ____
ROOT
ATOM      1  C   UNL     1      47.810   7.828  12.198  0.00  0.00    +0.000 C 
ENDROOT
BRANCH   1   2
ATOM      2  C   UNL     1      48.155   7.840  13.691  0.00  0.00    +0.000 A 
ATOM      3  C   UNL     1      48.699   6.701  14.302  0.00  0.00    +0.000 A 
ATOM      4  C   UNL     1      48.972   6.682  15.677  0.00  0.00    +0.000 A 
ATOM      5  C   UNL     1      48.707   7.805  16.474  0.00  0.00    +0.000 A 
ATOM      6  C   UNL     1      48.211   8.960  15.857  0.00  0.00    +0.000 A 
ATOM      7  C   UNL     1      47.939   8.978  14.486  0.00  0.00    +0.000 A 
BRANCH   5   8
ATOM      8  C   UNL     1      48.910   7.776  17.966  0.00  0.00    +0.000 C 
BRANCH   8   9
ATOM      9  N   UNL     1      49.313   6.482  18.465  0.00  0.00    +0.000 N 
ATOM     10  C   UNL     1      48.337   5.565  18.819  0.00  0.00    +0.000 C 
ATOM     11  O   UNL     1      47.139   5.804  18.698  0.00  0.00    +0.000 OA
ATOM     12  H   UNL     1      50.256   6.357  18.813  0.00  0.00    +0.000 HD
BRANCH  10  13
ATOM     13  C   UNL     1      48.891   4.229  19.362  0.00  0.00    +0.000 C 
ATOM     14  C   UNL     1      48.330   3.017  18.637  0.00  0.00    +0.000 C 
ATOM     15  C   UNL     1      49.172   2.940  17.377  0.00  0.00    +0.000 C 
ATOM     16  C   UNL     1      50.514   3.533  17.779  0.00  0.00    +0.000 C 
ATOM     17  N   UNL     1      50.346   4.129  19.112  0.00  0.00    +0.000 NA
ATOM     18  H   UNL     1      50.775   5.054  19.134  0.00  0.00    +0.000 HD
ENDBRANCH  10  13
ENDBRANCH   8   9
ENDBRANCH   5   8
ENDBRANCH   1   2
BRANCH   1  19
ATOM     19  N   UNL     1      46.976   6.669  11.929  0.00  0.00    +0.000 N 
ATOM     20  C   UNL     1      45.606   6.707  11.926  0.00  0.00    +0.000 C 
ATOM     21  O   UNL     1      44.955   7.743  12.021  0.00  0.00    +0.000 OA
ATOM     22  H   UNL     1      47.421   5.778  12.112  0.00  0.00    +0.000 HD
BRANCH  20  23
ATOM     23  C   UNL     1      44.956   5.410  11.739  0.00  0.00    +0.000 A 
ATOM     24  C   UNL     1      44.231   4.822  12.764  0.00  0.00    +0.000 A 
ATOM     25  S   UNL     1      43.549   3.318  12.324  0.00  0.00    +0.000 S 
ATOM     26  C   UNL     1      44.245   3.387  10.773  0.00  0.00    +0.000 A 
ATOM     27  N   UNL     1      44.086   2.378   9.876  0.00  0.00    +0.000 NA
ATOM     28  C   UNL     1      44.703   2.556   8.753  0.00  0.00    +0.000 A 
ATOM     29  N   UNL     1      45.451   3.658   8.438  0.00  0.00    +0.000 N 
ATOM     30  C   UNL     1      45.594   4.718   9.291  0.00  0.00    +0.000 A 
ATOM     31  O   UNL     1      46.196   5.731   8.937  0.00  0.00    +0.000 OA
ATOM     32  C   UNL     1      44.957   4.556  10.579  0.00  0.00    +0.000 A 
ATOM     33  H   UNL     1      45.887   3.758   7.535  0.00  0.00    +0.000 HD
ENDBRANCH  20  23
ENDBRANCH   1  19
BRANCH   1  34
ATOM     34  C   UNL     1      49.083   7.829  11.304  0.00  0.00    +0.000 C 
BRANCH  34  35
ATOM     35  N   UNL     1      49.895   9.047  11.398  0.00  0.00    +0.000 NA
ATOM     36  H   UNL     1      49.304   9.846  11.173  0.00  0.00    +0.000 HD
ATOM     37  H   UNL     1      50.629   9.024  10.692  0.00  0.00    +0.000 HD
ENDBRANCH  34  35
ENDBRANCH   1  34
TORSDOF 8
ENDMDL
MODEL 8
REMARK VINA RESULT:    -6.635      5.169      7.854
REMARK INTER + INTRA:         -10.781
REMARK INTER:                  -9.519
REMARK INTRA:                  -1.262
REMARK UNBOUND:                -1.237
REMARK  Name = 
REMARK  8 active torsions:
REMARK  status: ('A' for Active; 'I' for Inactive)
REMARK    1  A    between atoms: N_1  and  C_2
REMARK    2  A    between atoms: C_2  and  C_3
REMARK    3  A    between atoms: C_3  and  N_4
REMARK    4  A    between atoms: C_3  and  C_17
REMARK    5  A    between atoms: C_5  and  C_7
REMARK    6  A    between atoms: C_20  and  C_21
REMARK    7  A    between atoms: C_21  and  N_22
REMARK    8  A    between atoms: C_23  and  C_25
REMARK                            x       y       z     vdW  Elec       q    Type
REMARK                         _______ _______ _______ _____ _____    ______ ____
ROOT
ATOM      1  C   UNL     1      50.515   8.570  11.405  0.00  0.00    +0.000 C 
ENDROOT
BRANCH   1   2
ATOM      2  C   UNL     1      49.370   7.770  12.038  0.00  0.00    +0.000 A 
ATOM      3  C   UNL     1      49.461   7.337  13.369  0.00  0.00    +0.000 A 
ATOM      4  C   UNL     1      48.444   6.561  13.943  0.00  0.00    +0.000 A 
ATOM      5  C   UNL     1      47.311   6.202  13.199  0.00  0.00    +0.000 A 
ATOM      6  C   UNL     1      47.196   6.677  11.887  0.00  0.00    +0.000 A 
ATOM      7  C   UNL     1      48.210   7.450  11.314  0.00  0.00    +0.000 A 
BRANCH   5   8
ATOM      8  C   UNL     1      46.250   5.298  13.769  0.00  0.00    +0.000 C 
BRANCH   8   9
ATOM      9  N   UNL     1      45.154   5.056  12.859  0.00  0.00    +0.000 N 
ATOM     10  C   UNL     1      44.923   3.765  12.414  0.00  0.00    +0.000 C 
ATOM     11  O   UNL     1      45.602   2.812  12.787  0.00  0.00    +0.000 OA
ATOM     12  H   UNL     1      44.756   5.833  12.345  0.00  0.00    +0.000 HD
BRANCH  10  13
ATOM     13  C   UNL     1      43.741   3.638  11.426  0.00  0.00    +0.000 C 
ATOM     14  C   UNL     1      43.749   4.714  10.353  0.00  0.00    +0.000 C 
ATOM     15  C   UNL     1      44.750   4.191   9.339  0.00  0.00    +0.000 C 
ATOM     16  C   UNL     1      44.665   2.678   9.464  0.00  0.00    +0.000 C 
ATOM     17  N   UNL     1      43.846   2.384  10.649  0.00  0.00    +0.000 NA
ATOM     18  H   UNL     1      44.294   1.656  11.206  0.00  0.00    +0.000 HD
ENDBRANCH  10  13
ENDBRANCH   8   9
ENDBRANCH   5   8
ENDBRANCH   1   2
BRANCH   1  19
ATOM     19  N   UNL     1      51.606   7.656  11.111  0.00  0.00    +0.000 N 
ATOM     20  C   UNL     1      52.508   7.857  10.099  0.00  0.00    +0.000 C 
ATOM     21  O   UNL     1      52.561   8.884   9.429  0.00  0.00    +0.000 OA
ATOM     22  H   UNL     1      51.456   6.706  11.425  0.00  0.00    +0.000 HD
BRANCH  20  23
ATOM     23  C   UNL     1      53.463   6.767   9.903  0.00  0.00    +0.000 A 
ATOM     24  C   UNL     1      54.363   6.419  10.899  0.00  0.00    +0.000 A 
ATOM     25  S   UNL     1      55.374   5.112  10.461  0.00  0.00    +0.000 S 
ATOM     26  C   UNL     1      54.674   5.009   8.913  0.00  0.00    +0.000 A 
ATOM     27  N   UNL     1      55.108   4.107   7.995  0.00  0.00    +0.000 NA
ATOM     28  C   UNL     1      54.504   4.171   6.853  0.00  0.00    +0.000 A 
ATOM     29  N   UNL     1      53.495   5.045   6.550  0.00  0.00    +0.000 N 
ATOM     30  C   UNL     1      52.994   5.935   7.460  0.00  0.00    +0.000 A 
ATOM     31  O   UNL     1      52.025   6.638   7.181  0.00  0.00    +0.000 OA
ATOM     32  C   UNL     1      53.659   5.933   8.745  0.00  0.00    +0.000 A 
ATOM     33  H   UNL     1      53.040   5.032   5.650  0.00  0.00    +0.000 HD
ENDBRANCH  20  23
ENDBRANCH   1  19
BRANCH   1  34
ATOM     34  C   UNL     1      50.986   9.738  12.318  0.00  0.00    +0.000 C 
BRANCH  34  35
ATOM     35  N   UNL     1      51.323  10.974  11.604  0.00  0.00    +0.000 NA
ATOM     36  H   UNL     1      50.511  11.264  11.060  0.00  0.00    +0.000 HD
ATOM     37  H   UNL     1      52.068  10.789  10.933  0.00  0.00    +0.000 HD
ENDBRANCH  34  35
ENDBRANCH   1  34
TORSDOF 8
ENDMDL
MODEL 9
REMARK VINA RESULT:    -6.552      3.348      8.174
REMARK INTER + INTRA:         -10.661
REMARK INTER:                  -9.595
REMARK INTRA:                  -1.067
REMARK UNBOUND:                -1.237
REMARK  Name = 
REMARK  8 active torsions:
REMARK  status: ('A' for Active; 'I' for Inactive)
REMARK    1  A    between atoms: N_1  and  C_2
REMARK    2  A    between atoms: C_2  and  C_3
REMARK    3  A    between atoms: C_3  and  N_4
REMARK    4  A    between atoms: C_3  and  C_17
REMARK    5  A    between atoms: C_5  and  C_7
REMARK    6  A    between atoms: C_20  and  C_21
REMARK    7  A    between atoms: C_21  and  N_22
REMARK    8  A    between atoms: C_23  and  C_25
REMARK                            x       y       z     vdW  Elec       q    Type
REMARK                         _______ _______ _______ _____ _____    ______ ____
ROOT
ATOM      1  C   UNL     1      48.231   8.214  12.052  0.00  0.00    +0.000 C 
ENDROOT
BRANCH   1   2
ATOM      2  C   UNL     1      48.350   7.924  13.552  0.00  0.00    +0.000 A 
ATOM      3  C   UNL     1      48.503   8.977  14.467  0.00  0.00    +0.000 A 
ATOM      4  C   UNL     1      48.665   8.722  15.837  0.00  0.00    +0.000 A 
ATOM      5  C   UNL     1      48.676   7.408  16.323  0.00  0.00    +0.000 A 
ATOM      6  C   UNL     1      48.473   6.359  15.418  0.00  0.00    +0.000 A 
ATOM      7  C   UNL     1      48.312   6.612  14.052  0.00  0.00    +0.000 A 
BRANCH   5   8
ATOM      8  C   UNL     1      48.935   7.109  17.776  0.00  0.00    +0.000 C 
BRANCH   8   9
ATOM      9  N   UNL     1      49.088   5.699  18.053  0.00  0.00    +0.000 N 
ATOM     10  C   UNL     1      47.979   4.967  18.442  0.00  0.00    +0.000 C 
ATOM     11  O   UNL     1      46.862   5.469  18.534  0.00  0.00    +0.000 OA
ATOM     12  H   UNL     1      50.013   5.328  18.236  0.00  0.00    +0.000 HD
BRANCH  10  13
ATOM     13  C   UNL     1      48.273   3.478  18.734  0.00  0.00    +0.000 C 
ATOM     14  C   UNL     1      47.539   2.534  17.796  0.00  0.00    +0.000 C 
ATOM     15  C   UNL     1      48.402   2.538  16.548  0.00  0.00    +0.000 C 
ATOM     16  C   UNL     1      49.810   2.803  17.059  0.00  0.00    +0.000 C 
ATOM     17  N   UNL     1      49.697   3.170  18.478  0.00  0.00    +0.000 NA
ATOM     18  H   UNL     1      50.279   3.986  18.671  0.00  0.00    +0.000 HD
ENDBRANCH  10  13
ENDBRANCH   8   9
ENDBRANCH   5   8
ENDBRANCH   1   2
BRANCH   1  19
ATOM     19  N   UNL     1      47.516   7.115  11.427  0.00  0.00    +0.000 N 
ATOM     20  C   UNL     1      46.149   7.053  11.344  0.00  0.00    +0.000 C 
ATOM     21  O   UNL     1      45.406   7.973  11.670  0.00  0.00    +0.000 OA
ATOM     22  H   UNL     1      48.029   6.243  11.394  0.00  0.00    +0.000 HD
BRANCH  20  23
ATOM     23  C   UNL     1      45.625   5.812  10.774  0.00  0.00    +0.000 A 
ATOM     24  C   UNL     1      45.805   5.513   9.432  0.00  0.00    +0.000 A 
ATOM     25  S   UNL     1      45.123   4.010   8.984  0.00  0.00    +0.000 S 
ATOM     26  C   UNL     1      44.525   3.744  10.555  0.00  0.00    +0.000 A 
ATOM     27  N   UNL     1      43.797   2.638  10.861  0.00  0.00    +0.000 NA
ATOM     28  C   UNL     1      43.381   2.592  12.085  0.00  0.00    +0.000 A 
ATOM     29  N   UNL     1      43.640   3.542  13.035  0.00  0.00    +0.000 N 
ATOM     30  C   UNL     1      44.410   4.644  12.783  0.00  0.00    +0.000 A 
ATOM     31  O   UNL     1      44.699   5.427  13.687  0.00  0.00    +0.000 OA
ATOM     32  C   UNL     1      44.871   4.767  11.417  0.00  0.00    +0.000 A 
ATOM     33  H   UNL     1      43.314   3.440  13.984  0.00  0.00    +0.000 HD
ENDBRANCH  20  23
ENDBRANCH   1  19
BRANCH   1  34
ATOM     34  C   UNL     1      49.621   8.435  11.387  0.00  0.00    +0.000 C 
BRANCH  34  35
ATOM     35  N   UNL     1      50.601   7.377  11.655  0.00  0.00    +0.000 NA
ATOM     36  H   UNL     1      50.107   6.488  11.718  0.00  0.00    +0.000 HD
ATOM     37  H   UNL     1      51.031   7.532  12.566  0.00  0.00    +0.000 HD
ENDBRANCH  34  35
ENDBRANCH   1  34
TORSDOF 8
ENDMDL
