MODEL 1
REMARK VINA RESULT:    -7.366      0.000      0.000
REMARK INTER + INTRA:         -10.938
REMARK INTER:                 -10.165
REMARK INTRA:                  -0.773
REMARK UNBOUND:                -0.773
REMARK  Name = 
REMARK  8 active torsions:
REMARK  status: ('A' for Active; 'I' for Inactive)
REMARK    1  A    between atoms: C_1  and  O_2
REMARK    2  A    between atoms: O_2  and  C_3
REMARK    3  A    between atoms: C_3  and  C_5
REMARK    4  A    between atoms: C_8  and  O_9
REMARK    5  A    between atoms: O_9  and  C_10
REMARK    6  A    between atoms: C_10  and  C_11
REMARK    7  A    between atoms: C_14  and  C_15
REMARK    8  A    between atoms: C_15  and  N_16
REMARK                            x       y       z     vdW  Elec       q    Type
REMARK                         _______ _______ _______ _____ _____    ______ ____
ROOT
ATOM      1  O   UNL     1      44.365   5.513  10.515  0.00  0.00    +0.000 OA
ENDROOT
BRANCH   1   5
ATOM      2  C   UNL     1      46.703   5.021  13.928  0.00  0.00    +0.000 A 
ATOM      3  C   UNL     1      47.080   5.902  12.908  0.00  0.00    +0.000 A 
ATOM      4  C   UNL     1      46.254   6.065  11.791  0.00  0.00    +0.000 A 
ATOM      5  C   UNL     1      45.064   5.342  11.682  0.00  0.00    +0.000 A 
ATOM      6  C   UNL     1      44.662   4.509  12.728  0.00  0.00    +0.000 A 
ATOM      7  C   UNL     1      45.482   4.342  13.843  0.00  0.00    +0.000 A 
BRANCH   2   8
ATOM      8  C   UNL     1      47.547   4.765  15.119  0.00  0.00    +0.000 C 
ATOM      9  O   UNL     1      48.450   5.507  15.473  0.00  0.00    +0.000 OA
BRANCH   8  11
ATOM     10  C   UNL     1      47.175   3.796  17.198  0.00  0.00    +0.000 C 
ATOM     11  O   UNL     1      47.115   3.663  15.778  0.00  0.00    +0.000 OA
ENDBRANCH   8  11
ENDBRANCH   2   8
ENDBRANCH   1   5
BRANCH   1  12
ATOM     12  C   UNL     1      43.769   4.321   9.996  0.00  0.00    +0.000 C 
BRANCH  12  13
ATOM     13  C   UNL     1      44.762   3.593   9.129  0.00  0.00    +0.000 A 
ATOM     14  C   UNL     1      45.554   4.302   8.216  0.00  0.00    +0.000 A 
ATOM     15  C   UNL     1      46.483   3.634   7.415  0.00  0.00    +0.000 A 
ATOM     16  C   UNL     1      46.634   2.245   7.512  0.00  0.00    +0.000 A 
ATOM     17  C   UNL     1      45.840   1.541   8.427  0.00  0.00    +0.000 A 
ATOM     18  C   UNL     1      44.915   2.207   9.231  0.00  0.00    +0.000 A 
BRANCH  16  19
ATOM     19  C   UNL     1      47.607   1.518   6.620  0.00  0.00    +0.000 C 
BRANCH  19  20
ATOM     20  N   UNL     1      48.640   2.407   6.105  0.00  0.00    +0.000 NA
ATOM     21  H   UNL     1      48.250   2.948   5.334  0.00  0.00    +0.000 HD
ATOM     22  H   UNL     1      49.395   1.848   5.715  0.00  0.00    +0.000 HD
ENDBRANCH  19  20
ENDBRANCH  16  19
ENDBRANCH  12  13
ENDBRANCH   1  12
TORSDOF 7
ENDMDL
MODEL 2
REMARK VINA RESULT:    -7.313      3.169      6.668
REMARK INTER + INTRA:         -10.865
REMARK INTER:                 -10.367
REMARK INTRA:                  -0.498
REMARK UNBOUND:                -0.773
REMARK  Name = 
REMARK  8 active torsions:
REMARK  status: ('A' for Active; 'I' for Inactive)
REMARK    1  A    between atoms: C_1  and  O_2
REMARK    2  A    between atoms: O_2  and  C_3
REMARK    3  A    between atoms: C_3  and  C_5
REMARK    4  A    between atoms: C_8  and  O_9
REMARK    5  A    between atoms: O_9  and  C_10
REMARK    6  A    between atoms: C_10  and  C_11
REMARK    7  A    between atoms: C_14  and  C_15
REMARK    8  A    between atoms: C_15  and  N_16
REMARK                            x       y       z     vdW  Elec       q    Type
REMARK                         _______ _______ _______ _____ _____    ______ ____
ROOT
ATOM      1  O   UNL     1      43.534   4.728   9.803  0.00  0.00    +0.000 OA
ENDROOT
BRANCH   1   5
ATOM      2  C   UNL     1      46.289   2.219   7.940  0.00  0.00    +0.000 A 
ATOM      3  C   UNL     1      46.331   3.607   7.762  0.00  0.00    +0.000 A 
ATOM      4  C   UNL     1      45.410   4.421   8.429  0.00  0.00    +0.000 A 
ATOM      5  C   UNL     1      44.439   3.855   9.258  0.00  0.00    +0.000 A 
ATOM      6  C   UNL     1      44.437   2.476   9.479  0.00  0.00    +0.000 A 
ATOM      7  C   UNL     1      45.352   1.660   8.816  0.00  0.00    +0.000 A 
BRANCH   2   8
ATOM      8  C   UNL     1      47.205   1.292   7.233  0.00  0.00    +0.000 C 
ATOM      9  O   UNL     1      47.001   0.093   7.137  0.00  0.00    +0.000 OA
BRANCH   8  11
ATOM     10  C   UNL     1      47.967   2.324   5.296  0.00  0.00    +0.000 C 
ATOM     11  O   UNL     1      48.221   1.978   6.658  0.00  0.00    +0.000 OA
ENDBRANCH   8  11
ENDBRANCH   2   8
ENDBRANCH   1   5
BRANCH   1  12
ATOM     12  C   UNL     1      43.359   4.603  11.217  0.00  0.00    +0.000 C 
BRANCH  12  13
ATOM     13  C   UNL     1      44.585   5.112  11.927  0.00  0.00    +0.000 A 
ATOM     14  C   UNL     1      45.223   4.319  12.890  0.00  0.00    +0.000 A 
ATOM     15  C   UNL     1      46.366   4.782  13.545  0.00  0.00    +0.000 A 
ATOM     16  C   UNL     1      46.889   6.047  13.252  0.00  0.00    +0.000 A 
ATOM     17  C   UNL     1      46.248   6.836  12.287  0.00  0.00    +0.000 A 
ATOM     18  C   UNL     1      45.109   6.374  11.628  0.00  0.00    +0.000 A 
BRANCH  16  19
ATOM     19  C   UNL     1      48.097   6.565  13.987  0.00  0.00    +0.000 C 
BRANCH  19  20
ATOM     20  N   UNL     1      49.280   6.590  13.136  0.00  0.00    +0.000 NA
ATOM     21  H   UNL     1      49.139   7.282  12.402  0.00  0.00    +0.000 HD
ATOM     22  H   UNL     1      49.376   5.690  12.673  0.00  0.00    +0.000 HD
ENDBRANCH  19  20
ENDBRANCH  16  19
ENDBRANCH  12  13
ENDBRANCH   1  12
TORSDOF 7
ENDMDL
MODEL 3
REMARK VINA RESULT:    -7.235      1.302      1.961
REMARK INTER + INTRA:         -10.758
REMARK INTER:                  -9.924
REMARK INTRA:                  -0.834
REMARK UNBOUND:                -0.773
REMARK  Name = 
REMARK  8 active torsions:
REMARK  status: ('A' for Active; 'I' for Inactive)
REMARK    1  A    between atoms: C_1  and  O_2
REMARK    2  A    between atoms: O_2  and  C_3
REMARK    3  A    between atoms: C_3  and  C_5
REMARK    4  A    between atoms: C_8  and  O_9
REMARK    5  A    between atoms: O_9  and  C_10
REMARK    6  A    between atoms: C_10  and  C_11
REMARK    7  A    between atoms: C_14  and  C_15
REMARK    8  A    between atoms: C_15  and  N_16
REMARK                            x       y       z     vdW  Elec       q    Type
REMARK                         _______ _______ _______ _____ _____    ______ ____
ROOT
ATOM      1  O   UNL     1      43.862   3.698  11.426  0.00  0.00    +0.000 OA
ENDROOT
BRANCH   1   5
ATOM      2  C   UNL     1      46.860   5.665  13.546  0.00  0.00    +0.000 A 
ATOM      3  C   UNL     1      45.837   6.373  12.905  0.00  0.00    +0.000 A 
ATOM      4  C   UNL     1      44.829   5.678  12.229  0.00  0.00    +0.000 A 
ATOM      5  C   UNL     1      44.847   4.282  12.178  0.00  0.00    +0.000 A 
ATOM      6  C   UNL     1      45.836   3.578  12.868  0.00  0.00    +0.000 A 
ATOM      7  C   UNL     1      46.843   4.266  13.542  0.00  0.00    +0.000 A 
BRANCH   2   8
ATOM      8  C   UNL     1      47.983   6.336  14.244  0.00  0.00    +0.000 C 
ATOM      9  O   UNL     1      48.535   5.869  15.227  0.00  0.00    +0.000 OA
BRANCH   8  11
ATOM     10  C   UNL     1      49.370   7.250  12.621  0.00  0.00    +0.000 C 
ATOM     11  O   UNL     1      48.342   7.464  13.587  0.00  0.00    +0.000 OA
ENDBRANCH   8  11
ENDBRANCH   2   8
ENDBRANCH   1   5
BRANCH   1  12
ATOM     12  C   UNL     1      43.741   4.211  10.096  0.00  0.00    +0.000 C 
BRANCH  12  13
ATOM     13  C   UNL     1      44.747   3.539   9.200  0.00  0.00    +0.000 A 
ATOM     14  C   UNL     1      45.539   4.302   8.331  0.00  0.00    +0.000 A 
ATOM     15  C   UNL     1      46.479   3.684   7.503  0.00  0.00    +0.000 A 
ATOM     16  C   UNL     1      46.643   2.294   7.528  0.00  0.00    +0.000 A 
ATOM     17  C   UNL     1      45.849   1.536   8.400  0.00  0.00    +0.000 A 
ATOM     18  C   UNL     1      44.913   2.150   9.231  0.00  0.00    +0.000 A 
BRANCH  16  19
ATOM     19  C   UNL     1      47.628   1.623   6.608  0.00  0.00    +0.000 C 
BRANCH  19  20
ATOM     20  N   UNL     1      48.648   2.550   6.134  0.00  0.00    +0.000 NA
ATOM     21  H   UNL     1      48.218   3.196   5.473  0.00  0.00    +0.000 HD
ATOM     22  H   UNL     1      49.354   2.032   5.618  0.00  0.00    +0.000 HD
ENDBRANCH  19  20
ENDBRANCH  16  19
ENDBRANCH  12  13
ENDBRANCH   1  12
TORSDOF 7
ENDMDL
MODEL 4
REMARK VINA RESULT:    -6.355      2.337      3.379
REMARK INTER + INTRA:          -9.543
REMARK INTER:                  -8.842
REMARK INTRA:                  -0.701
REMARK UNBOUND:                -0.773
REMARK  Name = 
REMARK  8 active torsions:
REMARK  status: ('A' for Active; 'I' for Inactive)
REMARK    1  A    between atoms: C_1  and  O_2
REMARK    2  A    between atoms: O_2  and  C_3
REMARK    3  A    between atoms: C_3  and  C_5
REMARK    4  A    between atoms: C_8  and  O_9
REMARK    5  A    between atoms: O_9  and  C_10
REMARK    6  A    between atoms: C_10  and  C_11
REMARK    7  A    between atoms: C_14  and  C_15
REMARK    8  A    between atoms: C_15  and  N_16
REMARK                            x       y       z     vdW  Elec       q    Type
REMARK                         _______ _______ _______ _____ _____    ______ ____
ROOT
ATOM      1  O   UNL     1      44.522   4.689  11.520  0.00  0.00    +0.000 OA
ENDROOT
BRANCH   1   5
ATOM      2  C   UNL     1      46.645   8.218  12.143  0.00  0.00    +0.000 A 
ATOM      3  C   UNL     1      47.281   6.972  12.169  0.00  0.00    +0.000 A 
ATOM      4  C   UNL     1      46.542   5.810  11.924  0.00  0.00    +0.000 A 
ATOM      5  C   UNL     1      45.170   5.887  11.669  0.00  0.00    +0.000 A 
ATOM      6  C   UNL     1      44.552   7.135  11.586  0.00  0.00    +0.000 A 
ATOM      7  C   UNL     1      45.283   8.297  11.830  0.00  0.00    +0.000 A 
BRANCH   2   8
ATOM      8  C   UNL     1      47.355   9.487  12.435  0.00  0.00    +0.000 C 
ATOM      9  O   UNL     1      47.446  10.404  11.635  0.00  0.00    +0.000 OA
BRANCH   8  11
ATOM     10  C   UNL     1      49.192   9.751  13.832  0.00  0.00    +0.000 C 
ATOM     11  O   UNL     1      47.792   9.500  13.717  0.00  0.00    +0.000 OA
ENDBRANCH   8  11
ENDBRANCH   2   8
ENDBRANCH   1   5
BRANCH   1  12
ATOM     12  C   UNL     1      43.901   4.500  10.246  0.00  0.00    +0.000 C 
BRANCH  12  13
ATOM     13  C   UNL     1      44.848   3.782   9.322  0.00  0.00    +0.000 A 
ATOM     14  C   UNL     1      45.015   2.394   9.421  0.00  0.00    +0.000 A 
ATOM     15  C   UNL     1      45.886   1.722   8.561  0.00  0.00    +0.000 A 
ATOM     16  C   UNL     1      46.607   2.425   7.588  0.00  0.00    +0.000 A 
ATOM     17  C   UNL     1      46.436   3.813   7.493  0.00  0.00    +0.000 A 
ATOM     18  C   UNL     1      45.563   4.486   8.347  0.00  0.00    +0.000 A 
BRANCH  16  19
ATOM     19  C   UNL     1      47.577   1.708   6.687  0.00  0.00    +0.000 C 
BRANCH  19  20
ATOM     20  N   UNL     1      48.188   2.611   5.719  0.00  0.00    +0.000 NA
ATOM     21  H   UNL     1      48.313   3.522   6.157  0.00  0.00    +0.000 HD
ATOM     22  H   UNL     1      47.546   2.748   4.942  0.00  0.00    +0.000 HD
ENDBRANCH  19  20
ENDBRANCH  16  19
ENDBRANCH  12  13
ENDBRANCH   1  12
TORSDOF 7
ENDMDL
MODEL 5
REMARK VINA RESULT:    -5.894      3.307      6.913
REMARK INTER + INTRA:          -8.907
REMARK INTER:                  -8.989
REMARK INTRA:                   0.082
REMARK UNBOUND:                -0.773
REMARK  Name = 
REMARK  8 active torsions:
REMARK  status: ('A' for Active; 'I' for Inactive)
REMARK    1  A    between atoms: C_1  and  O_2
REMARK    2  A    between atoms: O_2  and  C_3
REMARK    3  A    between atoms: C_3  and  C_5
REMARK    4  A    between atoms: C_8  and  O_9
REMARK    5  A    between atoms: O_9  and  C_10
REMARK    6  A    between atoms: C_10  and  C_11
REMARK    7  A    between atoms: C_14  and  C_15
REMARK    8  A    between atoms: C_15  and  N_16
REMARK                            x       y       z     vdW  Elec       q    Type
REMARK                         _______ _______ _______ _____ _____    ______ ____
ROOT
ATOM      1  O   UNL     1      43.992   4.697  10.028  0.00  0.00    +0.000 OA
ENDROOT
BRANCH   1   5
ATOM      2  C   UNL     1      46.460   2.276   7.704  0.00  0.00    +0.000 A 
ATOM      3  C   UNL     1      45.598   1.730   8.662  0.00  0.00    +0.000 A 
ATOM      4  C   UNL     1      44.760   2.571   9.402  0.00  0.00    +0.000 A 
ATOM      5  C   UNL     1      44.791   3.953   9.200  0.00  0.00    +0.000 A 
ATOM      6  C   UNL     1      45.609   4.488   8.203  0.00  0.00    +0.000 A 
ATOM      7  C   UNL     1      46.447   3.654   7.463  0.00  0.00    +0.000 A 
BRANCH   2   8
ATOM      8  C   UNL     1      47.405   1.451   6.913  0.00  0.00    +0.000 C 
ATOM      9  O   UNL     1      48.576   1.751   6.743  0.00  0.00    +0.000 OA
BRANCH   8  11
ATOM     10  C   UNL     1      46.689  -0.671   7.531  0.00  0.00    +0.000 C 
ATOM     11  O   UNL     1      46.806   0.309   6.500  0.00  0.00    +0.000 OA
ENDBRANCH   8  11
ENDBRANCH   2   8
ENDBRANCH   1   5
BRANCH   1  12
ATOM     12  C   UNL     1      44.593   5.898  10.518  0.00  0.00    +0.000 C 
BRANCH  12  13
ATOM     13  C   UNL     1      45.383   5.597  11.764  0.00  0.00    +0.000 A 
ATOM     14  C   UNL     1      45.043   4.501  12.568  0.00  0.00    +0.000 A 
ATOM     15  C   UNL     1      45.778   4.212  13.720  0.00  0.00    +0.000 A 
ATOM     16  C   UNL     1      46.863   5.015  14.090  0.00  0.00    +0.000 A 
ATOM     17  C   UNL     1      47.200   6.110  13.282  0.00  0.00    +0.000 A 
ATOM     18  C   UNL     1      46.471   6.398  12.129  0.00  0.00    +0.000 A 
BRANCH  16  19
ATOM     19  C   UNL     1      47.631   4.729  15.354  0.00  0.00    +0.000 C 
BRANCH  19  20
ATOM     20  N   UNL     1      47.969   5.952  16.072  0.00  0.00    +0.000 NA
ATOM     21  H   UNL     1      47.122   6.323  16.500  0.00  0.00    +0.000 HD
ATOM     22  H   UNL     1      48.289   6.650  15.406  0.00  0.00    +0.000 HD
ENDBRANCH  19  20
ENDBRANCH  16  19
ENDBRANCH  12  13
ENDBRANCH   1  12
TORSDOF 7
ENDMDL
MODEL 6
REMARK VINA RESULT:    -5.751      3.639      7.714
REMARK INTER + INTRA:          -8.709
REMARK INTER:                  -8.148
REMARK INTRA:                  -0.561
REMARK UNBOUND:                -0.773
REMARK  Name = 
REMARK  8 active torsions:
REMARK  status: ('A' for Active; 'I' for Inactive)
REMARK    1  A    between atoms: C_1  and  O_2
REMARK    2  A    between atoms: O_2  and  C_3
REMARK    3  A    between atoms: C_3  and  C_5
REMARK    4  A    between atoms: C_8  and  O_9
REMARK    5  A    between atoms: O_9  and  C_10
REMARK    6  A    between atoms: C_10  and  C_11
REMARK    7  A    between atoms: C_14  and  C_15
REMARK    8  A    between atoms: C_15  and  N_16
REMARK                            x       y       z     vdW  Elec       q    Type
REMARK                         _______ _______ _______ _____ _____    ______ ____
ROOT
ATOM      1  O   UNL     1      47.748   5.252  14.956  0.00  0.00    +0.000 OA
ENDROOT
BRANCH   1   5
ATOM      2  C   UNL     1      45.064   4.674  11.823  0.00  0.00    +0.000 A 
ATOM      3  C   UNL     1      45.538   5.950  12.150  0.00  0.00    +0.000 A 
ATOM      4  C   UNL     1      46.463   6.102  13.187  0.00  0.00    +0.000 A 
ATOM      5  C   UNL     1      46.904   4.990  13.909  0.00  0.00    +0.000 A 
ATOM      6  C   UNL     1      46.474   3.713  13.541  0.00  0.00    +0.000 A 
ATOM      7  C   UNL     1      45.551   3.556  12.508  0.00  0.00    +0.000 A 
BRANCH   2   8
ATOM      8  C   UNL     1      44.051   4.442  10.765  0.00  0.00    +0.000 C 
ATOM      9  O   UNL     1      43.049   5.125  10.635  0.00  0.00    +0.000 OA
BRANCH   8  11
ATOM     10  C   UNL     1      44.832   3.899   8.645  0.00  0.00    +0.000 C 
ATOM     11  O   UNL     1      44.448   3.442   9.942  0.00  0.00    +0.000 OA
ENDBRANCH   8  11
ENDBRANCH   2   8
ENDBRANCH   1   5
BRANCH   1  12
ATOM     12  C   UNL     1      47.467   4.516  16.149  0.00  0.00    +0.000 C 
BRANCH  12  13
ATOM     13  C   UNL     1      48.702   3.779  16.593  0.00  0.00    +0.000 A 
ATOM     14  C   UNL     1      49.738   4.465  17.243  0.00  0.00    +0.000 A 
ATOM     15  C   UNL     1      50.882   3.785  17.665  0.00  0.00    +0.000 A 
ATOM     16  C   UNL     1      51.013   2.409  17.443  0.00  0.00    +0.000 A 
ATOM     17  C   UNL     1      49.974   1.727  16.794  0.00  0.00    +0.000 A 
ATOM     18  C   UNL     1      48.828   2.403  16.376  0.00  0.00    +0.000 A 
BRANCH  16  19
ATOM     19  C   UNL     1      52.264   1.682  17.861  0.00  0.00    +0.000 C 
BRANCH  19  20
ATOM     20  N   UNL     1      51.998   0.286  18.185  0.00  0.00    +0.000 NA
ATOM     21  H   UNL     1      52.887  -0.209  18.249  0.00  0.00    +0.000 HD
ATOM     22  H   UNL     1      51.482  -0.140  17.419  0.00  0.00    +0.000 HD
ENDBRANCH  19  20
ENDBRANCH  16  19
ENDBRANCH  12  13
ENDBRANCH   1  12
TORSDOF 7
ENDMDL
MODEL 7
REMARK VINA RESULT:    -5.576      2.968      6.631
REMARK INTER + INTRA:          -8.469
REMARK INTER:                  -8.456
REMARK INTRA:                  -0.013
REMARK UNBOUND:                -0.773
REMARK  Name = 
REMARK  8 active torsions:
REMARK  status: ('A' for Active; 'I' for Inactive)
REMARK    1  A    between atoms: C_1  and  O_2
REMARK    2  A    between atoms: O_2  and  C_3
REMARK    3  A    between atoms: C_3  and  C_5
REMARK    4  A    between atoms: C_8  and  O_9
REMARK    5  A    between atoms: O_9  and  C_10
REMARK    6  A    between atoms: C_10  and  C_11
REMARK    7  A    between atoms: C_14  and  C_15
REMARK    8  A    between atoms: C_15  and  N_16
REMARK                            x       y       z     vdW  Elec       q    Type
REMARK                         _______ _______ _______ _____ _____    ______ ____
ROOT
ATOM      1  O   UNL     1      43.744   4.480  11.959  0.00  0.00    +0.000 OA
ENDROOT
BRANCH   1   5
ATOM      2  C   UNL     1      45.620   3.543   8.359  0.00  0.00    +0.000 A 
ATOM      3  C   UNL     1      45.674   4.836   8.893  0.00  0.00    +0.000 A 
ATOM      4  C   UNL     1      45.059   5.106  10.120  0.00  0.00    +0.000 A 
ATOM      5  C   UNL     1      44.379   4.096  10.806  0.00  0.00    +0.000 A 
ATOM      6  C   UNL     1      44.378   2.796  10.299  0.00  0.00    +0.000 A 
ATOM      7  C   UNL     1      44.988   2.521   9.076  0.00  0.00    +0.000 A 
BRANCH   2   8
ATOM      8  C   UNL     1      46.211   3.194   7.045  0.00  0.00    +0.000 C 
ATOM      9  O   UNL     1      46.453   4.018   6.178  0.00  0.00    +0.000 OA
BRANCH   8  11
ATOM     10  C   UNL     1      47.911   1.616   6.906  0.00  0.00    +0.000 C 
ATOM     11  O   UNL     1      46.510   1.873   6.997  0.00  0.00    +0.000 OA
ENDBRANCH   8  11
ENDBRANCH   2   8
ENDBRANCH   1   5
BRANCH   1  12
ATOM     12  C   UNL     1      43.865   5.870  12.274  0.00  0.00    +0.000 C 
BRANCH  12  13
ATOM     13  C   UNL     1      45.219   6.137  12.876  0.00  0.00    +0.000 A 
ATOM     14  C   UNL     1      45.829   7.388  12.714  0.00  0.00    +0.000 A 
ATOM     15  C   UNL     1      47.080   7.645  13.278  0.00  0.00    +0.000 A 
ATOM     16  C   UNL     1      47.746   6.654  14.011  0.00  0.00    +0.000 A 
ATOM     17  C   UNL     1      47.131   5.405  14.170  0.00  0.00    +0.000 A 
ATOM     18  C   UNL     1      45.879   5.148  13.612  0.00  0.00    +0.000 A 
BRANCH  16  19
ATOM     19  C   UNL     1      49.113   6.916  14.585  0.00  0.00    +0.000 C 
BRANCH  19  20
ATOM     20  N   UNL     1      50.100   7.169  13.542  0.00  0.00    +0.000 NA
ATOM     21  H   UNL     1      49.966   6.490  12.795  0.00  0.00    +0.000 HD
ATOM     22  H   UNL     1      51.030   7.007  13.919  0.00  0.00    +0.000 HD
ENDBRANCH  19  20
ENDBRANCH  16  19
ENDBRANCH  12  13
ENDBRANCH   1  12
TORSDOF 7
ENDMDL
MODEL 8
REMARK VINA RESULT:    -5.189      3.796      8.362
REMARK INTER + INTRA:          -7.934
REMARK INTER:                  -7.401
REMARK INTRA:                  -0.532
REMARK UNBOUND:                -0.773
REMARK  Name = 
REMARK  8 active torsions:
REMARK  status: ('A' for Active; 'I' for Inactive)
REMARK    1  A    between atoms: C_1  and  O_2
REMARK    2  A    between atoms: O_2  and  C_3
REMARK    3  A    between atoms: C_3  and  C_5
REMARK    4  A    between atoms: C_8  and  O_9
REMARK    5  A    between atoms: O_9  and  C_10
REMARK    6  A    between atoms: C_10  and  C_11
REMARK    7  A    between atoms: C_14  and  C_15
REMARK    8  A    between atoms: C_15  and  N_16
REMARK                            x       y       z     vdW  Elec       q    Type
REMARK                         _______ _______ _______ _____ _____    ______ ____
ROOT
ATOM      1  O   UNL     1      48.458   5.860  13.966  0.00  0.00    +0.000 OA
ENDROOT
BRANCH   1   5
ATOM      2  C   UNL     1      44.970   5.175  11.794  0.00  0.00    +0.000 A 
ATOM      3  C   UNL     1      45.275   4.426  12.936  0.00  0.00    +0.000 A 
ATOM      4  C   UNL     1      46.439   4.705  13.659  0.00  0.00    +0.000 A 
ATOM      5  C   UNL     1      47.306   5.717  13.237  0.00  0.00    +0.000 A 
ATOM      6  C   UNL     1      46.968   6.501  12.132  0.00  0.00    +0.000 A 
ATOM      7  C   UNL     1      45.810   6.226  11.408  0.00  0.00    +0.000 A 
BRANCH   2   8
ATOM      8  C   UNL     1      43.777   4.908  10.955  0.00  0.00    +0.000 C 
ATOM      9  O   UNL     1      42.861   5.703  10.820  0.00  0.00    +0.000 OA
BRANCH   8  11
ATOM     10  C   UNL     1      44.395   3.849   8.981  0.00  0.00    +0.000 C 
ATOM     11  O   UNL     1      43.905   3.721  10.316  0.00  0.00    +0.000 OA
ENDBRANCH   8  11
ENDBRANCH   2   8
ENDBRANCH   1   5
BRANCH   1  12
ATOM     12  C   UNL     1      48.446   6.948  14.895  0.00  0.00    +0.000 C 
BRANCH  12  13
ATOM     13  C   UNL     1      48.617   6.422  16.295  0.00  0.00    +0.000 A 
ATOM     14  C   UNL     1      48.593   5.041  16.538  0.00  0.00    +0.000 A 
ATOM     15  C   UNL     1      48.760   4.547  17.832  0.00  0.00    +0.000 A 
ATOM     16  C   UNL     1      48.952   5.422  18.908  0.00  0.00    +0.000 A 
ATOM     17  C   UNL     1      48.976   6.802  18.660  0.00  0.00    +0.000 A 
ATOM     18  C   UNL     1      48.814   7.298  17.367  0.00  0.00    +0.000 A 
BRANCH  16  19
ATOM     19  C   UNL     1      49.091   4.892  20.311  0.00  0.00    +0.000 C 
BRANCH  19  20
ATOM     20  N   UNL     1      48.423   3.607  20.475  0.00  0.00    +0.000 NA
ATOM     21  H   UNL     1      48.109   3.285  19.560  0.00  0.00    +0.000 HD
ATOM     22  H   UNL     1      47.588   3.736  21.040  0.00  0.00    +0.000 HD
ENDBRANCH  19  20
ENDBRANCH  16  19
ENDBRANCH  12  13
ENDBRANCH   1  12
TORSDOF 7
ENDMDL
MODEL 9
REMARK VINA RESULT:    -4.880      4.144      8.683
REMARK INTER + INTRA:          -7.508
REMARK INTER:                  -7.015
REMARK INTRA:                  -0.492
REMARK UNBOUND:                -0.773
REMARK  Name = 
REMARK  8 active torsions:
REMARK  status: ('A' for Active; 'I' for Inactive)
REMARK    1  A    between atoms: C_1  and  O_2
REMARK    2  A    between atoms: O_2  and  C_3
REMARK    3  A    between atoms: C_3  and  C_5
REMARK    4  A    between atoms: C_8  and  O_9
REMARK    5  A    between atoms: O_9  and  C_10
REMARK    6  A    between atoms: C_10  and  C_11
REMARK    7  A    between atoms: C_14  and  C_15
REMARK    8  A    between atoms: C_15  and  N_16
REMARK                            x       y       z     vdW  Elec       q    Type
REMARK                         _______ _______ _______ _____ _____    ______ ____
ROOT
ATOM      1  O   UNL     1      47.823   5.002  14.569  0.00  0.00    +0.000 OA
ENDROOT
BRANCH   1   5
ATOM      2  C   UNL     1      45.017   4.644  11.510  0.00  0.00    +0.000 A 
ATOM      3  C   UNL     1      45.722   5.836  11.716  0.00  0.00    +0.000 A 
ATOM      4  C   UNL     1      46.680   5.909  12.732  0.00  0.00    +0.000 A 
ATOM      5  C   UNL     1      46.925   4.805  13.553  0.00  0.00    +0.000 A 
ATOM      6  C   UNL     1      46.262   3.601  13.307  0.00  0.00    +0.000 A 
ATOM      7  C   UNL     1      45.305   3.523  12.296  0.00  0.00    +0.000 A 
BRANCH   2   8
ATOM      8  C   UNL     1      43.958   4.507  10.481  0.00  0.00    +0.000 C 
ATOM      9  O   UNL     1      42.993   5.249  10.410  0.00  0.00    +0.000 OA
BRANCH   8  11
ATOM     10  C   UNL     1      44.914   3.987   8.428  0.00  0.00    +0.000 C 
ATOM     11  O   UNL     1      44.270   3.516   9.612  0.00  0.00    +0.000 OA
ENDBRANCH   8  11
ENDBRANCH   2   8
ENDBRANCH   1   5
BRANCH   1  12
ATOM     12  C   UNL     1      47.519   4.303  15.779  0.00  0.00    +0.000 C 
BRANCH  12  13
ATOM     13  C   UNL     1      47.895   5.154  16.963  0.00  0.00    +0.000 A 
ATOM     14  C   UNL     1      47.446   4.814  18.247  0.00  0.00    +0.000 A 
ATOM     15  C   UNL     1      47.798   5.594  19.350  0.00  0.00    +0.000 A 
ATOM     16  C   UNL     1      48.603   6.729  19.190  0.00  0.00    +0.000 A 
ATOM     17  C   UNL     1      49.049   7.064  17.904  0.00  0.00    +0.000 A 
ATOM     18  C   UNL     1      48.703   6.284  16.801  0.00  0.00    +0.000 A 
BRANCH  16  19
ATOM     19  C   UNL     1      48.950   7.594  20.372  0.00  0.00    +0.000 C 
BRANCH  19  20
ATOM     20  N   UNL     1      47.805   8.371  20.831  0.00  0.00    +0.000 NA
ATOM     21  H   UNL     1      47.561   9.048  20.110  0.00  0.00    +0.000 HD
ATOM     22  H   UNL     1      48.075   8.906  21.653  0.00  0.00    +0.000 HD
ENDBRANCH  19  20
ENDBRANCH  16  19
ENDBRANCH  12  13
ENDBRANCH   1  12
TORSDOF 7
ENDMDL
