MODEL 1
REMARK VINA RESULT:    -8.125      0.000      0.000
REMARK INTER + INTRA:         -11.010
REMARK INTER:                 -10.500
REMARK INTRA:                  -0.510
REMARK UNBOUND:                -0.510
REMARK  Name = 
REMARK  8 active torsions:
REMARK  status: ('A' for Active; 'I' for Inactive)
REMARK    1  A    between atoms: C_1  and  N_2
REMARK    2  A    between atoms: C_8  and  C_9
REMARK    3  A    between atoms: C_9  and  C_10
REMARK    4  A    between atoms: C_9  and  C_11
REMARK    5  A    between atoms: C_9  and  C_12
REMARK    6  A    between atoms: C_12  and  N_13
REMARK    7  A    between atoms: N_13  and  C_14
REMARK    8  A    between atoms: C_17  and  C_18
REMARK                            x       y       z     vdW  Elec       q    Type
REMARK                         _______ _______ _______ _____ _____    ______ ____
ROOT
ATOM      1  C   UNL     1      43.848   5.769  11.897  0.00  0.00    +0.000 C 
ATOM      2  C   UNL     1      42.720   5.310  12.854  0.00  0.00    +0.000 C 
ATOM      3  C   UNL     1      43.713   7.303  11.704  0.00  0.00    +0.000 C 
ENDROOT
BRANCH   1  11
ATOM      4  C   UNL     1      50.597  10.860  12.688  0.00  0.00    +0.000 C 
ATOM      5  N   UNL     1      50.320   9.433  12.552  0.00  0.00    +0.000 NA
ATOM      6  C   UNL     1      49.967   8.844  13.873  0.00  0.00    +0.000 C 
ATOM      7  C   UNL     1      49.527   7.358  13.784  0.00  0.00    +0.000 C 
ATOM      8  N   UNL     1      48.408   7.300  12.847  0.00  0.00    +0.000 N 
ATOM      9  C   UNL     1      47.508   6.256  12.945  0.00  0.00    +0.000 A 
ATOM     10  C   UNL     1      46.228   6.459  12.423  0.00  0.00    +0.000 A 
ATOM     11  C   UNL     1      45.228   5.483  12.508  0.00  0.00    +0.000 A 
ATOM     12  C   UNL     1      45.588   4.296  13.144  0.00  0.00    +0.000 A 
ATOM     13  C   UNL     1      46.870   4.166  13.663  0.00  0.00    +0.000 A 
ATOM     14  N   UNL     1      47.825   5.118  13.586  0.00  0.00    +0.000 NA
ATOM     15  C   UNL     1      48.778   7.743  11.497  0.00  0.00    +0.000 C 
ATOM     16  C   UNL     1      49.215   9.220  11.587  0.00  0.00    +0.000 C 
ENDBRANCH   1  11
BRANCH   1  17
ATOM     17  C   UNL     1      43.622   5.136  10.492  0.00  0.00    +0.000 C 
BRANCH  17  18
ATOM     18  N   UNL     1      44.033   3.727  10.416  0.00  0.00    +0.000 N 
ATOM     19  H   UNL     1      43.255   3.073  10.488  0.00  0.00    +0.000 HD
BRANCH  18  20
ATOM     20  C   UNL     1      44.945   3.362   9.425  0.00  0.00    +0.000 A 
ATOM     21  C   UNL     1      45.318   2.060   9.130  0.00  0.00    +0.000 A 
ATOM     22  N   UNL     1      46.159   1.697   8.139  0.00  0.00    +0.000 NA
ATOM     23  C   UNL     1      46.626   2.715   7.380  0.00  0.00    +0.000 A 
ATOM     24  N   UNL     1      46.306   4.013   7.520  0.00  0.00    +0.000 NA
ATOM     25  C   UNL     1      45.456   4.293   8.531  0.00  0.00    +0.000 A 
BRANCH  23  26
ATOM     26  C   UNL     1      47.587   2.326   6.284  0.00  0.00    +0.000 C 
ATOM     27  N   UNL     1      47.516   3.091   5.143  0.00  0.00    +0.000 N 
ATOM     28  O   UNL     1      48.382   1.392   6.361  0.00  0.00    +0.000 OA
ATOM     29  H   UNL     1      46.859   3.862   5.092  0.00  0.00    +0.000 HD
ATOM     30  H   UNL     1      48.135   2.886   4.373  0.00  0.00    +0.000 HD
ENDBRANCH  23  26
ENDBRANCH  18  20
ENDBRANCH  17  18
ENDBRANCH   1  17
TORSDOF 5
ENDMDL
MODEL 2
REMARK VINA RESULT:    -7.795      1.208      2.477
REMARK INTER + INTRA:         -10.584
REMARK INTER:                 -10.162
REMARK INTRA:                  -0.422
REMARK UNBOUND:                -0.510
REMARK  Name = 
REMARK  8 active torsions:
REMARK  status: ('A' for Active; 'I' for Inactive)
REMARK    1  A    between atoms: C_1  and  N_2
REMARK    2  A    between atoms: C_8  and  C_9
REMARK    3  A    between atoms: C_9  and  C_10
REMARK    4  A    between atoms: C_9  and  C_11
REMARK    5  A    between atoms: C_9  and  C_12
REMARK    6  A    between atoms: C_12  and  N_13
REMARK    7  A    between atoms: N_13  and  C_14
REMARK    8  A    between atoms: C_17  and  C_18
REMARK                            x       y       z     vdW  Elec       q    Type
REMARK                         _______ _______ _______ _____ _____    ______ ____
ROOT
ATOM      1  C   UNL     1      44.302   5.209  12.035  0.00  0.00    +0.000 C 
ATOM      2  C   UNL     1      45.386   4.164  12.396  0.00  0.00    +0.000 C 
ATOM      3  C   UNL     1      43.193   5.136  13.118  0.00  0.00    +0.000 C 
ENDROOT
BRANCH   1  11
ATOM      4  C   UNL     1      51.902   7.919  14.680  0.00  0.00    +0.000 C 
ATOM      5  N   UNL     1      50.545   8.441  14.550  0.00  0.00    +0.000 NA
ATOM      6  C   UNL     1      50.295   8.901  13.156  0.00  0.00    +0.000 C 
ATOM      7  C   UNL     1      48.828   9.343  12.909  0.00  0.00    +0.000 C 
ATOM      8  N   UNL     1      47.976   8.212  13.270  0.00  0.00    +0.000 N 
ATOM      9  C   UNL     1      46.720   8.114  12.700  0.00  0.00    +0.000 A 
ATOM     10  C   UNL     1      46.138   6.846  12.642  0.00  0.00    +0.000 A 
ATOM     11  C   UNL     1      44.890   6.629  12.048  0.00  0.00    +0.000 A 
ATOM     12  C   UNL     1      44.263   7.755  11.518  0.00  0.00    +0.000 A 
ATOM     13  C   UNL     1      44.906   8.984  11.586  0.00  0.00    +0.000 A 
ATOM     14  N   UNL     1      46.116   9.182  12.152  0.00  0.00    +0.000 NA
ATOM     15  C   UNL     1      48.102   7.838  14.683  0.00  0.00    +0.000 C 
ATOM     16  C   UNL     1      49.561   7.398  14.927  0.00  0.00    +0.000 C 
ENDBRANCH   1  11
BRANCH   1  17
ATOM     17  C   UNL     1      43.622   4.805  10.693  0.00  0.00    +0.000 C 
BRANCH  17  18
ATOM     18  N   UNL     1      43.873   3.409  10.312  0.00  0.00    +0.000 N 
ATOM     19  H   UNL     1      43.024   2.851  10.233  0.00  0.00    +0.000 HD
BRANCH  18  20
ATOM     20  C   UNL     1      44.769   3.164   9.271  0.00  0.00    +0.000 A 
ATOM     21  C   UNL     1      45.295   4.134   8.431  0.00  0.00    +0.000 A 
ATOM     22  N   UNL     1      46.201   3.911   7.456  0.00  0.00    +0.000 NA
ATOM     23  C   UNL     1      46.625   2.631   7.348  0.00  0.00    +0.000 A 
ATOM     24  N   UNL     1      46.242   1.605   8.127  0.00  0.00    +0.000 NA
ATOM     25  C   UNL     1      45.336   1.912   9.081  0.00  0.00    +0.000 A 
BRANCH  23  26
ATOM     26  C   UNL     1      47.620   2.363   6.246  0.00  0.00    +0.000 C 
ATOM     27  N   UNL     1      47.533   3.204   5.160  0.00  0.00    +0.000 N 
ATOM     28  O   UNL     1      48.453   1.462   6.271  0.00  0.00    +0.000 OA
ATOM     29  H   UNL     1      46.844   3.948   5.151  0.00  0.00    +0.000 HD
ATOM     30  H   UNL     1      48.172   3.082   4.389  0.00  0.00    +0.000 HD
ENDBRANCH  23  26
ENDBRANCH  18  20
ENDBRANCH  17  18
ENDBRANCH   1  17
TORSDOF 5
ENDMDL
MODEL 3
REMARK VINA RESULT:    -7.393      2.774      7.320
REMARK INTER + INTRA:         -10.064
REMARK INTER:                  -9.320
REMARK INTRA:                  -0.744
REMARK UNBOUND:                -0.510
REMARK  Name = 
REMARK  8 active torsions:
REMARK  status: ('A' for Active; 'I' for Inactive)
REMARK    1  A    between atoms: C_1  and  N_2
REMARK    2  A    between atoms: C_8  and  C_9
REMARK    3  A    between atoms: C_9  and  C_10
REMARK    4  A    between atoms: C_9  and  C_11
REMARK    5  A    between atoms: C_9  and  C_12
REMARK    6  A    between atoms: C_12  and  N_13
REMARK    7  A    between atoms: N_13  and  C_14
REMARK    8  A    between atoms: C_17  and  C_18
REMARK                            x       y       z     vdW  Elec       q    Type
REMARK                         _______ _______ _______ _____ _____    ______ ____
ROOT
ATOM      1  C   UNL     1      45.578   7.564  11.875  0.00  0.00    +0.000 C 
ATOM      2  C   UNL     1      46.883   7.658  11.047  0.00  0.00    +0.000 C 
ATOM      3  C   UNL     1      44.714   8.810  11.544  0.00  0.00    +0.000 C 
ENDROOT
BRANCH   1  11
ATOM      4  C   UNL     1      47.624   1.227   6.607  0.00  0.00    +0.000 C 
ATOM      5  N   UNL     1      46.418   1.891   7.094  0.00  0.00    +0.000 NA
ATOM      6  C   UNL     1      46.022   1.345   8.421  0.00  0.00    +0.000 C 
ATOM      7  C   UNL     1      44.827   2.099   9.063  0.00  0.00    +0.000 C 
ATOM      8  N   UNL     1      45.207   3.507   9.146  0.00  0.00    +0.000 N 
ATOM      9  C   UNL     1      44.599   4.308  10.095  0.00  0.00    +0.000 A 
ATOM     10  C   UNL     1      45.284   5.455  10.503  0.00  0.00    +0.000 A 
ATOM     11  C   UNL     1      44.778   6.311  11.488  0.00  0.00    +0.000 A 
ATOM     12  C   UNL     1      43.549   5.949  12.037  0.00  0.00    +0.000 A 
ATOM     13  C   UNL     1      42.930   4.783  11.605  0.00  0.00    +0.000 A 
ATOM     14  N   UNL     1      43.432   3.957  10.661  0.00  0.00    +0.000 NA
ATOM     15  C   UNL     1      45.461   4.103   7.829  0.00  0.00    +0.000 C 
ATOM     16  C   UNL     1      46.649   3.353   7.193  0.00  0.00    +0.000 C 
ENDBRANCH   1  11
BRANCH   1  17
ATOM     17  C   UNL     1      45.920   7.667  13.391  0.00  0.00    +0.000 C 
BRANCH  17  18
ATOM     18  N   UNL     1      47.326   7.360  13.692  0.00  0.00    +0.000 N 
ATOM     19  H   UNL     1      47.852   8.163  14.033  0.00  0.00    +0.000 HD
BRANCH  18  20
ATOM     20  C   UNL     1      47.604   6.197  14.409  0.00  0.00    +0.000 A 
ATOM     21  C   UNL     1      48.384   6.137  15.554  0.00  0.00    +0.000 A 
ATOM     22  N   UNL     1      48.614   5.024  16.282  0.00  0.00    +0.000 NA
ATOM     23  C   UNL     1      47.988   3.909  15.841  0.00  0.00    +0.000 A 
ATOM     24  N   UNL     1      47.164   3.835  14.781  0.00  0.00    +0.000 NA
ATOM     25  C   UNL     1      46.982   4.992  14.109  0.00  0.00    +0.000 A 
BRANCH  23  26
ATOM     26  C   UNL     1      48.257   2.652  16.630  0.00  0.00    +0.000 C 
ATOM     27  N   UNL     1      47.579   2.554  17.823  0.00  0.00    +0.000 N 
ATOM     28  O   UNL     1      49.028   1.765  16.276  0.00  0.00    +0.000 OA
ATOM     29  H   UNL     1      46.942   3.291  18.105  0.00  0.00    +0.000 HD
ATOM     30  H   UNL     1      47.711   1.736  18.399  0.00  0.00    +0.000 HD
ENDBRANCH  23  26
ENDBRANCH  18  20
ENDBRANCH  17  18
ENDBRANCH   1  17
TORSDOF 5
ENDMDL
MODEL 4
REMARK VINA RESULT:    -7.178      3.573      7.872
REMARK INTER + INTRA:          -9.786
REMARK INTER:                  -8.958
REMARK INTRA:                  -0.828
REMARK UNBOUND:                -0.510
REMARK  Name = 
REMARK  8 active torsions:
REMARK  status: ('A' for Active; 'I' for Inactive)
REMARK    1  A    between atoms: C_1  and  N_2
REMARK    2  A    between atoms: C_8  and  C_9
REMARK    3  A    between atoms: C_9  and  C_10
REMARK    4  A    between atoms: C_9  and  C_11
REMARK    5  A    between atoms: C_9  and  C_12
REMARK    6  A    between atoms: C_12  and  N_13
REMARK    7  A    between atoms: N_13  and  C_14
REMARK    8  A    between atoms: C_17  and  C_18
REMARK                            x       y       z     vdW  Elec       q    Type
REMARK                         _______ _______ _______ _____ _____    ______ ____
ROOT
ATOM      1  C   UNL     1      48.173   9.474  12.692  0.00  0.00    +0.000 C 
ATOM      2  C   UNL     1      49.181   8.756  11.761  0.00  0.00    +0.000 C 
ATOM      3  C   UNL     1      48.534  10.983  12.710  0.00  0.00    +0.000 C 
ENDROOT
BRANCH   1  11
ATOM      4  C   UNL     1      43.363   2.531  11.824  0.00  0.00    +0.000 C 
ATOM      5  N   UNL     1      43.509   3.839  11.193  0.00  0.00    +0.000 NA
ATOM      6  C   UNL     1      42.775   4.876  11.969  0.00  0.00    +0.000 C 
ATOM      7  C   UNL     1      42.997   6.316  11.434  0.00  0.00    +0.000 C 
ATOM      8  N   UNL     1      44.439   6.554  11.439  0.00  0.00    +0.000 N 
ATOM      9  C   UNL     1      44.901   7.854  11.508  0.00  0.00    +0.000 A 
ATOM     10  C   UNL     1      46.192   8.053  12.004  0.00  0.00    +0.000 A 
ATOM     11  C   UNL     1      46.741   9.331  12.155  0.00  0.00    +0.000 A 
ATOM     12  C   UNL     1      45.921  10.394  11.780  0.00  0.00    +0.000 A 
ATOM     13  C   UNL     1      44.639  10.131  11.316  0.00  0.00    +0.000 A 
ATOM     14  N   UNL     1      44.114   8.894  11.184  0.00  0.00    +0.000 NA
ATOM     15  C   UNL     1      45.167   5.628  10.561  0.00  0.00    +0.000 C 
ATOM     16  C   UNL     1      44.945   4.198  11.095  0.00  0.00    +0.000 C 
ENDBRANCH   1  11
BRANCH   1  17
ATOM     17  C   UNL     1      48.368   8.966  14.152  0.00  0.00    +0.000 C 
BRANCH  17  18
ATOM     18  N   UNL     1      49.149   7.725  14.236  0.00  0.00    +0.000 N 
ATOM     19  H   UNL     1      50.149   7.882  14.347  0.00  0.00    +0.000 HD
BRANCH  18  20
ATOM     20  C   UNL     1      48.676   6.706  15.064  0.00  0.00    +0.000 A 
ATOM     21  C   UNL     1      47.837   5.679  14.660  0.00  0.00    +0.000 A 
ATOM     22  N   UNL     1      47.417   4.664  15.443  0.00  0.00    +0.000 NA
ATOM     23  C   UNL     1      47.905   4.670  16.704  0.00  0.00    +0.000 A 
ATOM     24  N   UNL     1      48.766   5.571  17.211  0.00  0.00    +0.000 NA
ATOM     25  C   UNL     1      49.140   6.553  16.363  0.00  0.00    +0.000 A 
BRANCH  23  26
ATOM     26  C   UNL     1      47.425   3.554  17.598  0.00  0.00    +0.000 C 
ATOM     27  N   UNL     1      48.220   3.294  18.690  0.00  0.00    +0.000 N 
ATOM     28  O   UNL     1      46.411   2.892  17.393  0.00  0.00    +0.000 OA
ATOM     29  H   UNL     1      49.053   3.849  18.852  0.00  0.00    +0.000 HD
ATOM     30  H   UNL     1      47.954   2.561  19.330  0.00  0.00    +0.000 HD
ENDBRANCH  23  26
ENDBRANCH  18  20
ENDBRANCH  17  18
ENDBRANCH   1  17
TORSDOF 5
ENDMDL
MODEL 5
REMARK VINA RESULT:    -6.557      3.130      5.761
REMARK INTER + INTRA:          -8.984
REMARK INTER:                  -8.461
REMARK INTRA:                  -0.523
REMARK UNBOUND:                -0.510
REMARK  Name = 
REMARK  8 active torsions:
REMARK  status: ('A' for Active; 'I' for Inactive)
REMARK    1  A    between atoms: C_1  and  N_2
REMARK    2  A    between atoms: C_8  and  C_9
REMARK    3  A    between atoms: C_9  and  C_10
REMARK    4  A    between atoms: C_9  and  C_11
REMARK    5  A    between atoms: C_9  and  C_12
REMARK    6  A    between atoms: C_12  and  N_13
REMARK    7  A    between atoms: N_13  and  C_14
REMARK    8  A    between atoms: C_17  and  C_18
REMARK                            x       y       z     vdW  Elec       q    Type
REMARK                         _______ _______ _______ _____ _____    ______ ____
ROOT
ATOM      1  C   UNL     1      48.028   8.722  12.506  0.00  0.00    +0.000 C 
ATOM      2  C   UNL     1      48.545   9.982  11.768  0.00  0.00    +0.000 C 
ATOM      3  C   UNL     1      48.589   7.476  11.770  0.00  0.00    +0.000 C 
ENDROOT
BRANCH   1  11
ATOM      4  C   UNL     1      50.204   2.107  17.364  0.00  0.00    +0.000 C 
ATOM      5  N   UNL     1      49.679   3.459  17.537  0.00  0.00    +0.000 NA
ATOM      6  C   UNL     1      50.786   4.455  17.504  0.00  0.00    +0.000 C 
ATOM      7  C   UNL     1      50.289   5.925  17.546  0.00  0.00    +0.000 C 
ATOM      8  N   UNL     1      49.370   6.096  16.422  0.00  0.00    +0.000 N 
ATOM      9  C   UNL     1      49.175   7.364  15.906  0.00  0.00    +0.000 A 
ATOM     10  C   UNL     1      48.728   7.459  14.586  0.00  0.00    +0.000 A 
ATOM     11  C   UNL     1      48.538   8.693  13.954  0.00  0.00    +0.000 A 
ATOM     12  C   UNL     1      48.822   9.821  14.722  0.00  0.00    +0.000 A 
ATOM     13  C   UNL     1      49.286   9.658  16.021  0.00  0.00    +0.000 A 
ATOM     14  N   UNL     1      49.477   8.462  16.619  0.00  0.00    +0.000 NA
ATOM     15  C   UNL     1      48.196   5.220  16.514  0.00  0.00    +0.000 C 
ATOM     16  C   UNL     1      48.691   3.760  16.473  0.00  0.00    +0.000 C 
ENDBRANCH   1  11
BRANCH   1  17
ATOM     17  C   UNL     1      46.478   8.643  12.366  0.00  0.00    +0.000 C 
BRANCH  17  18
ATOM     18  N   UNL     1      45.860   7.683  13.292  0.00  0.00    +0.000 N 
ATOM     19  H   UNL     1      45.183   8.107  13.923  0.00  0.00    +0.000 HD
BRANCH  18  20
ATOM     20  C   UNL     1      45.415   6.466  12.774  0.00  0.00    +0.000 A 
ATOM     21  C   UNL     1      45.589   5.233  13.383  0.00  0.00    +0.000 A 
ATOM     22  N   UNL     1      45.116   4.060  12.913  0.00  0.00    +0.000 NA
ATOM     23  C   UNL     1      44.393   4.146  11.772  0.00  0.00    +0.000 A 
ATOM     24  N   UNL     1      44.102   5.279  11.108  0.00  0.00    +0.000 NA
ATOM     25  C   UNL     1      44.609   6.410  11.645  0.00  0.00    +0.000 A 
BRANCH  23  26
ATOM     26  C   UNL     1      43.879   2.839  11.223  0.00  0.00    +0.000 C 
ATOM     27  N   UNL     1      44.592   2.329  10.162  0.00  0.00    +0.000 N 
ATOM     28  O   UNL     1      42.893   2.248  11.653  0.00  0.00    +0.000 OA
ATOM     29  H   UNL     1      45.407   2.822   9.817  0.00  0.00    +0.000 HD
ATOM     30  H   UNL     1      44.303   1.454   9.749  0.00  0.00    +0.000 HD
ENDBRANCH  23  26
ENDBRANCH  18  20
ENDBRANCH  17  18
ENDBRANCH   1  17
TORSDOF 5
ENDMDL
MODEL 6
REMARK VINA RESULT:    -6.368      4.460      6.855
REMARK INTER + INTRA:          -8.739
REMARK INTER:                  -8.259
REMARK INTRA:                  -0.480
REMARK UNBOUND:                -0.510
REMARK  Name = 
REMARK  8 active torsions:
REMARK  status: ('A' for Active; 'I' for Inactive)
REMARK    1  A    between atoms: C_1  and  N_2
REMARK    2  A    between atoms: C_8  and  C_9
REMARK    3  A    between atoms: C_9  and  C_10
REMARK    4  A    between atoms: C_9  and  C_11
REMARK    5  A    between atoms: C_9  and  C_12
REMARK    6  A    between atoms: C_12  and  N_13
REMARK    7  A    between atoms: N_13  and  C_14
REMARK    8  A    between atoms: C_17  and  C_18
REMARK                            x       y       z     vdW  Elec       q    Type
REMARK                         _______ _______ _______ _____ _____    ______ ____
ROOT
ATOM      1  C   UNL     1      49.004   7.516  15.145  0.00  0.00    +0.000 C 
ATOM      2  C   UNL     1      48.148   8.800  15.264  0.00  0.00    +0.000 C 
ATOM      3  C   UNL     1      50.131   7.790  14.114  0.00  0.00    +0.000 C 
ENDROOT
BRANCH   1  11
ATOM      4  C   UNL     1      53.173   0.515  17.535  0.00  0.00    +0.000 C 
ATOM      5  N   UNL     1      52.370   1.568  18.151  0.00  0.00    +0.000 NA
ATOM      6  C   UNL     1      53.204   2.773  18.412  0.00  0.00    +0.000 C 
ATOM      7  C   UNL     1      52.387   3.982  18.942  0.00  0.00    +0.000 C 
ATOM      8  N   UNL     1      51.337   4.249  17.960  0.00  0.00    +0.000 N 
ATOM      9  C   UNL     1      50.798   5.520  17.889  0.00  0.00    +0.000 A 
ATOM     10  C   UNL     1      50.200   5.898  16.684  0.00  0.00    +0.000 A 
ATOM     11  C   UNL     1      49.661   7.175  16.491  0.00  0.00    +0.000 A 
ATOM     12  C   UNL     1      49.757   8.046  17.575  0.00  0.00    +0.000 A 
ATOM     13  C   UNL     1      50.384   7.617  18.737  0.00  0.00    +0.000 A 
ATOM     14  N   UNL     1      50.911   6.385  18.910  0.00  0.00    +0.000 NA
ATOM     15  C   UNL     1      50.416   3.118  17.797  0.00  0.00    +0.000 C 
ATOM     16  C   UNL     1      51.230   1.918  17.270  0.00  0.00    +0.000 C 
ENDBRANCH   1  11
BRANCH   1  17
ATOM     17  C   UNL     1      48.137   6.371  14.543  0.00  0.00    +0.000 C 
BRANCH  17  18
ATOM     18  N   UNL     1      47.080   6.854  13.644  0.00  0.00    +0.000 N 
ATOM     19  H   UNL     1      47.389   7.595  13.016  0.00  0.00    +0.000 HD
BRANCH  18  20
ATOM     20  C   UNL     1      46.284   5.907  12.999  0.00  0.00    +0.000 A 
ATOM     21  C   UNL     1      45.943   5.939  11.655  0.00  0.00    +0.000 A 
ATOM     22  N   UNL     1      45.216   5.000  11.015  0.00  0.00    +0.000 NA
ATOM     23  C   UNL     1      44.841   3.946  11.775  0.00  0.00    +0.000 A 
ATOM     24  N   UNL     1      45.147   3.760  13.071  0.00  0.00    +0.000 NA
ATOM     25  C   UNL     1      45.879   4.743  13.638  0.00  0.00    +0.000 A 
BRANCH  23  26
ATOM     26  C   UNL     1      44.007   2.900  11.077  0.00  0.00    +0.000 C 
ATOM     27  N   UNL     1      44.544   2.404   9.911  0.00  0.00    +0.000 N 
ATOM     28  O   UNL     1      42.917   2.503  11.480  0.00  0.00    +0.000 OA
ATOM     29  H   UNL     1      45.446   2.736   9.589  0.00  0.00    +0.000 HD
ATOM     30  H   UNL     1      44.039   1.699   9.396  0.00  0.00    +0.000 HD
ENDBRANCH  23  26
ENDBRANCH  18  20
ENDBRANCH  17  18
ENDBRANCH   1  17
TORSDOF 5
ENDMDL
MODEL 7
REMARK VINA RESULT:    -6.234      3.682      8.099
REMARK INTER + INTRA:          -8.566
REMARK INTER:                  -7.625
REMARK INTRA:                  -0.941
REMARK UNBOUND:                -0.510
REMARK  Name = 
REMARK  8 active torsions:
REMARK  status: ('A' for Active; 'I' for Inactive)
REMARK    1  A    between atoms: C_1  and  N_2
REMARK    2  A    between atoms: C_8  and  C_9
REMARK    3  A    between atoms: C_9  and  C_10
REMARK    4  A    between atoms: C_9  and  C_11
REMARK    5  A    between atoms: C_9  and  C_12
REMARK    6  A    between atoms: C_12  and  N_13
REMARK    7  A    between atoms: N_13  and  C_14
REMARK    8  A    between atoms: C_17  and  C_18
REMARK                            x       y       z     vdW  Elec       q    Type
REMARK                         _______ _______ _______ _____ _____    ______ ____
ROOT
ATOM      1  C   UNL     1      49.476   9.353  15.645  0.00  0.00    +0.000 C 
ATOM      2  C   UNL     1      49.970  10.820  15.600  0.00  0.00    +0.000 C 
ATOM      3  C   UNL     1      48.124   9.330  16.406  0.00  0.00    +0.000 C 
ENDROOT
BRANCH   1  11
ATOM      4  C   UNL     1      43.399   4.179  12.750  0.00  0.00    +0.000 C 
ATOM      5  N   UNL     1      44.780   4.523  12.426  0.00  0.00    +0.000 NA
ATOM      6  C   UNL     1      44.828   5.765  11.605  0.00  0.00    +0.000 C 
ATOM      7  C   UNL     1      46.271   6.268  11.338  0.00  0.00    +0.000 C 
ATOM      8  N   UNL     1      46.907   6.453  12.641  0.00  0.00    +0.000 N 
ATOM      9  C   UNL     1      47.960   7.341  12.750  0.00  0.00    +0.000 A 
ATOM     10  C   UNL     1      48.220   7.878  14.013  0.00  0.00    +0.000 A 
ATOM     11  C   UNL     1      49.236   8.817  14.225  0.00  0.00    +0.000 A 
ATOM     12  C   UNL     1      49.973   9.183  13.100  0.00  0.00    +0.000 A 
ATOM     13  C   UNL     1      49.648   8.630  11.868  0.00  0.00    +0.000 A 
ATOM     14  N   UNL     1      48.659   7.732  11.671  0.00  0.00    +0.000 NA
ATOM     15  C   UNL     1      46.999   5.204  13.406  0.00  0.00    +0.000 C 
ATOM     16  C   UNL     1      45.563   4.706  13.672  0.00  0.00    +0.000 C 
ENDBRANCH   1  11
BRANCH   1  17
ATOM     17  C   UNL     1      50.465   8.502  16.496  0.00  0.00    +0.000 C 
BRANCH  17  18
ATOM     18  N   UNL     1      49.798   7.699  17.531  0.00  0.00    +0.000 N 
ATOM     19  H   UNL     1      48.881   8.057  17.794  0.00  0.00    +0.000 HD
BRANCH  18  20
ATOM     20  C   UNL     1      49.807   6.311  17.391  0.00  0.00    +0.000 A 
ATOM     21  C   UNL     1      48.834   5.572  16.735  0.00  0.00    +0.000 A 
ATOM     22  N   UNL     1      48.863   4.236  16.552  0.00  0.00    +0.000 NA
ATOM     23  C   UNL     1      49.963   3.613  17.034  0.00  0.00    +0.000 A 
ATOM     24  N   UNL     1      51.004   4.210  17.641  0.00  0.00    +0.000 NA
ATOM     25  C   UNL     1      50.899   5.549  17.783  0.00  0.00    +0.000 A 
BRANCH  23  26
ATOM     26  C   UNL     1      49.997   2.115  16.858  0.00  0.00    +0.000 C 
ATOM     27  N   UNL     1      50.885   1.450  17.671  0.00  0.00    +0.000 N 
ATOM     28  O   UNL     1      49.308   1.499  16.050  0.00  0.00    +0.000 OA
ATOM     29  H   UNL     1      51.447   1.968  18.337  0.00  0.00    +0.000 HD
ATOM     30  H   UNL     1      50.956   0.445  17.606  0.00  0.00    +0.000 HD
ENDBRANCH  23  26
ENDBRANCH  18  20
ENDBRANCH  17  18
ENDBRANCH   1  17
TORSDOF 5
ENDMDL
MODEL 8
REMARK VINA RESULT:    -6.231      3.746      8.085
REMARK INTER + INTRA:          -8.563
REMARK INTER:                  -8.208
REMARK INTRA:                  -0.355
REMARK UNBOUND:                -0.510
REMARK  Name = 
REMARK  8 active torsions:
REMARK  status: ('A' for Active; 'I' for Inactive)
REMARK    1  A    between atoms: C_1  and  N_2
REMARK    2  A    between atoms: C_8  and  C_9
REMARK    3  A    between atoms: C_9  and  C_10
REMARK    4  A    between atoms: C_9  and  C_11
REMARK    5  A    between atoms: C_9  and  C_12
REMARK    6  A    between atoms: C_12  and  N_13
REMARK    7  A    between atoms: N_13  and  C_14
REMARK    8  A    between atoms: C_17  and  C_18
REMARK                            x       y       z     vdW  Elec       q    Type
REMARK                         _______ _______ _______ _____ _____    ______ ____
ROOT
ATOM      1  C   UNL     1      45.409   5.987  12.471  0.00  0.00    +0.000 C 
ATOM      2  C   UNL     1      45.868   6.982  11.377  0.00  0.00    +0.000 C 
ATOM      3  C   UNL     1      44.242   6.646  13.253  0.00  0.00    +0.000 C 
ENDROOT
BRANCH   1  11
ATOM      4  C   UNL     1      47.989   1.937   5.469  0.00  0.00    +0.000 C 
ATOM      5  N   UNL     1      46.763   2.095   6.245  0.00  0.00    +0.000 NA
ATOM      6  C   UNL     1      46.756   1.159   7.403  0.00  0.00    +0.000 C 
ATOM      7  C   UNL     1      45.545   1.366   8.352  0.00  0.00    +0.000 C 
ATOM      8  N   UNL     1      45.574   2.763   8.782  0.00  0.00    +0.000 N 
ATOM      9  C   UNL     1      44.965   3.107   9.974  0.00  0.00    +0.000 A 
ATOM     10  C   UNL     1      45.407   4.271  10.609  0.00  0.00    +0.000 A 
ATOM     11  C   UNL     1      44.888   4.687  11.839  0.00  0.00    +0.000 A 
ATOM     12  C   UNL     1      43.904   3.871  12.394  0.00  0.00    +0.000 A 
ATOM     13  C   UNL     1      43.526   2.714  11.724  0.00  0.00    +0.000 A 
ATOM     14  N   UNL     1      44.040   2.314  10.541  0.00  0.00    +0.000 NA
ATOM     15  C   UNL     1      45.435   3.701   7.661  0.00  0.00    +0.000 C 
ATOM     16  C   UNL     1      46.639   3.494   6.720  0.00  0.00    +0.000 C 
ENDBRANCH   1  11
BRANCH   1  17
ATOM     17  C   UNL     1      46.560   5.787  13.502  0.00  0.00    +0.000 C 
BRANCH  17  18
ATOM     18  N   UNL     1      46.307   4.692  14.449  0.00  0.00    +0.000 N 
ATOM     19  H   UNL     1      46.160   3.791  13.997  0.00  0.00    +0.000 HD
BRANCH  18  20
ATOM     20  C   UNL     1      47.127   4.596  15.574  0.00  0.00    +0.000 A 
ATOM     21  C   UNL     1      46.985   3.655  16.582  0.00  0.00    +0.000 A 
ATOM     22  N   UNL     1      47.805   3.524  17.646  0.00  0.00    +0.000 NA
ATOM     23  C   UNL     1      48.853   4.378  17.672  0.00  0.00    +0.000 A 
ATOM     24  N   UNL     1      49.141   5.301  16.737  0.00  0.00    +0.000 NA
ATOM     25  C   UNL     1      48.274   5.366  15.704  0.00  0.00    +0.000 A 
BRANCH  23  26
ATOM     26  C   UNL     1      49.764   4.260  18.869  0.00  0.00    +0.000 C 
ATOM     27  N   UNL     1      51.019   3.764  18.602  0.00  0.00    +0.000 N 
ATOM     28  O   UNL     1      49.442   4.559  20.015  0.00  0.00    +0.000 OA
ATOM     29  H   UNL     1      51.276   3.523  17.652  0.00  0.00    +0.000 HD
ATOM     30  H   UNL     1      51.680   3.663  19.358  0.00  0.00    +0.000 HD
ENDBRANCH  23  26
ENDBRANCH  18  20
ENDBRANCH  17  18
ENDBRANCH   1  17
TORSDOF 5
ENDMDL
MODEL 9
REMARK VINA RESULT:    -6.147      5.629      9.093
REMARK INTER + INTRA:          -8.454
REMARK INTER:                  -8.266
REMARK INTRA:                  -0.187
REMARK UNBOUND:                -0.510
REMARK  Name = 
REMARK  8 active torsions:
REMARK  status: ('A' for Active; 'I' for Inactive)
REMARK    1  A    between atoms: C_1  and  N_2
REMARK    2  A    between atoms: C_8  and  C_9
REMARK    3  A    between atoms: C_9  and  C_10
REMARK    4  A    between atoms: C_9  and  C_11
REMARK    5  A    between atoms: C_9  and  C_12
REMARK    6  A    between atoms: C_12  and  N_13
REMARK    7  A    between atoms: N_13  and  C_14
REMARK    8  A    between atoms: C_17  and  C_18
REMARK                            x       y       z     vdW  Elec       q    Type
REMARK                         _______ _______ _______ _____ _____    ______ ____
ROOT
ATOM      1  C   UNL     1      48.299   4.719  17.950  0.00  0.00    +0.000 C 
ATOM      2  C   UNL     1      47.426   5.554  18.920  0.00  0.00    +0.000 C 
ATOM      3  C   UNL     1      47.612   3.340  17.761  0.00  0.00    +0.000 C 
ENDROOT
BRANCH   1  11
ATOM      4  C   UNL     1      43.377   3.795  11.094  0.00  0.00    +0.000 C 
ATOM      5  N   UNL     1      44.760   4.148  11.401  0.00  0.00    +0.000 NA
ATOM      6  C   UNL     1      44.861   5.587  11.767  0.00  0.00    +0.000 C 
ATOM      7  C   UNL     1      46.281   6.002  12.239  0.00  0.00    +0.000 C 
ATOM      8  N   UNL     1      46.629   5.130  13.359  0.00  0.00    +0.000 N 
ATOM      9  C   UNL     1      47.560   5.569  14.281  0.00  0.00    +0.000 A 
ATOM     10  C   UNL     1      47.520   5.000  15.557  0.00  0.00    +0.000 A 
ATOM     11  C   UNL     1      48.389   5.401  16.577  0.00  0.00    +0.000 A 
ATOM     12  C   UNL     1      49.298   6.403  16.243  0.00  0.00    +0.000 A 
ATOM     13  C   UNL     1      49.272   6.944  14.964  0.00  0.00    +0.000 A 
ATOM     14  N   UNL     1      48.421   6.558  13.989  0.00  0.00    +0.000 NA
ATOM     15  C   UNL     1      46.676   3.713  12.979  0.00  0.00    +0.000 C 
ATOM     16  C   UNL     1      45.264   3.303  12.510  0.00  0.00    +0.000 C 
ENDBRANCH   1  11
BRANCH   1  17
ATOM     17  C   UNL     1      49.676   4.427  18.617  0.00  0.00    +0.000 C 
BRANCH  17  18
ATOM     18  N   UNL     1      50.760   4.227  17.645  0.00  0.00    +0.000 N 
ATOM     19  H   UNL     1      51.302   5.070  17.463  0.00  0.00    +0.000 HD
BRANCH  18  20
ATOM     20  C   UNL     1      51.566   3.096  17.785  0.00  0.00    +0.000 A 
ATOM     21  C   UNL     1      52.745   3.046  18.512  0.00  0.00    +0.000 A 
ATOM     22  N   UNL     1      53.501   1.943  18.694  0.00  0.00    +0.000 NA
ATOM     23  C   UNL     1      53.014   0.813  18.132  0.00  0.00    +0.000 A 
ATOM     24  N   UNL     1      51.861   0.707  17.449  0.00  0.00    +0.000 NA
ATOM     25  C   UNL     1      51.161   1.855  17.315  0.00  0.00    +0.000 A 
BRANCH  23  26
ATOM     26  C   UNL     1      53.862  -0.422  18.306  0.00  0.00    +0.000 C 
ATOM     27  N   UNL     1      53.213  -1.506  18.850  0.00  0.00    +0.000 N 
ATOM     28  O   UNL     1      55.052  -0.491  18.010  0.00  0.00    +0.000 OA
ATOM     29  H   UNL     1      52.229  -1.439  19.087  0.00  0.00    +0.000 HD
ATOM     30  H   UNL     1      53.722  -2.366  18.990  0.00  0.00    +0.000 HD
ENDBRANCH  23  26
ENDBRANCH  18  20
ENDBRANCH  17  18
ENDBRANCH   1  17
TORSDOF 5
ENDMDL
