MODEL 1
REMARK VINA RESULT:    -8.514      0.000      0.000
REMARK INTER + INTRA:         -12.992
REMARK INTER:                 -11.999
REMARK INTRA:                  -0.993
REMARK UNBOUND:                -0.993
REMARK  Name = 
REMARK  8 active torsions:
REMARK  status: ('A' for Active; 'I' for Inactive)
REMARK    1  A    between atoms: C_1  and  C_2
REMARK    2  A    between atoms: C_2  and  C_3
REMARK    3  A    between atoms: C_3  and  N_4
REMARK    4  A    between atoms: C_3  and  C_17
REMARK    5  A    between atoms: C_5  and  C_7
REMARK    6  A    between atoms: N_21  and  C_22
REMARK    7  A    between atoms: C_22  and  C_23
REMARK    8  A    between atoms: C_23  and  N_24
REMARK                            x       y       z     vdW  Elec       q    Type
REMARK                         _______ _______ _______ _____ _____    ______ ____
ROOT
ATOM      1  C   UNL     1      46.663   7.150  12.799  0.00  0.00    +0.000 C 
ENDROOT
BRANCH   1   2
ATOM      2  C   UNL     1      46.066   5.892  12.189  0.00  0.00    +0.000 A 
ATOM      3  C   UNL     1      45.891   4.716  12.920  0.00  0.00    +0.000 A 
ATOM      4  C   UNL     1      45.339   3.593  12.309  0.00  0.00    +0.000 A 
ATOM      5  C   UNL     1      44.961   3.644  10.972  0.00  0.00    +0.000 A 
ATOM      6  N   UNL     1      44.518   2.464  10.385  0.00  0.00    +0.000 N 
ATOM      7  N   UNL     1      45.107   4.774  10.253  0.00  0.00    +0.000 NA
ATOM      8  C   UNL     1      45.630   5.865  10.869  0.00  0.00    +0.000 A 
ATOM      9  H   UNL     1      43.780   2.000  10.900  0.00  0.00    +0.000 HD
BRANCH   6  10
ATOM     10  C   UNL     1      44.412   2.385   8.932  0.00  0.00    +0.000 C 
BRANCH  10  11
ATOM     11  C   UNL     1      45.603   1.544   8.417  0.00  0.00    +0.000 C 
BRANCH  11  12
ATOM     12  N   UNL     1      46.782   2.307   7.968  0.00  0.00    +0.000 NA
ATOM     13  C   UNL     1      46.364   3.461   7.149  0.00  0.00    +0.000 C 
ATOM     14  C   UNL     1      46.542   3.033   5.708  0.00  0.00    +0.000 C 
ATOM     15  C   UNL     1      47.777   2.164   5.772  0.00  0.00    +0.000 C 
ATOM     16  C   UNL     1      47.683   1.491   7.133  0.00  0.00    +0.000 C 
ENDBRANCH  11  12
ENDBRANCH  10  11
ENDBRANCH   6  10
ENDBRANCH   1   2
BRANCH   1  17
ATOM     17  N   UNL     1      47.100   6.860  14.169  0.00  0.00    +0.000 N 
ATOM     18  C   UNL     1      48.414   6.637  14.518  0.00  0.00    +0.000 C 
ATOM     19  O   UNL     1      49.334   6.665  13.713  0.00  0.00    +0.000 OA
ATOM     20  H   UNL     1      46.401   6.520  14.816  0.00  0.00    +0.000 HD
BRANCH  18  21
ATOM     21  C   UNL     1      48.635   6.431  15.953  0.00  0.00    +0.000 A 
ATOM     22  C   UNL     1      49.137   7.411  16.798  0.00  0.00    +0.000 A 
ATOM     23  S   UNL     1      49.405   6.859  18.393  0.00  0.00    +0.000 S 
ATOM     24  C   UNL     1      48.879   5.289  17.996  0.00  0.00    +0.000 A 
ATOM     25  N   UNL     1      48.890   4.292  18.921  0.00  0.00    +0.000 NA
ATOM     26  C   UNL     1      48.491   3.147  18.470  0.00  0.00    +0.000 A 
ATOM     27  N   UNL     1      48.060   2.919  17.189  0.00  0.00    +0.000 N 
ATOM     28  C   UNL     1      47.934   3.918  16.247  0.00  0.00    +0.000 A 
ATOM     29  O   UNL     1      47.352   3.714  15.189  0.00  0.00    +0.000 OA
ATOM     30  C   UNL     1      48.464   5.200  16.681  0.00  0.00    +0.000 A 
ATOM     31  H   UNL     1      47.689   2.016  16.912  0.00  0.00    +0.000 HD
ENDBRANCH  18  21
ENDBRANCH   1  17
BRANCH   1  33
ATOM     32  C   UNL     1      46.148   9.555  12.014  0.00  0.00    +0.000 C 
ATOM     33  C   UNL     1      45.651   8.318  12.753  0.00  0.00    +0.000 C 
ENDBRANCH   1  33
TORSDOF 7
ENDMDL
MODEL 2
REMARK VINA RESULT:    -7.636      1.934      2.577
REMARK INTER + INTRA:         -11.753
REMARK INTER:                 -10.502
REMARK INTRA:                  -1.251
REMARK UNBOUND:                -0.993
REMARK  Name = 
REMARK  8 active torsions:
REMARK  status: ('A' for Active; 'I' for Inactive)
REMARK    1  A    between atoms: C_1  and  C_2
REMARK    2  A    between atoms: C_2  and  C_3
REMARK    3  A    between atoms: C_3  and  N_4
REMARK    4  A    between atoms: C_3  and  C_17
REMARK    5  A    between atoms: C_5  and  C_7
REMARK    6  A    between atoms: N_21  and  C_22
REMARK    7  A    between atoms: C_22  and  C_23
REMARK    8  A    between atoms: C_23  and  N_24
REMARK                            x       y       z     vdW  Elec       q    Type
REMARK                         _______ _______ _______ _____ _____    ______ ____
ROOT
ATOM      1  C   UNL     1      47.730   6.835  13.579  0.00  0.00    +0.000 C 
ENDROOT
BRANCH   1   2
ATOM      2  C   UNL     1      46.861   5.756  12.956  0.00  0.00    +0.000 A 
ATOM      3  C   UNL     1      46.664   4.512  13.559  0.00  0.00    +0.000 A 
ATOM      4  C   UNL     1      45.856   3.559  12.942  0.00  0.00    +0.000 A 
ATOM      5  C   UNL     1      45.244   3.850  11.727  0.00  0.00    +0.000 A 
ATOM      6  N   UNL     1      44.539   2.825  11.105  0.00  0.00    +0.000 N 
ATOM      7  N   UNL     1      45.407   5.050  11.137  0.00  0.00    +0.000 NA
ATOM      8  C   UNL     1      46.184   5.972  11.760  0.00  0.00    +0.000 A 
ATOM      9  H   UNL     1      43.854   2.377  11.699  0.00  0.00    +0.000 HD
BRANCH   6  10
ATOM     10  C   UNL     1      44.151   2.973   9.706  0.00  0.00    +0.000 C 
BRANCH  10  11
ATOM     11  C   UNL     1      44.904   1.896   8.890  0.00  0.00    +0.000 C 
BRANCH  11  12
ATOM     12  N   UNL     1      46.280   2.239   8.488  0.00  0.00    +0.000 NA
ATOM     13  C   UNL     1      46.291   3.501   7.723  0.00  0.00    +0.000 C 
ATOM     14  C   UNL     1      46.350   3.100   6.264  0.00  0.00    +0.000 C 
ATOM     15  C   UNL     1      47.221   1.866   6.296  0.00  0.00    +0.000 C 
ATOM     16  C   UNL     1      46.876   1.205   7.622  0.00  0.00    +0.000 C 
ENDBRANCH  11  12
ENDBRANCH  10  11
ENDBRANCH   6  10
ENDBRANCH   1   2
BRANCH   1  17
ATOM     17  N   UNL     1      47.854   6.583  15.019  0.00  0.00    +0.000 N 
ATOM     18  C   UNL     1      49.058   6.577  15.690  0.00  0.00    +0.000 C 
ATOM     19  O   UNL     1      50.131   6.787  15.141  0.00  0.00    +0.000 OA
ATOM     20  H   UNL     1      47.086   6.108  15.474  0.00  0.00    +0.000 HD
BRANCH  18  21
ATOM     21  C   UNL     1      48.946   6.369  17.137  0.00  0.00    +0.000 A 
ATOM     22  C   UNL     1      49.263   5.172  17.764  0.00  0.00    +0.000 A 
ATOM     23  S   UNL     1      48.920   5.172  19.438  0.00  0.00    +0.000 S 
ATOM     24  C   UNL     1      48.318   6.763  19.370  0.00  0.00    +0.000 A 
ATOM     25  N   UNL     1      47.818   7.370  20.479  0.00  0.00    +0.000 NA
ATOM     26  C   UNL     1      47.369   8.566  20.272  0.00  0.00    +0.000 A 
ATOM     27  N   UNL     1      47.401   9.213  19.064  0.00  0.00    +0.000 N 
ATOM     28  C   UNL     1      47.990   8.679  17.938  0.00  0.00    +0.000 A 
ATOM     29  O   UNL     1      48.183   9.367  16.943  0.00  0.00    +0.000 OA
ATOM     30  C   UNL     1      48.418   7.300  18.101  0.00  0.00    +0.000 A 
ATOM     31  H   UNL     1      47.101  10.179  18.977  0.00  0.00    +0.000 HD
ENDBRANCH  18  21
ENDBRANCH   1  17
BRANCH   1  33
ATOM     32  C   UNL     1      48.014   9.096  12.365  0.00  0.00    +0.000 C 
ATOM     33  C   UNL     1      47.155   8.241  13.290  0.00  0.00    +0.000 C 
ENDBRANCH   1  33
TORSDOF 7
ENDMDL
MODEL 3
REMARK VINA RESULT:    -7.118      3.242      8.004
REMARK INTER + INTRA:         -11.024
REMARK INTER:                  -9.717
REMARK INTRA:                  -1.306
REMARK UNBOUND:                -0.993
REMARK  Name = 
REMARK  8 active torsions:
REMARK  status: ('A' for Active; 'I' for Inactive)
REMARK    1  A    between atoms: C_1  and  C_2
REMARK    2  A    between atoms: C_2  and  C_3
REMARK    3  A    between atoms: C_3  and  N_4
REMARK    4  A    between atoms: C_3  and  C_17
REMARK    5  A    between atoms: C_5  and  C_7
REMARK    6  A    between atoms: N_21  and  C_22
REMARK    7  A    between atoms: C_22  and  C_23
REMARK    8  A    between atoms: C_23  and  N_24
REMARK                            x       y       z     vdW  Elec       q    Type
REMARK                         _______ _______ _______ _____ _____    ______ ____
ROOT
ATOM      1  C   UNL     1      48.116   7.621  12.834  0.00  0.00    +0.000 C 
ENDROOT
BRANCH   1   2
ATOM      2  C   UNL     1      48.328   7.173  14.271  0.00  0.00    +0.000 A 
ATOM      3  C   UNL     1      48.661   8.065  15.292  0.00  0.00    +0.000 A 
ATOM      4  C   UNL     1      48.844   7.599  16.591  0.00  0.00    +0.000 A 
ATOM      5  C   UNL     1      48.692   6.245  16.872  0.00  0.00    +0.000 A 
ATOM      6  N   UNL     1      48.994   5.820  18.161  0.00  0.00    +0.000 N 
ATOM      7  N   UNL     1      48.355   5.370  15.904  0.00  0.00    +0.000 NA
ATOM      8  C   UNL     1      48.164   5.844  14.647  0.00  0.00    +0.000 A 
ATOM      9  H   UNL     1      48.521   6.343  18.888  0.00  0.00    +0.000 HD
BRANCH   6  10
ATOM     10  C   UNL     1      49.156   4.394  18.423  0.00  0.00    +0.000 C 
BRANCH  10  11
ATOM     11  C   UNL     1      50.660   4.127  18.665  0.00  0.00    +0.000 C 
BRANCH  11  12
ATOM     12  N   UNL     1      51.388   3.495  17.550  0.00  0.00    +0.000 NA
ATOM     13  C   UNL     1      50.688   2.275  17.106  0.00  0.00    +0.000 C 
ATOM     14  C   UNL     1      51.414   1.118  17.760  0.00  0.00    +0.000 C 
ATOM     15  C   UNL     1      52.852   1.584  17.751  0.00  0.00    +0.000 C 
ATOM     16  C   UNL     1      52.752   3.091  17.940  0.00  0.00    +0.000 C 
ENDBRANCH  11  12
ENDBRANCH  10  11
ENDBRANCH   6  10
ENDBRANCH   1   2
BRANCH   1  17
ATOM     17  N   UNL     1      47.392   6.574  12.105  0.00  0.00    +0.000 N 
ATOM     18  C   UNL     1      46.140   6.755  11.557  0.00  0.00    +0.000 C 
ATOM     19  O   UNL     1      45.524   7.809  11.630  0.00  0.00    +0.000 OA
ATOM     20  H   UNL     1      47.677   5.617  12.263  0.00  0.00    +0.000 HD
BRANCH  18  21
ATOM     21  C   UNL     1      45.629   5.598  10.815  0.00  0.00    +0.000 A 
ATOM     22  C   UNL     1      45.705   5.482   9.435  0.00  0.00    +0.000 A 
ATOM     23  S   UNL     1      44.922   4.088   8.828  0.00  0.00    +0.000 S 
ATOM     24  C   UNL     1      44.441   3.612  10.390  0.00  0.00    +0.000 A 
ATOM     25  N   UNL     1      43.691   2.494  10.581  0.00  0.00    +0.000 NA
ATOM     26  C   UNL     1      43.375   2.272  11.816  0.00  0.00    +0.000 A 
ATOM     27  N   UNL     1      43.765   3.052  12.873  0.00  0.00    +0.000 N 
ATOM     28  C   UNL     1      44.610   4.134  12.742  0.00  0.00    +0.000 A 
ATOM     29  O   UNL     1      45.098   4.674  13.727  0.00  0.00    +0.000 OA
ATOM     30  C   UNL     1      44.908   4.477  11.362  0.00  0.00    +0.000 A 
ATOM     31  H   UNL     1      43.549   2.788  13.830  0.00  0.00    +0.000 HD
ENDBRANCH  18  21
ENDBRANCH   1  17
BRANCH   1  33
ATOM     32  C   UNL     1      49.534   9.361  11.558  0.00  0.00    +0.000 C 
ATOM     33  C   UNL     1      49.466   7.962  12.160  0.00  0.00    +0.000 C 
ENDBRANCH   1  33
TORSDOF 7
ENDMDL
MODEL 4
REMARK VINA RESULT:    -7.111      3.218      7.698
REMARK INTER + INTRA:         -11.014
REMARK INTER:                  -9.521
REMARK INTRA:                  -1.492
REMARK UNBOUND:                -0.993
REMARK  Name = 
REMARK  8 active torsions:
REMARK  status: ('A' for Active; 'I' for Inactive)
REMARK    1  A    between atoms: C_1  and  C_2
REMARK    2  A    between atoms: C_2  and  C_3
REMARK    3  A    between atoms: C_3  and  N_4
REMARK    4  A    between atoms: C_3  and  C_17
REMARK    5  A    between atoms: C_5  and  C_7
REMARK    6  A    between atoms: N_21  and  C_22
REMARK    7  A    between atoms: C_22  and  C_23
REMARK    8  A    between atoms: C_23  and  N_24
REMARK                            x       y       z     vdW  Elec       q    Type
REMARK                         _______ _______ _______ _____ _____    ______ ____
ROOT
ATOM      1  C   UNL     1      48.178   8.263  12.679  0.00  0.00    +0.000 C 
ENDROOT
BRANCH   1   2
ATOM      2  C   UNL     1      48.943   7.739  13.883  0.00  0.00    +0.000 A 
ATOM      3  C   UNL     1      50.326   7.881  14.011  0.00  0.00    +0.000 A 
ATOM      4  C   UNL     1      50.976   7.380  15.137  0.00  0.00    +0.000 A 
ATOM      5  C   UNL     1      50.246   6.742  16.134  0.00  0.00    +0.000 A 
ATOM      6  N   UNL     1      50.959   6.166  17.180  0.00  0.00    +0.000 N 
ATOM      7  N   UNL     1      48.909   6.609  16.037  0.00  0.00    +0.000 NA
ATOM      8  C   UNL     1      48.289   7.118  14.942  0.00  0.00    +0.000 A 
ATOM      9  H   UNL     1      51.613   6.796  17.628  0.00  0.00    +0.000 HD
BRANCH   6  10
ATOM     10  C   UNL     1      50.285   5.227  18.071  0.00  0.00    +0.000 C 
BRANCH  10  11
ATOM     11  C   UNL     1      50.600   3.796  17.575  0.00  0.00    +0.000 C 
BRANCH  11  12
ATOM     12  N   UNL     1      49.521   2.806  17.742  0.00  0.00    +0.000 NA
ATOM     13  C   UNL     1      49.059   2.323  16.427  0.00  0.00    +0.000 C 
ATOM     14  C   UNL     1      47.801   3.107  16.116  0.00  0.00    +0.000 C 
ATOM     15  C   UNL     1      47.164   3.261  17.478  0.00  0.00    +0.000 C 
ATOM     16  C   UNL     1      48.348   3.380  18.427  0.00  0.00    +0.000 C 
ENDBRANCH  11  12
ENDBRANCH  10  11
ENDBRANCH   6  10
ENDBRANCH   1   2
BRANCH   1  17
ATOM     17  N   UNL     1      47.533   7.139  11.992  0.00  0.00    +0.000 N 
ATOM     18  C   UNL     1      46.166   7.006  11.869  0.00  0.00    +0.000 C 
ATOM     19  O   UNL     1      45.371   7.819  12.321  0.00  0.00    +0.000 OA
ATOM     20  H   UNL     1      48.077   6.297  11.870  0.00  0.00    +0.000 HD
BRANCH  18  21
ATOM     21  C   UNL     1      45.738   5.842  11.087  0.00  0.00    +0.000 A 
ATOM     22  C   UNL     1      45.972   5.707   9.726  0.00  0.00    +0.000 A 
ATOM     23  S   UNL     1      45.257   4.309   9.051  0.00  0.00    +0.000 S 
ATOM     24  C   UNL     1      44.596   3.855  10.553  0.00  0.00    +0.000 A 
ATOM     25  N   UNL     1      43.823   2.743  10.669  0.00  0.00    +0.000 NA
ATOM     26  C   UNL     1      43.366   2.538  11.863  0.00  0.00    +0.000 A 
ATOM     27  N   UNL     1      43.636   3.330  12.948  0.00  0.00    +0.000 N 
ATOM     28  C   UNL     1      44.495   4.407  12.901  0.00  0.00    +0.000 A 
ATOM     29  O   UNL     1      44.870   4.957  13.929  0.00  0.00    +0.000 OA
ATOM     30  C   UNL     1      44.953   4.731  11.561  0.00  0.00    +0.000 A 
ATOM     31  H   UNL     1      43.309   3.079  13.876  0.00  0.00    +0.000 HD
ENDBRANCH  18  21
ENDBRANCH   1  17
BRANCH   1  33
ATOM     32  C   UNL     1      48.575  10.415  11.309  0.00  0.00    +0.000 C 
ATOM     33  C   UNL     1      49.113   9.054  11.734  0.00  0.00    +0.000 C 
ENDBRANCH   1  33
TORSDOF 7
ENDMDL
MODEL 5
REMARK VINA RESULT:    -7.109      1.486      2.329
REMARK INTER + INTRA:         -11.011
REMARK INTER:                  -9.774
REMARK INTRA:                  -1.237
REMARK UNBOUND:                -0.993
REMARK  Name = 
REMARK  8 active torsions:
REMARK  status: ('A' for Active; 'I' for Inactive)
REMARK    1  A    between atoms: C_1  and  C_2
REMARK    2  A    between atoms: C_2  and  C_3
REMARK    3  A    between atoms: C_3  and  N_4
REMARK    4  A    between atoms: C_3  and  C_17
REMARK    5  A    between atoms: C_5  and  C_7
REMARK    6  A    between atoms: N_21  and  C_22
REMARK    7  A    between atoms: C_22  and  C_23
REMARK    8  A    between atoms: C_23  and  N_24
REMARK                            x       y       z     vdW  Elec       q    Type
REMARK                         _______ _______ _______ _____ _____    ______ ____
ROOT
ATOM      1  C   UNL     1      48.156   8.255  13.614  0.00  0.00    +0.000 C 
ENDROOT
BRANCH   1   2
ATOM      2  C   UNL     1      46.965   7.734  12.826  0.00  0.00    +0.000 A 
ATOM      3  C   UNL     1      45.916   8.561  12.421  0.00  0.00    +0.000 A 
ATOM      4  C   UNL     1      44.848   8.029  11.701  0.00  0.00    +0.000 A 
ATOM      5  C   UNL     1      44.830   6.674  11.385  0.00  0.00    +0.000 A 
ATOM      6  N   UNL     1      43.691   6.177  10.762  0.00  0.00    +0.000 N 
ATOM      7  N   UNL     1      45.841   5.863  11.752  0.00  0.00    +0.000 NA
ATOM      8  C   UNL     1      46.881   6.401  12.438  0.00  0.00    +0.000 A 
ATOM      9  H   UNL     1      43.415   6.694   9.936  0.00  0.00    +0.000 HD
BRANCH   6  10
ATOM     10  C   UNL     1      43.486   4.734  10.694  0.00  0.00    +0.000 C 
BRANCH  10  11
ATOM     11  C   UNL     1      44.017   4.246   9.326  0.00  0.00    +0.000 C 
BRANCH  11  12
ATOM     12  N   UNL     1      45.398   3.731   9.320  0.00  0.00    +0.000 NA
ATOM     13  C   UNL     1      46.141   4.271   8.166  0.00  0.00    +0.000 C 
ATOM     14  C   UNL     1      46.116   3.185   7.111  0.00  0.00    +0.000 C 
ATOM     15  C   UNL     1      46.200   1.922   7.936  0.00  0.00    +0.000 C 
ATOM     16  C   UNL     1      45.438   2.261   9.208  0.00  0.00    +0.000 C 
ENDBRANCH  11  12
ENDBRANCH  10  11
ENDBRANCH   6  10
ENDBRANCH   1   2
BRANCH   1  17
ATOM     17  N   UNL     1      48.241   7.538  14.890  0.00  0.00    +0.000 N 
ATOM     18  C   UNL     1      49.407   6.987  15.378  0.00  0.00    +0.000 C 
ATOM     19  O   UNL     1      50.476   7.053  14.787  0.00  0.00    +0.000 OA
ATOM     20  H   UNL     1      47.379   7.176  15.277  0.00  0.00    +0.000 HD
BRANCH  18  21
ATOM     21  C   UNL     1      49.280   6.372  16.702  0.00  0.00    +0.000 A 
ATOM     22  C   UNL     1      49.873   6.890  17.846  0.00  0.00    +0.000 A 
ATOM     23  S   UNL     1      49.660   5.903  19.225  0.00  0.00    +0.000 S 
ATOM     24  C   UNL     1      48.789   4.746  18.331  0.00  0.00    +0.000 A 
ATOM     25  N   UNL     1      48.334   3.606  18.917  0.00  0.00    +0.000 NA
ATOM     26  C   UNL     1      47.715   2.806  18.110  0.00  0.00    +0.000 A 
ATOM     27  N   UNL     1      47.490   3.058  16.782  0.00  0.00    +0.000 N 
ATOM     28  C   UNL     1      47.840   4.243  16.168  0.00  0.00    +0.000 A 
ATOM     29  O   UNL     1      47.437   4.511  15.043  0.00  0.00    +0.000 OA
ATOM     30  C   UNL     1      48.624   5.127  17.013  0.00  0.00    +0.000 A 
ATOM     31  H   UNL     1      46.933   2.427  16.213  0.00  0.00    +0.000 HD
ENDBRANCH  18  21
ENDBRANCH   1  17
BRANCH   1  33
ATOM     32  C   UNL     1      49.383  10.476  14.092  0.00  0.00    +0.000 C 
ATOM     33  C   UNL     1      48.052   9.785  13.820  0.00  0.00    +0.000 C 
ENDBRANCH   1  33
TORSDOF 7
ENDMDL
MODEL 6
REMARK VINA RESULT:    -6.930      4.179      8.750
REMARK INTER + INTRA:         -10.759
REMARK INTER:                 -10.175
REMARK INTRA:                  -0.584
REMARK UNBOUND:                -0.993
REMARK  Name = 
REMARK  8 active torsions:
REMARK  status: ('A' for Active; 'I' for Inactive)
REMARK    1  A    between atoms: C_1  and  C_2
REMARK    2  A    between atoms: C_2  and  C_3
REMARK    3  A    between atoms: C_3  and  N_4
REMARK    4  A    between atoms: C_3  and  C_17
REMARK    5  A    between atoms: C_5  and  C_7
REMARK    6  A    between atoms: N_21  and  C_22
REMARK    7  A    between atoms: C_22  and  C_23
REMARK    8  A    between atoms: C_23  and  N_24
REMARK                            x       y       z     vdW  Elec       q    Type
REMARK                         _______ _______ _______ _____ _____    ______ ____
ROOT
ATOM      1  C   UNL     1      48.261   5.334  17.556  0.00  0.00    +0.000 C 
ENDROOT
BRANCH   1   2
ATOM      2  C   UNL     1      49.181   4.129  17.449  0.00  0.00    +0.000 A 
ATOM      3  C   UNL     1      48.719   2.865  17.077  0.00  0.00    +0.000 A 
ATOM      4  C   UNL     1      49.608   1.796  16.996  0.00  0.00    +0.000 A 
ATOM      5  C   UNL     1      50.955   1.988  17.285  0.00  0.00    +0.000 A 
ATOM      6  N   UNL     1      51.775   0.865  17.295  0.00  0.00    +0.000 N 
ATOM      7  N   UNL     1      51.424   3.203  17.630  0.00  0.00    +0.000 NA
ATOM      8  C   UNL     1      50.547   4.238  17.687  0.00  0.00    +0.000 A 
ATOM      9  H   UNL     1      51.713   0.303  16.455  0.00  0.00    +0.000 HD
BRANCH   6  10
ATOM     10  C   UNL     1      53.104   0.957  17.890  0.00  0.00    +0.000 C 
BRANCH  10  11
ATOM     11  C   UNL     1      54.085   0.186  16.976  0.00  0.00    +0.000 C 
BRANCH  11  12
ATOM     12  N   UNL     1      55.152  -0.562  17.665  0.00  0.00    +0.000 NA
ATOM     13  C   UNL     1      54.983  -2.012  17.450  0.00  0.00    +0.000 C 
ATOM     14  C   UNL     1      54.305  -2.540  18.697  0.00  0.00    +0.000 C 
ATOM     15  C   UNL     1      54.911  -1.688  19.788  0.00  0.00    +0.000 C 
ATOM     16  C   UNL     1      55.130  -0.338  19.122  0.00  0.00    +0.000 C 
ENDBRANCH  11  12
ENDBRANCH  10  11
ENDBRANCH   6  10
ENDBRANCH   1   2
BRANCH   1  17
ATOM     17  N   UNL     1      47.623   5.569  16.256  0.00  0.00    +0.000 N 
ATOM     18  C   UNL     1      48.298   6.041  15.151  0.00  0.00    +0.000 C 
ATOM     19  O   UNL     1      49.492   6.303  15.158  0.00  0.00    +0.000 OA
ATOM     20  H   UNL     1      46.617   5.676  16.246  0.00  0.00    +0.000 HD
BRANCH  18  21
ATOM     21  C   UNL     1      47.480   6.140  13.938  0.00  0.00    +0.000 A 
ATOM     22  C   UNL     1      47.232   7.336  13.278  0.00  0.00    +0.000 A 
ATOM     23  S   UNL     1      46.149   7.174  11.966  0.00  0.00    +0.000 S 
ATOM     24  C   UNL     1      45.964   5.507  12.254  0.00  0.00    +0.000 A 
ATOM     25  N   UNL     1      45.126   4.754  11.492  0.00  0.00    +0.000 NA
ATOM     26  C   UNL     1      45.063   3.510  11.843  0.00  0.00    +0.000 A 
ATOM     27  N   UNL     1      45.782   2.952  12.869  0.00  0.00    +0.000 N 
ATOM     28  C   UNL     1      46.718   3.650  13.601  0.00  0.00    +0.000 A 
ATOM     29  O   UNL     1      47.482   3.069  14.362  0.00  0.00    +0.000 OA
ATOM     30  C   UNL     1      46.749   5.073  13.305  0.00  0.00    +0.000 A 
ATOM     31  H   UNL     1      45.747   1.954  13.053  0.00  0.00    +0.000 HD
ENDBRANCH  18  21
ENDBRANCH   1  17
BRANCH   1  33
ATOM     32  C   UNL     1      48.162   7.672  18.646  0.00  0.00    +0.000 C 
ATOM     33  C   UNL     1      49.038   6.578  18.047  0.00  0.00    +0.000 C 
ENDBRANCH   1  33
TORSDOF 7
ENDMDL
MODEL 7
REMARK VINA RESULT:    -6.862      2.309      4.215
REMARK INTER + INTRA:         -10.663
REMARK INTER:                  -9.409
REMARK INTRA:                  -1.254
REMARK UNBOUND:                -0.993
REMARK  Name = 
REMARK  8 active torsions:
REMARK  status: ('A' for Active; 'I' for Inactive)
REMARK    1  A    between atoms: C_1  and  C_2
REMARK    2  A    between atoms: C_2  and  C_3
REMARK    3  A    between atoms: C_3  and  N_4
REMARK    4  A    between atoms: C_3  and  C_17
REMARK    5  A    between atoms: C_5  and  C_7
REMARK    6  A    between atoms: N_21  and  C_22
REMARK    7  A    between atoms: C_22  and  C_23
REMARK    8  A    between atoms: C_23  and  N_24
REMARK                            x       y       z     vdW  Elec       q    Type
REMARK                         _______ _______ _______ _____ _____    ______ ____
ROOT
ATOM      1  C   UNL     1      47.266   4.802  15.592  0.00  0.00    +0.000 C 
ENDROOT
BRANCH   1   2
ATOM      2  C   UNL     1      46.588   4.665  14.239  0.00  0.00    +0.000 A 
ATOM      3  C   UNL     1      46.130   5.767  13.516  0.00  0.00    +0.000 A 
ATOM      4  C   UNL     1      45.515   5.582  12.280  0.00  0.00    +0.000 A 
ATOM      5  C   UNL     1      45.360   4.299  11.766  0.00  0.00    +0.000 A 
ATOM      6  N   UNL     1      44.643   4.165  10.582  0.00  0.00    +0.000 N 
ATOM      7  N   UNL     1      45.810   3.223  12.440  0.00  0.00    +0.000 NA
ATOM      8  C   UNL     1      46.422   3.423  13.635  0.00  0.00    +0.000 A 
ATOM      9  H   UNL     1      44.970   4.764   9.833  0.00  0.00    +0.000 HD
BRANCH   6  10
ATOM     10  C   UNL     1      44.185   2.843  10.171  0.00  0.00    +0.000 C 
BRANCH  10  11
ATOM     11  C   UNL     1      44.617   2.628   8.701  0.00  0.00    +0.000 C 
BRANCH  11  12
ATOM     12  N   UNL     1      46.070   2.641   8.451  0.00  0.00    +0.000 NA
ATOM     13  C   UNL     1      46.411   3.681   7.461  0.00  0.00    +0.000 C 
ATOM     14  C   UNL     1      46.555   2.960   6.137  0.00  0.00    +0.000 C 
ATOM     15  C   UNL     1      47.161   1.638   6.545  0.00  0.00    +0.000 C 
ATOM     16  C   UNL     1      46.548   1.356   7.908  0.00  0.00    +0.000 C 
ENDBRANCH  11  12
ENDBRANCH  10  11
ENDBRANCH   6  10
ENDBRANCH   1   2
BRANCH   1  17
ATOM     17  N   UNL     1      48.284   5.855  15.517  0.00  0.00    +0.000 N 
ATOM     18  C   UNL     1      48.711   6.581  16.608  0.00  0.00    +0.000 C 
ATOM     19  O   UNL     1      48.278   6.406  17.739  0.00  0.00    +0.000 OA
ATOM     20  H   UNL     1      48.459   6.266  14.610  0.00  0.00    +0.000 HD
BRANCH  18  21
ATOM     21  C   UNL     1      49.783   7.538  16.319  0.00  0.00    +0.000 A 
ATOM     22  C   UNL     1      51.084   7.392  16.779  0.00  0.00    +0.000 A 
ATOM     23  S   UNL     1      52.092   8.717  16.394  0.00  0.00    +0.000 S 
ATOM     24  C   UNL     1      50.815   9.534  15.620  0.00  0.00    +0.000 A 
ATOM     25  N   UNL     1      50.998  10.771  15.086  0.00  0.00    +0.000 NA
ATOM     26  C   UNL     1      49.933  11.282  14.557  0.00  0.00    +0.000 A 
ATOM     27  N   UNL     1      48.716  10.655  14.492  0.00  0.00    +0.000 N 
ATOM     28  C   UNL     1      48.509   9.363  14.926  0.00  0.00    +0.000 A 
ATOM     29  O   UNL     1      47.470   8.771  14.662  0.00  0.00    +0.000 OA
ATOM     30  C   UNL     1      49.651   8.789  15.617  0.00  0.00    +0.000 A 
ATOM     31  H   UNL     1      47.934  11.075  13.999  0.00  0.00    +0.000 HD
ENDBRANCH  18  21
ENDBRANCH   1  17
BRANCH   1  33
ATOM     32  C   UNL     1      47.413   2.989  17.425  0.00  0.00    +0.000 C 
ATOM     33  C   UNL     1      47.869   3.451  16.046  0.00  0.00    +0.000 C 
ENDBRANCH   1  33
TORSDOF 7
ENDMDL
MODEL 8
REMARK VINA RESULT:    -6.760      3.466      9.183
REMARK INTER + INTRA:         -10.520
REMARK INTER:                  -8.834
REMARK INTRA:                  -1.685
REMARK UNBOUND:                -0.993
REMARK  Name = 
REMARK  8 active torsions:
REMARK  status: ('A' for Active; 'I' for Inactive)
REMARK    1  A    between atoms: C_1  and  C_2
REMARK    2  A    between atoms: C_2  and  C_3
REMARK    3  A    between atoms: C_3  and  N_4
REMARK    4  A    between atoms: C_3  and  C_17
REMARK    5  A    between atoms: C_5  and  C_7
REMARK    6  A    between atoms: N_21  and  C_22
REMARK    7  A    between atoms: C_22  and  C_23
REMARK    8  A    between atoms: C_23  and  N_24
REMARK                            x       y       z     vdW  Elec       q    Type
REMARK                         _______ _______ _______ _____ _____    ______ ____
ROOT
ATOM      1  C   UNL     1      48.234   4.430  16.236  0.00  0.00    +0.000 C 
ENDROOT
BRANCH   1   2
ATOM      2  C   UNL     1      48.190   5.359  17.437  0.00  0.00    +0.000 A 
ATOM      3  C   UNL     1      47.108   5.392  18.319  0.00  0.00    +0.000 A 
ATOM      4  C   UNL     1      47.122   6.266  19.404  0.00  0.00    +0.000 A 
ATOM      5  C   UNL     1      48.214   7.102  19.609  0.00  0.00    +0.000 A 
ATOM      6  N   UNL     1      48.126   8.028  20.643  0.00  0.00    +0.000 N 
ATOM      7  N   UNL     1      49.275   7.073  18.779  0.00  0.00    +0.000 NA
ATOM      8  C   UNL     1      49.253   6.205  17.737  0.00  0.00    +0.000 A 
ATOM      9  H   UNL     1      47.870   7.626  21.535  0.00  0.00    +0.000 HD
BRANCH   6  10
ATOM     10  C   UNL     1      49.088   9.123  20.704  0.00  0.00    +0.000 C 
BRANCH  10  11
ATOM     11  C   UNL     1      48.315  10.445  20.485  0.00  0.00    +0.000 C 
BRANCH  11  12
ATOM     12  N   UNL     1      48.657  11.194  19.263  0.00  0.00    +0.000 NA
ATOM     13  C   UNL     1      47.566  11.091  18.275  0.00  0.00    +0.000 C 
ATOM     14  C   UNL     1      47.991  10.013  17.299  0.00  0.00    +0.000 C 
ATOM     15  C   UNL     1      49.486  10.214  17.218  0.00  0.00    +0.000 C 
ATOM     16  C   UNL     1      49.874  10.669  18.616  0.00  0.00    +0.000 C 
ENDBRANCH  11  12
ENDBRANCH  10  11
ENDBRANCH   6  10
ENDBRANCH   1   2
BRANCH   1  17
ATOM     17  N   UNL     1      47.239   4.868  15.251  0.00  0.00    +0.000 N 
ATOM     18  C   UNL     1      47.540   5.671  14.171  0.00  0.00    +0.000 C 
ATOM     19  O   UNL     1      48.667   6.086  13.939  0.00  0.00    +0.000 OA
ATOM     20  H   UNL     1      46.267   4.835  15.527  0.00  0.00    +0.000 HD
BRANCH  18  21
ATOM     21  C   UNL     1      46.408   5.934  13.277  0.00  0.00    +0.000 A 
ATOM     22  C   UNL     1      46.032   7.208  12.874  0.00  0.00    +0.000 A 
ATOM     23  S   UNL     1      44.606   7.227  11.932  0.00  0.00    +0.000 S 
ATOM     24  C   UNL     1      44.437   5.538  12.054  0.00  0.00    +0.000 A 
ATOM     25  N   UNL     1      43.380   4.898  11.488  0.00  0.00    +0.000 NA
ATOM     26  C   UNL     1      43.366   3.619  11.687  0.00  0.00    +0.000 A 
ATOM     27  N   UNL     1      44.327   2.926  12.376  0.00  0.00    +0.000 N 
ATOM     28  C   UNL     1      45.468   3.515  12.877  0.00  0.00    +0.000 A 
ATOM     29  O   UNL     1      46.394   2.834  13.299  0.00  0.00    +0.000 OA
ATOM     30  C   UNL     1      45.476   4.964  12.763  0.00  0.00    +0.000 A 
ATOM     31  H   UNL     1      44.303   1.913  12.437  0.00  0.00    +0.000 HD
ENDBRANCH  18  21
ENDBRANCH   1  17
BRANCH   1  33
ATOM     32  C   UNL     1      49.286   2.156  16.860  0.00  0.00    +0.000 C 
ATOM     33  C   UNL     1      48.006   2.961  16.667  0.00  0.00    +0.000 C 
ENDBRANCH   1  33
TORSDOF 7
ENDMDL
MODEL 9
REMARK VINA RESULT:    -6.180      3.402      4.891
REMARK INTER + INTRA:          -9.703
REMARK INTER:                  -8.578
REMARK INTRA:                  -1.124
REMARK UNBOUND:                -0.993
REMARK  Name = 
REMARK  8 active torsions:
REMARK  status: ('A' for Active; 'I' for Inactive)
REMARK    1  A    between atoms: C_1  and  C_2
REMARK    2  A    between atoms: C_2  and  C_3
REMARK    3  A    between atoms: C_3  and  N_4
REMARK    4  A    between atoms: C_3  and  C_17
REMARK    5  A    between atoms: C_5  and  C_7
REMARK    6  A    between atoms: N_21  and  C_22
REMARK    7  A    between atoms: C_22  and  C_23
REMARK    8  A    between atoms: C_23  and  N_24
REMARK                            x       y       z     vdW  Elec       q    Type
REMARK                         _______ _______ _______ _____ _____    ______ ____
ROOT
ATOM      1  C   UNL     1      48.662   5.215  17.002  0.00  0.00    +0.000 C 
ENDROOT
BRANCH   1   2
ATOM      2  C   UNL     1      47.929   5.273  15.672  0.00  0.00    +0.000 A 
ATOM      3  C   UNL     1      48.195   6.252  14.714  0.00  0.00    +0.000 A 
ATOM      4  C   UNL     1      47.491   6.258  13.511  0.00  0.00    +0.000 A 
ATOM      5  C   UNL     1      46.527   5.286  13.266  0.00  0.00    +0.000 A 
ATOM      6  N   UNL     1      45.781   5.404  12.098  0.00  0.00    +0.000 N 
ATOM      7  N   UNL     1      46.268   4.322  14.171  0.00  0.00    +0.000 NA
ATOM      8  C   UNL     1      46.974   4.322  15.330  0.00  0.00    +0.000 A 
ATOM      9  H   UNL     1      46.340   5.506  11.261  0.00  0.00    +0.000 HD
BRANCH   6  10
ATOM     10  C   UNL     1      44.565   4.613  11.945  0.00  0.00    +0.000 C 
BRANCH  10  11
ATOM     11  C   UNL     1      44.926   3.343  11.138  0.00  0.00    +0.000 C 
BRANCH  11  12
ATOM     12  N   UNL     1      44.425   3.299   9.753  0.00  0.00    +0.000 NA
ATOM     13  C   UNL     1      44.625   1.956   9.178  0.00  0.00    +0.000 C 
ATOM     14  C   UNL     1      45.882   2.047   8.338  0.00  0.00    +0.000 C 
ATOM     15  C   UNL     1      45.799   3.446   7.773  0.00  0.00    +0.000 C 
ATOM     16  C   UNL     1      45.134   4.252   8.879  0.00  0.00    +0.000 C 
ENDBRANCH  11  12
ENDBRANCH  10  11
ENDBRANCH   6  10
ENDBRANCH   1   2
BRANCH   1  17
ATOM     17  N   UNL     1      50.107   5.292  16.760  0.00  0.00    +0.000 N 
ATOM     18  C   UNL     1      50.898   6.332  17.201  0.00  0.00    +0.000 C 
ATOM     19  O   UNL     1      50.461   7.281  17.837  0.00  0.00    +0.000 OA
ATOM     20  H   UNL     1      50.480   4.735  16.004  0.00  0.00    +0.000 HD
BRANCH  18  21
ATOM     21  C   UNL     1      52.325   6.175  16.906  0.00  0.00    +0.000 A 
ATOM     22  C   UNL     1      53.000   6.941  15.965  0.00  0.00    +0.000 A 
ATOM     23  S   UNL     1      54.625   6.461  15.741  0.00  0.00    +0.000 S 
ATOM     24  C   UNL     1      54.468   5.203  16.877  0.00  0.00    +0.000 A 
ATOM     25  N   UNL     1      55.505   4.364  17.141  0.00  0.00    +0.000 NA
ATOM     26  C   UNL     1      55.233   3.439  18.003  0.00  0.00    +0.000 A 
ATOM     27  N   UNL     1      54.028   3.296  18.640  0.00  0.00    +0.000 N 
ATOM     28  C   UNL     1      52.982   4.181  18.483  0.00  0.00    +0.000 A 
ATOM     29  O   UNL     1      52.006   4.139  19.222  0.00  0.00    +0.000 OA
ATOM     30  C   UNL     1      53.211   5.178  17.450  0.00  0.00    +0.000 A 
ATOM     31  H   UNL     1      53.894   2.595  19.362  0.00  0.00    +0.000 HD
ENDBRANCH  18  21
ENDBRANCH   1  17
BRANCH   1  33
ATOM     32  C   UNL     1      49.251   2.777  17.616  0.00  0.00    +0.000 C 
ATOM     33  C   UNL     1      48.279   3.938  17.787  0.00  0.00    +0.000 C 
ENDBRANCH   1  33
TORSDOF 7
ENDMDL
