MODEL 1
REMARK VINA RESULT:    -8.869      0.000      0.000
REMARK INTER + INTRA:         -11.471
REMARK INTER:                 -11.462
REMARK INTRA:                  -0.009
REMARK UNBOUND:                -0.009
REMARK  Name = 
REMARK  5 active torsions:
REMARK  status: ('A' for Active; 'I' for Inactive)
REMARK    1  A    between atoms: C_2  and  C_3
REMARK    2  A    between atoms: C_6  and  C_7
REMARK    3  A    between atoms: C_11  and  C_12
REMARK    4  A    between atoms: C_12  and  N_13
REMARK    5  A    between atoms: C_17  and  C_18
REMARK                            x       y       z     vdW  Elec       q    Type
REMARK                         _______ _______ _______ _____ _____    ______ ____
ROOT
ATOM      1  C   UNL     1      44.138   5.108  11.395  0.00  0.00    +0.000 C 
ATOM      2  C   UNL     1      42.771   5.423  11.983  0.00  0.00    +0.000 C 
ATOM      3  C   UNL     1      43.234   4.011  11.965  0.00  0.00    +0.000 C 
ATOM      4  F   UNL     1      42.633   3.155  11.058  0.00  0.00    +0.000 F 
ENDROOT
BRANCH   1   5
ATOM      5  N   UNL     1      44.358   5.065   9.945  0.00  0.00    +0.000 N 
ATOM      6  C   UNL     1      45.070   4.118   9.219  0.00  0.00    +0.000 A 
ATOM      7  C   UNL     1      45.321   2.818   9.635  0.00  0.00    +0.000 A 
ATOM      8  C   UNL     1      46.025   1.946   8.798  0.00  0.00    +0.000 A 
ATOM      9  C   UNL     1      46.466   2.385   7.552  0.00  0.00    +0.000 A 
ATOM     10  C   UNL     1      46.154   3.688   7.207  0.00  0.00    +0.000 A 
ATOM     11  N   UNL     1      45.478   4.549   8.009  0.00  0.00    +0.000 NA
ATOM     12  H   UNL     1      44.446   5.954   9.454  0.00  0.00    +0.000 HD
BRANCH   9  13
ATOM     13  C   UNL     1      47.236   1.468   6.679  0.00  0.00    +0.000 C 
ATOM     14  N   UNL     1      48.230   1.979   5.891  0.00  0.00    +0.000 N 
ATOM     15  O   UNL     1      47.002   0.265   6.665  0.00  0.00    +0.000 OA
ATOM     16  H   UNL     1      48.519   2.944   5.847  0.00  0.00    +0.000 HD
ATOM     17  H   UNL     1      48.747   1.316   5.328  0.00  0.00    +0.000 HD
ENDBRANCH   9  13
ENDBRANCH   1   5
BRANCH   1  22
ATOM     18  C   UNL     1      47.427   6.739  12.603  0.00  0.00    +0.000 A 
ATOM     19  C   UNL     1      47.556   6.023  13.792  0.00  0.00    +0.000 A 
ATOM     20  N   UNL     1      46.723   5.039  14.204  0.00  0.00    +0.000 NA
ATOM     21  C   UNL     1      45.680   4.754  13.394  0.00  0.00    +0.000 A 
ATOM     22  C   UNL     1      45.380   5.425  12.212  0.00  0.00    +0.000 A 
ATOM     23  C   UNL     1      46.294   6.423  11.837  0.00  0.00    +0.000 A 
BRANCH  18  27
ATOM     24  C   UNL     1      50.299   9.665  11.256  0.00  0.00    +0.000 A 
ATOM     25  C   UNL     1      50.678   8.334  11.426  0.00  0.00    +0.000 A 
ATOM     26  C   UNL     1      49.744   7.388  11.864  0.00  0.00    +0.000 A 
ATOM     27  C   UNL     1      48.415   7.747  12.161  0.00  0.00    +0.000 A 
ATOM     28  C   UNL     1      48.063   9.101  11.988  0.00  0.00    +0.000 A 
ATOM     29  C   UNL     1      48.989  10.047  11.534  0.00  0.00    +0.000 A 
BRANCH  24  31
ATOM     30  N   UNL     1      52.021  11.415  10.425  0.00  0.00    +0.000 NA
ATOM     31  C   UNL     1      51.253  10.633  10.798  0.00  0.00    +0.000 C 
ENDBRANCH  24  31
ENDBRANCH  18  27
ENDBRANCH   1  22
TORSDOF 5
ENDMDL
MODEL 2
REMARK VINA RESULT:    -8.471      2.388      4.555
REMARK INTER + INTRA:         -10.956
REMARK INTER:                 -10.883
REMARK INTRA:                  -0.072
REMARK UNBOUND:                -0.009
REMARK  Name = 
REMARK  5 active torsions:
REMARK  status: ('A' for Active; 'I' for Inactive)
REMARK    1  A    between atoms: C_2  and  C_3
REMARK    2  A    between atoms: C_6  and  C_7
REMARK    3  A    between atoms: C_11  and  C_12
REMARK    4  A    between atoms: C_12  and  N_13
REMARK    5  A    between atoms: C_17  and  C_18
REMARK                            x       y       z     vdW  Elec       q    Type
REMARK                         _______ _______ _______ _____ _____    ______ ____
ROOT
ATOM      1  C   UNL     1      44.142   4.971  11.479  0.00  0.00    +0.000 C 
ATOM      2  C   UNL     1      42.840   5.177  12.236  0.00  0.00    +0.000 C 
ATOM      3  C   UNL     1      43.468   3.831  12.249  0.00  0.00    +0.000 C 
ATOM      4  F   UNL     1      42.861   2.837  11.500  0.00  0.00    +0.000 F 
ENDROOT
BRANCH   1   5
ATOM      5  N   UNL     1      44.166   4.829  10.019  0.00  0.00    +0.000 N 
ATOM      6  C   UNL     1      44.924   3.944   9.262  0.00  0.00    +0.000 A 
ATOM      7  C   UNL     1      45.449   2.746   9.724  0.00  0.00    +0.000 A 
ATOM      8  C   UNL     1      46.172   1.923   8.852  0.00  0.00    +0.000 A 
ATOM      9  C   UNL     1      46.356   2.310   7.527  0.00  0.00    +0.000 A 
ATOM     10  C   UNL     1      45.782   3.508   7.144  0.00  0.00    +0.000 A 
ATOM     11  N   UNL     1      45.083   4.321   7.977  0.00  0.00    +0.000 NA
ATOM     12  H   UNL     1      44.033   5.670   9.460  0.00  0.00    +0.000 HD
BRANCH   9  13
ATOM     13  C   UNL     1      47.146   1.450   6.613  0.00  0.00    +0.000 C 
ATOM     14  N   UNL     1      48.120   2.020   5.842  0.00  0.00    +0.000 N 
ATOM     15  O   UNL     1      46.946   0.242   6.553  0.00  0.00    +0.000 OA
ATOM     16  H   UNL     1      48.382   2.994   5.835  0.00  0.00    +0.000 HD
ATOM     17  H   UNL     1      48.652   1.395   5.249  0.00  0.00    +0.000 HD
ENDBRANCH   9  13
ENDBRANCH   1   5
BRANCH   1  22
ATOM     18  C   UNL     1      47.081   5.585  13.913  0.00  0.00    +0.000 A 
ATOM     19  C   UNL     1      47.839   6.402  13.076  0.00  0.00    +0.000 A 
ATOM     20  N   UNL     1      47.467   6.811  11.840  0.00  0.00    +0.000 NA
ATOM     21  C   UNL     1      46.272   6.369  11.393  0.00  0.00    +0.000 A 
ATOM     22  C   UNL     1      45.434   5.496  12.083  0.00  0.00    +0.000 A 
ATOM     23  C   UNL     1      45.874   5.124  13.363  0.00  0.00    +0.000 A 
BRANCH  18  27
ATOM     24  C   UNL     1      48.258   4.609  17.949  0.00  0.00    +0.000 A 
ATOM     25  C   UNL     1      48.811   5.712  17.302  0.00  0.00    +0.000 A 
ATOM     26  C   UNL     1      48.428   6.025  15.992  0.00  0.00    +0.000 A 
ATOM     27  C   UNL     1      47.498   5.237  15.289  0.00  0.00    +0.000 A 
ATOM     28  C   UNL     1      46.961   4.123  15.965  0.00  0.00    +0.000 A 
ATOM     29  C   UNL     1      47.328   3.816  17.280  0.00  0.00    +0.000 A 
BRANCH  24  31
ATOM     30  N   UNL     1      48.956   4.042  20.379  0.00  0.00    +0.000 NA
ATOM     31  C   UNL     1      48.643   4.293  19.293  0.00  0.00    +0.000 C 
ENDBRANCH  24  31
ENDBRANCH  18  27
ENDBRANCH   1  22
TORSDOF 5
ENDMDL
MODEL 3
REMARK VINA RESULT:    -7.769      2.325      2.950
REMARK INTER + INTRA:         -10.049
REMARK INTER:                  -9.290
REMARK INTRA:                  -0.759
REMARK UNBOUND:                -0.009
REMARK  Name = 
REMARK  5 active torsions:
REMARK  status: ('A' for Active; 'I' for Inactive)
REMARK    1  A    between atoms: C_2  and  C_3
REMARK    2  A    between atoms: C_6  and  C_7
REMARK    3  A    between atoms: C_11  and  C_12
REMARK    4  A    between atoms: C_12  and  N_13
REMARK    5  A    between atoms: C_17  and  C_18
REMARK                            x       y       z     vdW  Elec       q    Type
REMARK                         _______ _______ _______ _____ _____    ______ ____
ROOT
ATOM      1  C   UNL     1      44.002   5.306  11.863  0.00  0.00    +0.000 C 
ATOM      2  C   UNL     1      42.508   5.509  11.667  0.00  0.00    +0.000 C 
ATOM      3  C   UNL     1      43.006   5.124  13.012  0.00  0.00    +0.000 C 
ATOM      4  F   UNL     1      42.762   3.828  13.436  0.00  0.00    +0.000 F 
ENDROOT
BRANCH   1   5
ATOM      5  N   UNL     1      44.678   4.087  11.404  0.00  0.00    +0.000 N 
ATOM      6  C   UNL     1      45.190   3.823  10.139  0.00  0.00    +0.000 A 
ATOM      7  C   UNL     1      45.571   4.786   9.216  0.00  0.00    +0.000 A 
ATOM      8  C   UNL     1      46.105   4.393   7.984  0.00  0.00    +0.000 A 
ATOM      9  C   UNL     1      46.255   3.039   7.693  0.00  0.00    +0.000 A 
ATOM     10  C   UNL     1      45.871   2.147   8.677  0.00  0.00    +0.000 A 
ATOM     11  N   UNL     1      45.346   2.510   9.875  0.00  0.00    +0.000 NA
ATOM     12  H   UNL     1      44.371   3.199  11.799  0.00  0.00    +0.000 HD
BRANCH   9  13
ATOM     13  C   UNL     1      46.795   2.625   6.376  0.00  0.00    +0.000 C 
ATOM     14  N   UNL     1      46.931   3.562   5.390  0.00  0.00    +0.000 N 
ATOM     15  O   UNL     1      47.131   1.464   6.169  0.00  0.00    +0.000 OA
ATOM     16  H   UNL     1      46.711   4.543   5.465  0.00  0.00    +0.000 HD
ATOM     17  H   UNL     1      47.325   3.243   4.514  0.00  0.00    +0.000 HD
ENDBRANCH   9  13
ENDBRANCH   1   5
BRANCH   1  22
ATOM     18  C   UNL     1      46.995   7.610  12.683  0.00  0.00    +0.000 A 
ATOM     19  C   UNL     1      46.535   8.745  12.016  0.00  0.00    +0.000 A 
ATOM     20  N   UNL     1      45.342   8.849  11.385  0.00  0.00    +0.000 NA
ATOM     21  C   UNL     1      44.555   7.751  11.399  0.00  0.00    +0.000 A 
ATOM     22  C   UNL     1      44.903   6.526  11.963  0.00  0.00    +0.000 A 
ATOM     23  C   UNL     1      46.147   6.493  12.613  0.00  0.00    +0.000 A 
BRANCH  18  27
ATOM     24  C   UNL     1      50.734   7.463  14.832  0.00  0.00    +0.000 A 
ATOM     25  C   UNL     1      49.592   6.870  15.367  0.00  0.00    +0.000 A 
ATOM     26  C   UNL     1      48.380   6.921  14.667  0.00  0.00    +0.000 A 
ATOM     27  C   UNL     1      48.272   7.579  13.427  0.00  0.00    +0.000 A 
ATOM     28  C   UNL     1      49.441   8.176  12.915  0.00  0.00    +0.000 A 
ATOM     29  C   UNL     1      50.659   8.113  13.602  0.00  0.00    +0.000 A 
BRANCH  24  31
ATOM     30  N   UNL     1      52.980   7.352  16.120  0.00  0.00    +0.000 NA
ATOM     31  C   UNL     1      51.977   7.403  15.543  0.00  0.00    +0.000 C 
ENDBRANCH  24  31
ENDBRANCH  18  27
ENDBRANCH   1  22
TORSDOF 5
ENDMDL
MODEL 4
REMARK VINA RESULT:    -7.213      4.429      6.718
REMARK INTER + INTRA:          -9.330
REMARK INTER:                  -8.530
REMARK INTRA:                  -0.800
REMARK UNBOUND:                -0.009
REMARK  Name = 
REMARK  5 active torsions:
REMARK  status: ('A' for Active; 'I' for Inactive)
REMARK    1  A    between atoms: C_2  and  C_3
REMARK    2  A    between atoms: C_6  and  C_7
REMARK    3  A    between atoms: C_11  and  C_12
REMARK    4  A    between atoms: C_12  and  N_13
REMARK    5  A    between atoms: C_17  and  C_18
REMARK                            x       y       z     vdW  Elec       q    Type
REMARK                         _______ _______ _______ _____ _____    ______ ____
ROOT
ATOM      1  C   UNL     1      48.452   8.139  12.801  0.00  0.00    +0.000 C 
ATOM      2  C   UNL     1      49.607   7.854  11.855  0.00  0.00    +0.000 C 
ATOM      3  C   UNL     1      49.208   9.265  12.090  0.00  0.00    +0.000 C 
ATOM      4  F   UNL     1      48.545   9.919  11.064  0.00  0.00    +0.000 F 
ENDROOT
BRANCH   1   5
ATOM      5  N   UNL     1      47.057   7.945  12.389  0.00  0.00    +0.000 N 
ATOM      6  C   UNL     1      46.377   6.744  12.226  0.00  0.00    +0.000 A 
ATOM      7  C   UNL     1      46.715   5.546  12.837  0.00  0.00    +0.000 A 
ATOM      8  C   UNL     1      45.930   4.409  12.617  0.00  0.00    +0.000 A 
ATOM      9  C   UNL     1      44.812   4.488  11.791  0.00  0.00    +0.000 A 
ATOM     10  C   UNL     1      44.534   5.725  11.239  0.00  0.00    +0.000 A 
ATOM     11  N   UNL     1      45.288   6.836  11.436  0.00  0.00    +0.000 NA
ATOM     12  H   UNL     1      46.664   8.610  11.725  0.00  0.00    +0.000 HD
BRANCH   9  13
ATOM     13  C   UNL     1      43.998   3.275  11.537  0.00  0.00    +0.000 C 
ATOM     14  N   UNL     1      43.689   2.452  12.583  0.00  0.00    +0.000 N 
ATOM     15  O   UNL     1      43.591   3.013  10.411  0.00  0.00    +0.000 OA
ATOM     16  H   UNL     1      43.950   2.589  13.548  0.00  0.00    +0.000 HD
ATOM     17  H   UNL     1      43.112   1.647  12.372  0.00  0.00    +0.000 HD
ENDBRANCH   9  13
ENDBRANCH   1   5
BRANCH   1  22
ATOM     18  C   UNL     1      49.741   6.958  16.248  0.00  0.00    +0.000 A 
ATOM     19  C   UNL     1      49.157   7.967  17.013  0.00  0.00    +0.000 A 
ATOM     20  N   UNL     1      48.353   8.944  16.532  0.00  0.00    +0.000 NA
ATOM     21  C   UNL     1      48.122   8.934  15.201  0.00  0.00    +0.000 A 
ATOM     22  C   UNL     1      48.687   8.035  14.300  0.00  0.00    +0.000 A 
ATOM     23  C   UNL     1      49.499   7.041  14.868  0.00  0.00    +0.000 A 
BRANCH  18  27
ATOM     24  C   UNL     1      52.086   3.742  17.917  0.00  0.00    +0.000 A 
ATOM     25  C   UNL     1      50.700   3.630  17.830  0.00  0.00    +0.000 A 
ATOM     26  C   UNL     1      49.942   4.676  17.289  0.00  0.00    +0.000 A 
ATOM     27  C   UNL     1      50.544   5.865  16.839  0.00  0.00    +0.000 A 
ATOM     28  C   UNL     1      51.947   5.954  16.947  0.00  0.00    +0.000 A 
ATOM     29  C   UNL     1      52.710   4.905  17.471  0.00  0.00    +0.000 A 
BRANCH  24  31
ATOM     30  N   UNL     1      53.488   1.798  18.901  0.00  0.00    +0.000 NA
ATOM     31  C   UNL     1      52.863   2.668  18.462  0.00  0.00    +0.000 C 
ENDBRANCH  24  31
ENDBRANCH  18  27
ENDBRANCH   1  22
TORSDOF 5
ENDMDL
MODEL 5
REMARK VINA RESULT:    -6.931      6.015      9.220
REMARK INTER + INTRA:          -8.966
REMARK INTER:                  -8.200
REMARK INTRA:                  -0.766
REMARK UNBOUND:                -0.009
REMARK  Name = 
REMARK  5 active torsions:
REMARK  status: ('A' for Active; 'I' for Inactive)
REMARK    1  A    between atoms: C_2  and  C_3
REMARK    2  A    between atoms: C_6  and  C_7
REMARK    3  A    between atoms: C_11  and  C_12
REMARK    4  A    between atoms: C_12  and  N_13
REMARK    5  A    between atoms: C_17  and  C_18
REMARK                            x       y       z     vdW  Elec       q    Type
REMARK                         _______ _______ _______ _____ _____    ______ ____
ROOT
ATOM      1  C   UNL     1      49.527   5.515  18.110  0.00  0.00    +0.000 C 
ATOM      2  C   UNL     1      48.410   4.876  18.919  0.00  0.00    +0.000 C 
ATOM      3  C   UNL     1      48.901   6.221  19.315  0.00  0.00    +0.000 C 
ATOM      4  F   UNL     1      49.668   6.306  20.465  0.00  0.00    +0.000 F 
ENDROOT
BRANCH   1   5
ATOM      5  N   UNL     1      50.925   5.097  18.270  0.00  0.00    +0.000 N 
ATOM      6  C   UNL     1      51.451   3.816  18.139  0.00  0.00    +0.000 A 
ATOM      7  C   UNL     1      50.875   2.788  17.408  0.00  0.00    +0.000 A 
ATOM      8  C   UNL     1      51.519   1.549  17.327  0.00  0.00    +0.000 A 
ATOM      9  C   UNL     1      52.737   1.357  17.976  0.00  0.00    +0.000 A 
ATOM     10  C   UNL     1      53.251   2.441  18.664  0.00  0.00    +0.000 A 
ATOM     11  N   UNL     1      52.637   3.647  18.758  0.00  0.00    +0.000 NA
ATOM     12  H   UNL     1      51.489   5.588  18.961  0.00  0.00    +0.000 HD
BRANCH   9  13
ATOM     13  C   UNL     1      53.404   0.035  17.911  0.00  0.00    +0.000 C 
ATOM     14  N   UNL     1      53.936  -0.383  16.724  0.00  0.00    +0.000 N 
ATOM     15  O   UNL     1      53.494  -0.676  18.906  0.00  0.00    +0.000 OA
ATOM     16  H   UNL     1      53.940   0.133  15.857  0.00  0.00    +0.000 HD
ATOM     17  H   UNL     1      54.404  -1.281  16.728  0.00  0.00    +0.000 HD
ENDBRANCH   9  13
ENDBRANCH   1   5
BRANCH   1  22
ATOM     18  C   UNL     1      47.978   6.082  14.615  0.00  0.00    +0.000 A 
ATOM     19  C   UNL     1      48.572   7.316  14.353  0.00  0.00    +0.000 A 
ATOM     20  N   UNL     1      49.456   7.943  15.164  0.00  0.00    +0.000 NA
ATOM     21  C   UNL     1      49.762   7.317  16.321  0.00  0.00    +0.000 A 
ATOM     22  C   UNL     1      49.201   6.117  16.753  0.00  0.00    +0.000 A 
ATOM     23  C   UNL     1      48.304   5.514  15.857  0.00  0.00    +0.000 A 
BRANCH  18  27
ATOM     24  C   UNL     1      45.411   4.092  11.773  0.00  0.00    +0.000 A 
ATOM     25  C   UNL     1      45.662   5.458  11.658  0.00  0.00    +0.000 A 
ATOM     26  C   UNL     1      46.493   6.100  12.583  0.00  0.00    +0.000 A 
ATOM     27  C   UNL     1      47.082   5.402  13.654  0.00  0.00    +0.000 A 
ATOM     28  C   UNL     1      46.805   4.023  13.749  0.00  0.00    +0.000 A 
ATOM     29  C   UNL     1      45.987   3.374  12.818  0.00  0.00    +0.000 A 
BRANCH  24  31
ATOM     30  N   UNL     1      43.886   2.894  10.054  0.00  0.00    +0.000 NA
ATOM     31  C   UNL     1      44.567   3.431  10.821  0.00  0.00    +0.000 C 
ENDBRANCH  24  31
ENDBRANCH  18  27
ENDBRANCH   1  22
TORSDOF 5
ENDMDL
MODEL 6
REMARK VINA RESULT:    -6.584      5.871      8.362
REMARK INTER + INTRA:          -8.516
REMARK INTER:                  -8.083
REMARK INTRA:                  -0.434
REMARK UNBOUND:                -0.009
REMARK  Name = 
REMARK  5 active torsions:
REMARK  status: ('A' for Active; 'I' for Inactive)
REMARK    1  A    between atoms: C_2  and  C_3
REMARK    2  A    between atoms: C_6  and  C_7
REMARK    3  A    between atoms: C_11  and  C_12
REMARK    4  A    between atoms: C_12  and  N_13
REMARK    5  A    between atoms: C_17  and  C_18
REMARK                            x       y       z     vdW  Elec       q    Type
REMARK                         _______ _______ _______ _____ _____    ______ ____
ROOT
ATOM      1  C   UNL     1      48.705   4.795  17.385  0.00  0.00    +0.000 C 
ATOM      2  C   UNL     1      47.942   4.490  18.664  0.00  0.00    +0.000 C 
ATOM      3  C   UNL     1      48.141   5.908  18.271  0.00  0.00    +0.000 C 
ATOM      4  F   UNL     1      49.050   6.652  19.004  0.00  0.00    +0.000 F 
ENDROOT
BRANCH   1   5
ATOM      5  N   UNL     1      50.168   4.705  17.324  0.00  0.00    +0.000 N 
ATOM      6  C   UNL     1      50.960   3.576  17.496  0.00  0.00    +0.000 A 
ATOM      7  C   UNL     1      50.536   2.268  17.307  0.00  0.00    +0.000 A 
ATOM      8  C   UNL     1      51.439   1.214  17.481  0.00  0.00    +0.000 A 
ATOM      9  C   UNL     1      52.759   1.484  17.837  0.00  0.00    +0.000 A 
ATOM     10  C   UNL     1      53.103   2.815  17.983  0.00  0.00    +0.000 A 
ATOM     11  N   UNL     1      52.239   3.849  17.825  0.00  0.00    +0.000 NA
ATOM     12  H   UNL     1      50.705   5.505  17.655  0.00  0.00    +0.000 HD
BRANCH   9  13
ATOM     13  C   UNL     1      53.707   0.364  18.048  0.00  0.00    +0.000 C 
ATOM     14  N   UNL     1      54.011  -0.455  16.997  0.00  0.00    +0.000 N 
ATOM     15  O   UNL     1      54.226   0.174  19.142  0.00  0.00    +0.000 OA
ATOM     16  H   UNL     1      53.662  -0.371  16.054  0.00  0.00    +0.000 HD
ATOM     17  H   UNL     1      54.680  -1.194  17.177  0.00  0.00    +0.000 HD
ENDBRANCH   9  13
ENDBRANCH   1   5
BRANCH   1  22
ATOM     18  C   UNL     1      46.922   5.507  14.030  0.00  0.00    +0.000 A 
ATOM     19  C   UNL     1      46.842   4.188  13.585  0.00  0.00    +0.000 A 
ATOM     20  N   UNL     1      47.253   3.104  14.284  0.00  0.00    +0.000 NA
ATOM     21  C   UNL     1      47.796   3.339  15.498  0.00  0.00    +0.000 A 
ATOM     22  C   UNL     1      48.006   4.601  16.048  0.00  0.00    +0.000 A 
ATOM     23  C   UNL     1      47.543   5.679  15.277  0.00  0.00    +0.000 A 
BRANCH  18  27
ATOM     24  C   UNL     1      45.298   8.843  11.826  0.00  0.00    +0.000 A 
ATOM     25  C   UNL     1      44.761   7.567  11.667  0.00  0.00    +0.000 A 
ATOM     26  C   UNL     1      45.292   6.487  12.382  0.00  0.00    +0.000 A 
ATOM     27  C   UNL     1      46.380   6.648  13.260  0.00  0.00    +0.000 A 
ATOM     28  C   UNL     1      46.908   7.948  13.395  0.00  0.00    +0.000 A 
ATOM     29  C   UNL     1      46.370   9.034  12.695  0.00  0.00    +0.000 A 
BRANCH  24  31
ATOM     30  N   UNL     1      44.304  10.845  10.514  0.00  0.00    +0.000 NA
ATOM     31  C   UNL     1      44.749   9.952  11.101  0.00  0.00    +0.000 C 
ENDBRANCH  24  31
ENDBRANCH  18  27
ENDBRANCH   1  22
TORSDOF 5
ENDMDL
MODEL 7
REMARK VINA RESULT:    -6.442      4.865      9.149
REMARK INTER + INTRA:          -8.333
REMARK INTER:                  -7.706
REMARK INTRA:                  -0.627
REMARK UNBOUND:                -0.009
REMARK  Name = 
REMARK  5 active torsions:
REMARK  status: ('A' for Active; 'I' for Inactive)
REMARK    1  A    between atoms: C_2  and  C_3
REMARK    2  A    between atoms: C_6  and  C_7
REMARK    3  A    between atoms: C_11  and  C_12
REMARK    4  A    between atoms: C_12  and  N_13
REMARK    5  A    between atoms: C_17  and  C_18
REMARK                            x       y       z     vdW  Elec       q    Type
REMARK                         _______ _______ _______ _____ _____    ______ ____
ROOT
ATOM      1  C   UNL     1      50.568   8.338  14.187  0.00  0.00    +0.000 C 
ATOM      2  C   UNL     1      51.294   9.592  14.645  0.00  0.00    +0.000 C 
ATOM      3  C   UNL     1      51.808   8.862  13.458  0.00  0.00    +0.000 C 
ATOM      4  F   UNL     1      52.981   8.141  13.611  0.00  0.00    +0.000 F 
ENDROOT
BRANCH   1   5
ATOM      5  N   UNL     1      50.730   7.058  14.886  0.00  0.00    +0.000 N 
ATOM      6  C   UNL     1      50.213   6.693  16.124  0.00  0.00    +0.000 A 
ATOM      7  C   UNL     1      49.100   7.264  16.724  0.00  0.00    +0.000 A 
ATOM      8  C   UNL     1      48.657   6.786  17.962  0.00  0.00    +0.000 A 
ATOM      9  C   UNL     1      49.333   5.738  18.582  0.00  0.00    +0.000 A 
ATOM     10  C   UNL     1      50.418   5.212  17.906  0.00  0.00    +0.000 A 
ATOM     11  N   UNL     1      50.865   5.667  16.708  0.00  0.00    +0.000 NA
ATOM     12  H   UNL     1      51.612   6.563  14.768  0.00  0.00    +0.000 HD
BRANCH   9  13
ATOM     13  C   UNL     1      48.878   5.252  19.907  0.00  0.00    +0.000 C 
ATOM     14  N   UNL     1      49.690   4.417  20.622  0.00  0.00    +0.000 N 
ATOM     15  O   UNL     1      47.797   5.599  20.369  0.00  0.00    +0.000 OA
ATOM     16  H   UNL     1      50.605   4.094  20.346  0.00  0.00    +0.000 HD
ATOM     17  H   UNL     1      49.353   4.127  21.532  0.00  0.00    +0.000 HD
ENDBRANCH   9  13
ENDBRANCH   1   5
BRANCH   1  22
ATOM     18  C   UNL     1      47.157   7.536  12.554  0.00  0.00    +0.000 A 
ATOM     19  C   UNL     1      46.839   8.834  12.156  0.00  0.00    +0.000 A 
ATOM     20  N   UNL     1      47.639   9.915  12.313  0.00  0.00    +0.000 NA
ATOM     21  C   UNL     1      48.826   9.704  12.921  0.00  0.00    +0.000 A 
ATOM     22  C   UNL     1      49.254   8.482  13.435  0.00  0.00    +0.000 A 
ATOM     23  C   UNL     1      48.383   7.401  13.224  0.00  0.00    +0.000 A 
BRANCH  18  27
ATOM     24  C   UNL     1      44.559   4.174  11.796  0.00  0.00    +0.000 A 
ATOM     25  C   UNL     1      45.354   4.204  12.940  0.00  0.00    +0.000 A 
ATOM     26  C   UNL     1      46.197   5.296  13.182  0.00  0.00    +0.000 A 
ATOM     27  C   UNL     1      46.281   6.375  12.282  0.00  0.00    +0.000 A 
ATOM     28  C   UNL     1      45.471   6.314  11.131  0.00  0.00    +0.000 A 
ATOM     29  C   UNL     1      44.615   5.234  10.893  0.00  0.00    +0.000 A 
BRANCH  24  31
ATOM     30  N   UNL     1      42.988   2.160  11.356  0.00  0.00    +0.000 NA
ATOM     31  C   UNL     1      43.688   3.062  11.552  0.00  0.00    +0.000 C 
ENDBRANCH  24  31
ENDBRANCH  18  27
ENDBRANCH   1  22
TORSDOF 5
ENDMDL
MODEL 8
REMARK VINA RESULT:    -6.384      3.825      6.589
REMARK INTER + INTRA:          -8.259
REMARK INTER:                  -7.556
REMARK INTRA:                  -0.703
REMARK UNBOUND:                -0.009
REMARK  Name = 
REMARK  5 active torsions:
REMARK  status: ('A' for Active; 'I' for Inactive)
REMARK    1  A    between atoms: C_2  and  C_3
REMARK    2  A    between atoms: C_6  and  C_7
REMARK    3  A    between atoms: C_11  and  C_12
REMARK    4  A    between atoms: C_12  and  N_13
REMARK    5  A    between atoms: C_17  and  C_18
REMARK                            x       y       z     vdW  Elec       q    Type
REMARK                         _______ _______ _______ _____ _____    ______ ____
ROOT
ATOM      1  C   UNL     1      49.197   7.837  13.460  0.00  0.00    +0.000 C 
ATOM      2  C   UNL     1      48.589   8.832  14.436  0.00  0.00    +0.000 C 
ATOM      3  C   UNL     1      49.718   7.981  14.893  0.00  0.00    +0.000 C 
ATOM      4  F   UNL     1      49.426   6.955  15.776  0.00  0.00    +0.000 F 
ENDROOT
BRANCH   1   5
ATOM      5  N   UNL     1      48.533   6.567  13.146  0.00  0.00    +0.000 N 
ATOM      6  C   UNL     1      47.218   6.372  12.740  0.00  0.00    +0.000 A 
ATOM      7  C   UNL     1      46.423   7.328  12.125  0.00  0.00    +0.000 A 
ATOM      8  C   UNL     1      45.120   6.999  11.733  0.00  0.00    +0.000 A 
ATOM      9  C   UNL     1      44.632   5.714  11.959  0.00  0.00    +0.000 A 
ATOM     10  C   UNL     1      45.498   4.817  12.558  0.00  0.00    +0.000 A 
ATOM     11  N   UNL     1      46.761   5.120  12.950  0.00  0.00    +0.000 NA
ATOM     12  H   UNL     1      48.813   5.743  13.676  0.00  0.00    +0.000 HD
BRANCH   9  13
ATOM     13  C   UNL     1      43.242   5.376  11.569  0.00  0.00    +0.000 C 
ATOM     14  N   UNL     1      42.254   6.300  11.767  0.00  0.00    +0.000 N 
ATOM     15  O   UNL     1      42.975   4.293  11.062  0.00  0.00    +0.000 OA
ATOM     16  H   UNL     1      42.371   7.225  12.149  0.00  0.00    +0.000 HD
ATOM     17  H   UNL     1      41.324   6.039  11.465  0.00  0.00    +0.000 HD
ENDBRANCH   9  13
ENDBRANCH   1   5
BRANCH   1  22
ATOM     18  C   UNL     1      51.667   7.958  10.490  0.00  0.00    +0.000 A 
ATOM     19  C   UNL     1      51.708   9.344  10.346  0.00  0.00    +0.000 A 
ATOM     20  N   UNL     1      51.066  10.229  11.144  0.00  0.00    +0.000 NA
ATOM     21  C   UNL     1      50.318   9.710  12.142  0.00  0.00    +0.000 A 
ATOM     22  C   UNL     1      50.125   8.350  12.370  0.00  0.00    +0.000 A 
ATOM     23  C   UNL     1      50.831   7.489  11.515  0.00  0.00    +0.000 A 
BRANCH  18  27
ATOM     24  C   UNL     1      54.008   5.323   7.999  0.00  0.00    +0.000 A 
ATOM     25  C   UNL     1      53.046   6.157   7.431  0.00  0.00    +0.000 A 
ATOM     26  C   UNL     1      52.288   7.009   8.243  0.00  0.00    +0.000 A 
ATOM     27  C   UNL     1      52.456   7.039   9.640  0.00  0.00    +0.000 A 
ATOM     28  C   UNL     1      53.430   6.180  10.187  0.00  0.00    +0.000 A 
ATOM     29  C   UNL     1      54.202   5.338   9.378  0.00  0.00    +0.000 A 
BRANCH  24  31
ATOM     30  N   UNL     1      55.427   3.757   6.499  0.00  0.00    +0.000 NA
ATOM     31  C   UNL     1      54.792   4.457   7.168  0.00  0.00    +0.000 C 
ENDBRANCH  24  31
ENDBRANCH  18  27
ENDBRANCH   1  22
TORSDOF 5
ENDMDL
MODEL 9
REMARK VINA RESULT:    -6.219      5.632      9.295
REMARK INTER + INTRA:          -8.045
REMARK INTER:                  -7.274
REMARK INTRA:                  -0.772
REMARK UNBOUND:                -0.009
REMARK  Name = 
REMARK  5 active torsions:
REMARK  status: ('A' for Active; 'I' for Inactive)
REMARK    1  A    between atoms: C_2  and  C_3
REMARK    2  A    between atoms: C_6  and  C_7
REMARK    3  A    between atoms: C_11  and  C_12
REMARK    4  A    between atoms: C_12  and  N_13
REMARK    5  A    between atoms: C_17  and  C_18
REMARK                            x       y       z     vdW  Elec       q    Type
REMARK                         _______ _______ _______ _____ _____    ______ ____
ROOT
ATOM      1  C   UNL     1      50.146   8.252  16.015  0.00  0.00    +0.000 C 
ATOM      2  C   UNL     1      49.085   8.443  17.087  0.00  0.00    +0.000 C 
ATOM      3  C   UNL     1      49.837   9.630  16.606  0.00  0.00    +0.000 C 
ATOM      4  F   UNL     1      50.781  10.177  17.460  0.00  0.00    +0.000 F 
ENDROOT
BRANCH   1   5
ATOM      5  N   UNL     1      51.468   7.702  16.334  0.00  0.00    +0.000 N 
ATOM      6  C   UNL     1      51.760   6.487  16.944  0.00  0.00    +0.000 A 
ATOM      7  C   UNL     1      50.923   5.381  16.959  0.00  0.00    +0.000 A 
ATOM      8  C   UNL     1      51.346   4.201  17.581  0.00  0.00    +0.000 A 
ATOM      9  C   UNL     1      52.604   4.142  18.176  0.00  0.00    +0.000 A 
ATOM     10  C   UNL     1      53.382   5.283  18.096  0.00  0.00    +0.000 A 
ATOM     11  N   UNL     1      52.986   6.437  17.503  0.00  0.00    +0.000 NA
ATOM     12  H   UNL     1      52.203   8.358  16.595  0.00  0.00    +0.000 HD
BRANCH   9  13
ATOM     13  C   UNL     1      53.037   2.900  18.859  0.00  0.00    +0.000 C 
ATOM     14  N   UNL     1      52.536   1.701  18.436  0.00  0.00    +0.000 N 
ATOM     15  O   UNL     1      53.844   2.935  19.781  0.00  0.00    +0.000 OA
ATOM     16  H   UNL     1      51.891   1.559  17.674  0.00  0.00    +0.000 HD
ATOM     17  H   UNL     1      52.875   0.875  18.913  0.00  0.00    +0.000 HD
ENDBRANCH   9  13
ENDBRANCH   1   5
BRANCH   1  22
ATOM     18  C   UNL     1      48.218   7.012  12.903  0.00  0.00    +0.000 A 
ATOM     19  C   UNL     1      48.889   7.786  11.956  0.00  0.00    +0.000 A 
ATOM     20  N   UNL     1      49.926   8.615  12.221  0.00  0.00    +0.000 NA
ATOM     21  C   UNL     1      50.318   8.698  13.511  0.00  0.00    +0.000 A 
ATOM     22  C   UNL     1      49.706   8.042  14.575  0.00  0.00    +0.000 A 
ATOM     23  C   UNL     1      48.646   7.188  14.228  0.00  0.00    +0.000 A 
BRANCH  18  27
ATOM     24  C   UNL     1      45.048   4.262  11.899  0.00  0.00    +0.000 A 
ATOM     25  C   UNL     1      45.821   4.058  13.040  0.00  0.00    +0.000 A 
ATOM     26  C   UNL     1      46.850   4.951  13.362  0.00  0.00    +0.000 A 
ATOM     27  C   UNL     1      47.145   6.059  12.546  0.00  0.00    +0.000 A 
ATOM     28  C   UNL     1      46.352   6.237  11.394  0.00  0.00    +0.000 A 
ATOM     29  C   UNL     1      45.312   5.356  11.077  0.00  0.00    +0.000 A 
BRANCH  24  31
ATOM     30  N   UNL     1      43.134   2.616  11.312  0.00  0.00    +0.000 NA
ATOM     31  C   UNL     1      43.988   3.353  11.574  0.00  0.00    +0.000 C 
ENDBRANCH  24  31
ENDBRANCH  18  27
ENDBRANCH   1  22
TORSDOF 5
ENDMDL
