MODEL 1
REMARK VINA RESULT:    -8.187      0.000      0.000
REMARK INTER + INTRA:         -11.195
REMARK INTER:                 -10.341
REMARK INTRA:                  -0.855
REMARK UNBOUND:                -0.855
REMARK  Name = 
REMARK  5 active torsions:
REMARK  status: ('A' for Active; 'I' for Inactive)
REMARK    1  A    between atoms: N_1  and  C_2
REMARK    2  A    between atoms: C_2  and  C_3
REMARK    3  A    between atoms: C_2  and  C_16
REMARK    4  A    between atoms: C_6  and  C_7
REMARK    5  A    between atoms: C_7  and  C_8
REMARK                            x       y       z     vdW  Elec       q    Type
REMARK                         _______ _______ _______ _____ _____    ______ ____
ROOT
ATOM      1  C   UNL     1      45.422   6.241  12.820  0.00  0.00    +0.000 C 
ENDROOT
BRANCH   1   2
ATOM      2  C   UNL     1      46.158   7.558  12.684  0.00  0.00    +0.000 A 
ATOM      3  C   UNL     1      45.580   8.794  12.421  0.00  0.00    +0.000 A 
ATOM      4  S   UNL     1      46.679  10.099  12.504  0.00  0.00    +0.000 S 
ATOM      5  C   UNL     1      47.970   9.064  12.896  0.00  0.00    +0.000 A 
ATOM      6  N   UNL     1      49.214   9.551  13.151  0.00  0.00    +0.000 NA
ATOM      7  C   UNL     1      50.090   8.646  13.435  0.00  0.00    +0.000 A 
ATOM      8  N   UNL     1      49.839   7.296  13.471  0.00  0.00    +0.000 N 
ATOM      9  C   UNL     1      48.598   6.755  13.219  0.00  0.00    +0.000 A 
ATOM     10  O   UNL     1      48.402   5.543  13.251  0.00  0.00    +0.000 OA
ATOM     11  C   UNL     1      47.575   7.739  12.921  0.00  0.00    +0.000 A 
ATOM     12  H   UNL     1      50.577   6.641  13.680  0.00  0.00    +0.000 HD
ENDBRANCH   1   2
BRANCH   1  13
ATOM     13  C   UNL     1      45.364   5.503  11.502  0.00  0.00    +0.000 A 
ATOM     14  C   UNL     1      46.032   5.872  10.330  0.00  0.00    +0.000 A 
ATOM     15  C   UNL     1      45.797   5.181   9.138  0.00  0.00    +0.000 A 
ATOM     16  C   UNL     1      44.870   4.144   9.124  0.00  0.00    +0.000 A 
ATOM     17  N   UNL     1      44.205   3.762  10.239  0.00  0.00    +0.000 NA
ATOM     18  C   UNL     1      44.472   4.434  11.383  0.00  0.00    +0.000 A 
BRANCH  16  19
ATOM     19  C   UNL     1      44.612   3.356   7.857  0.00  0.00    +0.000 C 
BRANCH  19  20
ATOM     20  C   UNL     1      45.858   2.696   7.319  0.00  0.00    +0.000 A 
ATOM     21  C   UNL     1      46.483   3.201   6.173  0.00  0.00    +0.000 A 
ATOM     22  C   UNL     1      47.583   2.532   5.663  0.00  0.00    +0.000 A 
ATOM     23  N   UNL     1      48.106   1.418   6.218  0.00  0.00    +0.000 NA
ATOM     24  C   UNL     1      47.500   0.956   7.332  0.00  0.00    +0.000 A 
ATOM     25  C   UNL     1      46.392   1.551   7.915  0.00  0.00    +0.000 A 
ENDBRANCH  19  20
ENDBRANCH  16  19
ENDBRANCH   1  13
BRANCH   1  26
ATOM     26  N   UNL     1      44.071   6.485  13.333  0.00  0.00    +0.000 NA
ATOM     27  H   UNL     1      43.644   5.589  13.556  0.00  0.00    +0.000 HD
ATOM     28  H   UNL     1      43.505   6.871  12.579  0.00  0.00    +0.000 HD
ENDBRANCH   1  26
TORSDOF 5
ENDMDL
MODEL 2
REMARK VINA RESULT:    -8.044      1.797      2.135
REMARK INTER + INTRA:         -11.015
REMARK INTER:                 -10.618
REMARK INTRA:                  -0.397
REMARK UNBOUND:                -0.855
REMARK  Name = 
REMARK  5 active torsions:
REMARK  status: ('A' for Active; 'I' for Inactive)
REMARK    1  A    between atoms: N_1  and  C_2
REMARK    2  A    between atoms: C_2  and  C_3
REMARK    3  A    between atoms: C_2  and  C_16
REMARK    4  A    between atoms: C_6  and  C_7
REMARK    5  A    between atoms: C_7  and  C_8
REMARK                            x       y       z     vdW  Elec       q    Type
REMARK                         _______ _______ _______ _____ _____    ______ ____
ROOT
ATOM      1  C   UNL     1      45.580   5.819  13.133  0.00  0.00    +0.000 C 
ENDROOT
BRANCH   1   2
ATOM      2  C   UNL     1      46.974   6.327  13.441  0.00  0.00    +0.000 A 
ATOM      3  C   UNL     1      47.652   7.326  12.753  0.00  0.00    +0.000 A 
ATOM      4  S   UNL     1      49.136   7.771  13.471  0.00  0.00    +0.000 S 
ATOM      5  C   UNL     1      48.931   6.647  14.731  0.00  0.00    +0.000 A 
ATOM      6  N   UNL     1      49.838   6.543  15.739  0.00  0.00    +0.000 NA
ATOM      7  C   UNL     1      49.548   5.648  16.623  0.00  0.00    +0.000 A 
ATOM      8  N   UNL     1      48.439   4.836  16.583  0.00  0.00    +0.000 N 
ATOM      9  C   UNL     1      47.495   4.903  15.584  0.00  0.00    +0.000 A 
ATOM     10  O   UNL     1      46.516   4.162  15.568  0.00  0.00    +0.000 OA
ATOM     11  C   UNL     1      47.768   5.915  14.581  0.00  0.00    +0.000 A 
ATOM     12  H   UNL     1      48.284   4.142  17.298  0.00  0.00    +0.000 HD
ENDBRANCH   1   2
BRANCH   1  13
ATOM     13  C   UNL     1      45.499   5.245  11.737  0.00  0.00    +0.000 A 
ATOM     14  C   UNL     1      45.949   5.870  10.569  0.00  0.00    +0.000 A 
ATOM     15  C   UNL     1      45.702   5.292   9.321  0.00  0.00    +0.000 A 
ATOM     16  C   UNL     1      44.979   4.106   9.251  0.00  0.00    +0.000 A 
ATOM     17  N   UNL     1      44.528   3.475  10.361  0.00  0.00    +0.000 NA
ATOM     18  C   UNL     1      44.804   4.046  11.556  0.00  0.00    +0.000 A 
BRANCH  16  19
ATOM     19  C   UNL     1      44.718   3.438   7.917  0.00  0.00    +0.000 C 
BRANCH  19  20
ATOM     20  C   UNL     1      45.945   2.764   7.355  0.00  0.00    +0.000 A 
ATOM     21  C   UNL     1      46.590   3.297   6.233  0.00  0.00    +0.000 A 
ATOM     22  C   UNL     1      47.671   2.616   5.698  0.00  0.00    +0.000 A 
ATOM     23  N   UNL     1      48.157   1.464   6.207  0.00  0.00    +0.000 NA
ATOM     24  C   UNL     1      47.533   0.974   7.298  0.00  0.00    +0.000 A 
ATOM     25  C   UNL     1      46.441   1.579   7.904  0.00  0.00    +0.000 A 
ENDBRANCH  19  20
ENDBRANCH  16  19
ENDBRANCH   1  13
BRANCH   1  26
ATOM     26  N   UNL     1      44.615   6.910  13.296  0.00  0.00    +0.000 NA
ATOM     27  H   UNL     1      45.127   7.787  13.359  0.00  0.00    +0.000 HD
ATOM     28  H   UNL     1      44.157   6.802  14.200  0.00  0.00    +0.000 HD
ENDBRANCH   1  26
TORSDOF 5
ENDMDL
MODEL 3
REMARK VINA RESULT:    -7.276      4.731      6.558
REMARK INTER + INTRA:         -10.044
REMARK INTER:                  -9.454
REMARK INTRA:                  -0.591
REMARK UNBOUND:                -0.855
REMARK  Name = 
REMARK  5 active torsions:
REMARK  status: ('A' for Active; 'I' for Inactive)
REMARK    1  A    between atoms: N_1  and  C_2
REMARK    2  A    between atoms: C_2  and  C_3
REMARK    3  A    between atoms: C_2  and  C_16
REMARK    4  A    between atoms: C_6  and  C_7
REMARK    5  A    between atoms: C_7  and  C_8
REMARK                            x       y       z     vdW  Elec       q    Type
REMARK                         _______ _______ _______ _____ _____    ______ ____
ROOT
ATOM      1  C   UNL     1      47.766   4.220  17.184  0.00  0.00    +0.000 C 
ENDROOT
BRANCH   1   2
ATOM      2  C   UNL     1      49.172   4.331  17.739  0.00  0.00    +0.000 A 
ATOM      3  C   UNL     1      49.652   5.350  18.553  0.00  0.00    +0.000 A 
ATOM      4  S   UNL     1      51.233   5.076  19.137  0.00  0.00    +0.000 S 
ATOM      5  C   UNL     1      51.338   3.585  18.327  0.00  0.00    +0.000 A 
ATOM      6  N   UNL     1      52.437   2.792  18.445  0.00  0.00    +0.000 NA
ATOM      7  C   UNL     1      52.372   1.692  17.773  0.00  0.00    +0.000 A 
ATOM      8  N   UNL     1      51.313   1.318  16.981  0.00  0.00    +0.000 N 
ATOM      9  C   UNL     1      50.181   2.086  16.828  0.00  0.00    +0.000 A 
ATOM     10  O   UNL     1      49.251   1.732  16.109  0.00  0.00    +0.000 OA
ATOM     11  C   UNL     1      50.199   3.322  17.588  0.00  0.00    +0.000 A 
ATOM     12  H   UNL     1      51.336   0.451  16.465  0.00  0.00    +0.000 HD
ENDBRANCH   1   2
BRANCH   1  13
ATOM     13  C   UNL     1      47.670   4.821  15.800  0.00  0.00    +0.000 A 
ATOM     14  C   UNL     1      48.293   5.999  15.377  0.00  0.00    +0.000 A 
ATOM     15  C   UNL     1      48.025   6.521  14.108  0.00  0.00    +0.000 A 
ATOM     16  C   UNL     1      47.110   5.873  13.285  0.00  0.00    +0.000 A 
ATOM     17  N   UNL     1      46.488   4.731  13.664  0.00  0.00    +0.000 NA
ATOM     18  C   UNL     1      46.787   4.237  14.887  0.00  0.00    +0.000 A 
BRANCH  16  19
ATOM     19  C   UNL     1      46.817   6.395  11.894  0.00  0.00    +0.000 C 
BRANCH  19  20
ATOM     20  C   UNL     1      45.477   5.937  11.372  0.00  0.00    +0.000 A 
ATOM     21  C   UNL     1      44.297   6.497  11.875  0.00  0.00    +0.000 A 
ATOM     22  C   UNL     1      43.082   6.005  11.428  0.00  0.00    +0.000 A 
ATOM     23  N   UNL     1      42.963   5.018  10.514  0.00  0.00    +0.000 NA
ATOM     24  C   UNL     1      44.112   4.503  10.028  0.00  0.00    +0.000 A 
ATOM     25  C   UNL     1      45.375   4.923  10.416  0.00  0.00    +0.000 A 
ENDBRANCH  19  20
ENDBRANCH  16  19
ENDBRANCH   1  13
BRANCH   1  26
ATOM     26  N   UNL     1      46.827   4.879  18.096  0.00  0.00    +0.000 NA
ATOM     27  H   UNL     1      47.336   5.575  18.636  0.00  0.00    +0.000 HD
ATOM     28  H   UNL     1      46.505   4.195  18.779  0.00  0.00    +0.000 HD
ENDBRANCH   1  26
TORSDOF 5
ENDMDL
MODEL 4
REMARK VINA RESULT:    -7.192      1.598      2.318
REMARK INTER + INTRA:          -9.939
REMARK INTER:                 -10.002
REMARK INTRA:                   0.063
REMARK UNBOUND:                -0.855
REMARK  Name = 
REMARK  5 active torsions:
REMARK  status: ('A' for Active; 'I' for Inactive)
REMARK    1  A    between atoms: N_1  and  C_2
REMARK    2  A    between atoms: C_2  and  C_3
REMARK    3  A    between atoms: C_2  and  C_16
REMARK    4  A    between atoms: C_6  and  C_7
REMARK    5  A    between atoms: C_7  and  C_8
REMARK                            x       y       z     vdW  Elec       q    Type
REMARK                         _______ _______ _______ _____ _____    ______ ____
ROOT
ATOM      1  C   UNL     1      44.969   5.382  12.954  0.00  0.00    +0.000 C 
ENDROOT
BRANCH   1   2
ATOM      2  C   UNL     1      46.173   6.223  13.325  0.00  0.00    +0.000 A 
ATOM      3  C   UNL     1      47.291   5.786  14.025  0.00  0.00    +0.000 A 
ATOM      4  S   UNL     1      48.539   6.948  14.122  0.00  0.00    +0.000 S 
ATOM      5  C   UNL     1      47.635   8.080  13.230  0.00  0.00    +0.000 A 
ATOM      6  N   UNL     1      48.149   9.297  12.906  0.00  0.00    +0.000 NA
ATOM      7  C   UNL     1      47.347  10.047  12.227  0.00  0.00    +0.000 A 
ATOM      8  N   UNL     1      46.072   9.697  11.855  0.00  0.00    +0.000 N 
ATOM      9  C   UNL     1      45.508   8.478  12.160  0.00  0.00    +0.000 A 
ATOM     10  O   UNL     1      44.363   8.192  11.821  0.00  0.00    +0.000 OA
ATOM     11  C   UNL     1      46.384   7.592  12.901  0.00  0.00    +0.000 A 
ATOM     12  H   UNL     1      45.490  10.341  11.341  0.00  0.00    +0.000 HD
ENDBRANCH   1   2
BRANCH   1  13
ATOM     13  C   UNL     1      45.041   4.919  11.516  0.00  0.00    +0.000 A 
ATOM     14  C   UNL     1      45.817   5.501  10.509  0.00  0.00    +0.000 A 
ATOM     15  C   UNL     1      45.701   5.062   9.188  0.00  0.00    +0.000 A 
ATOM     16  C   UNL     1      44.784   4.063   8.880  0.00  0.00    +0.000 A 
ATOM     17  N   UNL     1      44.016   3.479   9.830  0.00  0.00    +0.000 NA
ATOM     18  C   UNL     1      44.169   3.908  11.104  0.00  0.00    +0.000 A 
BRANCH  16  19
ATOM     19  C   UNL     1      44.652   3.543   7.464  0.00  0.00    +0.000 C 
BRANCH  19  20
ATOM     20  C   UNL     1      45.875   2.787   7.007  0.00  0.00    +0.000 A 
ATOM     21  C   UNL     1      46.299   1.649   7.702  0.00  0.00    +0.000 A 
ATOM     22  C   UNL     1      47.465   1.018   7.301  0.00  0.00    +0.000 A 
ATOM     23  N   UNL     1      48.219   1.428   6.259  0.00  0.00    +0.000 NA
ATOM     24  C   UNL     1      47.785   2.517   5.590  0.00  0.00    +0.000 A 
ATOM     25  C   UNL     1      46.635   3.220   5.917  0.00  0.00    +0.000 A 
ENDBRANCH  19  20
ENDBRANCH  16  19
ENDBRANCH   1  13
BRANCH   1  26
ATOM     26  N   UNL     1      43.744   6.153  13.185  0.00  0.00    +0.000 NA
ATOM     27  H   UNL     1      42.967   5.663  12.747  0.00  0.00    +0.000 HD
ATOM     28  H   UNL     1      43.819   7.036  12.684  0.00  0.00    +0.000 HD
ENDBRANCH   1  26
TORSDOF 5
ENDMDL
MODEL 5
REMARK VINA RESULT:    -7.021      2.857      7.577
REMARK INTER + INTRA:          -9.723
REMARK INTER:                  -8.786
REMARK INTRA:                  -0.937
REMARK UNBOUND:                -0.855
REMARK  Name = 
REMARK  5 active torsions:
REMARK  status: ('A' for Active; 'I' for Inactive)
REMARK    1  A    between atoms: N_1  and  C_2
REMARK    2  A    between atoms: C_2  and  C_3
REMARK    3  A    between atoms: C_2  and  C_16
REMARK    4  A    between atoms: C_6  and  C_7
REMARK    5  A    between atoms: C_7  and  C_8
REMARK                            x       y       z     vdW  Elec       q    Type
REMARK                         _______ _______ _______ _____ _____    ______ ____
ROOT
ATOM      1  C   UNL     1      44.906   6.882  11.029  0.00  0.00    +0.000 C 
ENDROOT
BRANCH   1   2
ATOM      2  C   UNL     1      44.554   5.418  11.199  0.00  0.00    +0.000 A 
ATOM      3  C   UNL     1      43.822   4.868  12.244  0.00  0.00    +0.000 A 
ATOM      4  S   UNL     1      43.463   3.212  12.036  0.00  0.00    +0.000 S 
ATOM      5  C   UNL     1      44.271   3.164  10.541  0.00  0.00    +0.000 A 
ATOM      6  N   UNL     1      44.303   2.029   9.792  0.00  0.00    +0.000 NA
ATOM      7  C   UNL     1      44.952   2.145   8.682  0.00  0.00    +0.000 A 
ATOM      8  N   UNL     1      45.586   3.289   8.259  0.00  0.00    +0.000 N 
ATOM      9  C   UNL     1      45.583   4.460   8.983  0.00  0.00    +0.000 A 
ATOM     10  O   UNL     1      46.163   5.467   8.586  0.00  0.00    +0.000 OA
ATOM     11  C   UNL     1      44.841   4.383  10.227  0.00  0.00    +0.000 A 
ATOM     12  H   UNL     1      46.094   3.304   7.388  0.00  0.00    +0.000 HD
ENDBRANCH   1   2
BRANCH   1  13
ATOM     13  C   UNL     1      46.111   7.260  11.860  0.00  0.00    +0.000 A 
ATOM     14  C   UNL     1      47.378   6.674  11.773  0.00  0.00    +0.000 A 
ATOM     15  C   UNL     1      48.379   7.023  12.685  0.00  0.00    +0.000 A 
ATOM     16  C   UNL     1      48.092   7.934  13.695  0.00  0.00    +0.000 A 
ATOM     17  N   UNL     1      46.876   8.519  13.809  0.00  0.00    +0.000 NA
ATOM     18  C   UNL     1      45.935   8.180  12.897  0.00  0.00    +0.000 A 
BRANCH  16  19
ATOM     19  C   UNL     1      49.160   8.356  14.682  0.00  0.00    +0.000 C 
BRANCH  19  20
ATOM     20  C   UNL     1      49.582   7.232  15.597  0.00  0.00    +0.000 A 
ATOM     21  C   UNL     1      50.933   7.050  15.912  0.00  0.00    +0.000 A 
ATOM     22  C   UNL     1      51.296   5.968  16.696  0.00  0.00    +0.000 A 
ATOM     23  N   UNL     1      50.415   5.074  17.194  0.00  0.00    +0.000 NA
ATOM     24  C   UNL     1      49.115   5.276  16.893  0.00  0.00    +0.000 A 
ATOM     25  C   UNL     1      48.653   6.325  16.113  0.00  0.00    +0.000 A 
ENDBRANCH  19  20
ENDBRANCH  16  19
ENDBRANCH   1  13
BRANCH   1  26
ATOM     26  N   UNL     1      43.751   7.708  11.394  0.00  0.00    +0.000 NA
ATOM     27  H   UNL     1      42.911   7.269  11.024  0.00  0.00    +0.000 HD
ATOM     28  H   UNL     1      43.824   8.599  10.906  0.00  0.00    +0.000 HD
ENDBRANCH   1  26
TORSDOF 5
ENDMDL
MODEL 6
REMARK VINA RESULT:    -6.421      2.140      3.248
REMARK INTER + INTRA:          -8.965
REMARK INTER:                  -8.089
REMARK INTRA:                  -0.876
REMARK UNBOUND:                -0.855
REMARK  Name = 
REMARK  5 active torsions:
REMARK  status: ('A' for Active; 'I' for Inactive)
REMARK    1  A    between atoms: N_1  and  C_2
REMARK    2  A    between atoms: C_2  and  C_3
REMARK    3  A    between atoms: C_2  and  C_16
REMARK    4  A    between atoms: C_6  and  C_7
REMARK    5  A    between atoms: C_7  and  C_8
REMARK                            x       y       z     vdW  Elec       q    Type
REMARK                         _______ _______ _______ _____ _____    ______ ____
ROOT
ATOM      1  C   UNL     1      47.622   7.616  13.922  0.00  0.00    +0.000 C 
ENDROOT
BRANCH   1   2
ATOM      2  C   UNL     1      49.003   7.824  13.332  0.00  0.00    +0.000 A 
ATOM      3  C   UNL     1      49.312   7.889  11.979  0.00  0.00    +0.000 A 
ATOM      4  S   UNL     1      50.939   8.304  11.665  0.00  0.00    +0.000 S 
ATOM      5  C   UNL     1      51.293   8.415  13.325  0.00  0.00    +0.000 A 
ATOM      6  N   UNL     1      52.526   8.787  13.761  0.00  0.00    +0.000 NA
ATOM      7  C   UNL     1      52.644   8.828  15.046  0.00  0.00    +0.000 A 
ATOM      8  N   UNL     1      51.645   8.515  15.936  0.00  0.00    +0.000 N 
ATOM      9  C   UNL     1      50.382   8.132  15.543  0.00  0.00    +0.000 A 
ATOM     10  O   UNL     1      49.509   7.852  16.359  0.00  0.00    +0.000 OA
ATOM     11  C   UNL     1      50.196   8.099  14.105  0.00  0.00    +0.000 A 
ATOM     12  H   UNL     1      51.812   8.548  16.930  0.00  0.00    +0.000 HD
ENDBRANCH   1   2
BRANCH   1  13
ATOM     13  C   UNL     1      46.689   6.966  12.926  0.00  0.00    +0.000 A 
ATOM     14  C   UNL     1      45.739   7.630  12.144  0.00  0.00    +0.000 A 
ATOM     15  C   UNL     1      44.846   6.903  11.353  0.00  0.00    +0.000 A 
ATOM     16  C   UNL     1      44.892   5.513  11.375  0.00  0.00    +0.000 A 
ATOM     17  N   UNL     1      45.798   4.839  12.121  0.00  0.00    +0.000 NA
ATOM     18  C   UNL     1      46.666   5.571  12.858  0.00  0.00    +0.000 A 
BRANCH  16  19
ATOM     19  C   UNL     1      43.958   4.694  10.508  0.00  0.00    +0.000 C 
BRANCH  19  20
ATOM     20  C   UNL     1      44.696   3.840   9.506  0.00  0.00    +0.000 A 
ATOM     21  C   UNL     1      44.647   2.445   9.601  0.00  0.00    +0.000 A 
ATOM     22  C   UNL     1      45.391   1.689   8.710  0.00  0.00    +0.000 A 
ATOM     23  N   UNL     1      46.158   2.221   7.735  0.00  0.00    +0.000 NA
ATOM     24  C   UNL     1      46.179   3.567   7.648  0.00  0.00    +0.000 A 
ATOM     25  C   UNL     1      45.473   4.409   8.495  0.00  0.00    +0.000 A 
ENDBRANCH  19  20
ENDBRANCH  16  19
ENDBRANCH   1  13
BRANCH   1  26
ATOM     26  N   UNL     1      47.082   8.904  14.368  0.00  0.00    +0.000 NA
ATOM     27  H   UNL     1      46.222   9.087  13.856  0.00  0.00    +0.000 HD
ATOM     28  H   UNL     1      47.725   9.640  14.082  0.00  0.00    +0.000 HD
ENDBRANCH   1  26
TORSDOF 5
ENDMDL
MODEL 7
REMARK VINA RESULT:    -6.118      2.730      7.257
REMARK INTER + INTRA:          -8.582
REMARK INTER:                  -7.893
REMARK INTRA:                  -0.689
REMARK UNBOUND:                -0.855
REMARK  Name = 
REMARK  5 active torsions:
REMARK  status: ('A' for Active; 'I' for Inactive)
REMARK    1  A    between atoms: N_1  and  C_2
REMARK    2  A    between atoms: C_2  and  C_3
REMARK    3  A    between atoms: C_2  and  C_16
REMARK    4  A    between atoms: C_6  and  C_7
REMARK    5  A    between atoms: C_7  and  C_8
REMARK                            x       y       z     vdW  Elec       q    Type
REMARK                         _______ _______ _______ _____ _____    ______ ____
ROOT
ATOM      1  C   UNL     1      45.136   7.062  11.290  0.00  0.00    +0.000 C 
ENDROOT
BRANCH   1   2
ATOM      2  C   UNL     1      44.663   5.641  11.524  0.00  0.00    +0.000 A 
ATOM      3  C   UNL     1      43.977   5.181  12.641  0.00  0.00    +0.000 A 
ATOM      4  S   UNL     1      43.445   3.564  12.503  0.00  0.00    +0.000 S 
ATOM      5  C   UNL     1      44.110   3.416  10.945  0.00  0.00    +0.000 A 
ATOM      6  N   UNL     1      43.968   2.272  10.222  0.00  0.00    +0.000 NA
ATOM      7  C   UNL     1      44.525   2.308   9.058  0.00  0.00    +0.000 A 
ATOM      8  N   UNL     1      45.225   3.379   8.556  0.00  0.00    +0.000 N 
ATOM      9  C   UNL     1      45.397   4.556   9.250  0.00  0.00    +0.000 A 
ATOM     10  O   UNL     1      46.033   5.496   8.781  0.00  0.00    +0.000 OA
ATOM     11  C   UNL     1      44.764   4.570  10.555  0.00  0.00    +0.000 A 
ATOM     12  H   UNL     1      45.654   3.332   7.644  0.00  0.00    +0.000 HD
ENDBRANCH   1   2
BRANCH   1  13
ATOM     13  C   UNL     1      46.505   7.293  11.890  0.00  0.00    +0.000 A 
ATOM     14  C   UNL     1      47.377   6.298  12.342  0.00  0.00    +0.000 A 
ATOM     15  C   UNL     1      48.563   6.645  12.994  0.00  0.00    +0.000 A 
ATOM     16  C   UNL     1      48.851   7.987  13.217  0.00  0.00    +0.000 A 
ATOM     17  N   UNL     1      48.028   8.975  12.795  0.00  0.00    +0.000 NA
ATOM     18  C   UNL     1      46.900   8.610  12.143  0.00  0.00    +0.000 A 
BRANCH  16  19
ATOM     19  C   UNL     1      50.140   8.398  13.896  0.00  0.00    +0.000 C 
BRANCH  19  20
ATOM     20  C   UNL     1      51.312   8.433  12.946  0.00  0.00    +0.000 A 
ATOM     21  C   UNL     1      52.617   8.531  13.441  0.00  0.00    +0.000 A 
ATOM     22  C   UNL     1      53.666   8.633  12.542  0.00  0.00    +0.000 A 
ATOM     23  N   UNL     1      53.507   8.629  11.202  0.00  0.00    +0.000 NA
ATOM     24  C   UNL     1      52.243   8.517  10.743  0.00  0.00    +0.000 A 
ATOM     25  C   UNL     1      51.128   8.414  11.561  0.00  0.00    +0.000 A 
ENDBRANCH  19  20
ENDBRANCH  16  19
ENDBRANCH   1  13
BRANCH   1  26
ATOM     26  N   UNL     1      44.163   8.001  11.855  0.00  0.00    +0.000 NA
ATOM     27  H   UNL     1      44.407   8.173  12.827  0.00  0.00    +0.000 HD
ATOM     28  H   UNL     1      43.253   7.543  11.885  0.00  0.00    +0.000 HD
ENDBRANCH   1  26
TORSDOF 5
ENDMDL
MODEL 8
REMARK VINA RESULT:    -5.743      4.226      9.443
REMARK INTER + INTRA:          -8.109
REMARK INTER:                  -7.344
REMARK INTRA:                  -0.764
REMARK UNBOUND:                -0.855
REMARK  Name = 
REMARK  5 active torsions:
REMARK  status: ('A' for Active; 'I' for Inactive)
REMARK    1  A    between atoms: N_1  and  C_2
REMARK    2  A    between atoms: C_2  and  C_3
REMARK    3  A    between atoms: C_2  and  C_16
REMARK    4  A    between atoms: C_6  and  C_7
REMARK    5  A    between atoms: C_7  and  C_8
REMARK                            x       y       z     vdW  Elec       q    Type
REMARK                         _______ _______ _______ _____ _____    ______ ____
ROOT
ATOM      1  C   UNL     1      48.287   5.905  13.573  0.00  0.00    +0.000 C 
ENDROOT
BRANCH   1   2
ATOM      2  C   UNL     1      46.905   6.106  12.985  0.00  0.00    +0.000 A 
ATOM      3  C   UNL     1      46.385   7.303  12.508  0.00  0.00    +0.000 A 
ATOM      4  S   UNL     1      44.861   7.139  11.755  0.00  0.00    +0.000 S 
ATOM      5  C   UNL     1      44.837   5.462  12.036  0.00  0.00    +0.000 A 
ATOM      6  N   UNL     1      43.811   4.687  11.592  0.00  0.00    +0.000 NA
ATOM      7  C   UNL     1      43.932   3.434  11.879  0.00  0.00    +0.000 A 
ATOM      8  N   UNL     1      44.978   2.887  12.583  0.00  0.00    +0.000 N 
ATOM      9  C   UNL     1      46.036   3.631  13.053  0.00  0.00    +0.000 A 
ATOM     10  O   UNL     1      46.956   3.118  13.686  0.00  0.00    +0.000 OA
ATOM     11  C   UNL     1      45.956   5.042  12.731  0.00  0.00    +0.000 A 
ATOM     12  H   UNL     1      44.998   1.900  12.790  0.00  0.00    +0.000 HD
ENDBRANCH   1   2
BRANCH   1  13
ATOM     13  C   UNL     1      48.350   6.377  15.008  0.00  0.00    +0.000 A 
ATOM     14  C   UNL     1      48.738   7.653  15.431  0.00  0.00    +0.000 A 
ATOM     15  C   UNL     1      48.878   7.929  16.794  0.00  0.00    +0.000 A 
ATOM     16  C   UNL     1      48.657   6.917  17.721  0.00  0.00    +0.000 A 
ATOM     17  N   UNL     1      48.282   5.671  17.346  0.00  0.00    +0.000 NA
ATOM     18  C   UNL     1      48.130   5.440  16.021  0.00  0.00    +0.000 A 
BRANCH  16  19
ATOM     19  C   UNL     1      48.772   7.190  19.206  0.00  0.00    +0.000 C 
BRANCH  19  20
ATOM     20  C   UNL     1      48.405   8.609  19.566  0.00  0.00    +0.000 A 
ATOM     21  C   UNL     1      49.398   9.515  19.956  0.00  0.00    +0.000 A 
ATOM     22  C   UNL     1      49.022  10.788  20.349  0.00  0.00    +0.000 A 
ATOM     23  N   UNL     1      47.743  11.221  20.364  0.00  0.00    +0.000 NA
ATOM     24  C   UNL     1      46.802  10.339  19.968  0.00  0.00    +0.000 A 
ATOM     25  C   UNL     1      47.077   9.041  19.563  0.00  0.00    +0.000 A 
ENDBRANCH  19  20
ENDBRANCH  16  19
ENDBRANCH   1  13
BRANCH   1  26
ATOM     26  N   UNL     1      49.275   6.615  12.755  0.00  0.00    +0.000 NA
ATOM     27  H   UNL     1      49.031   6.491  11.775  0.00  0.00    +0.000 HD
ATOM     28  H   UNL     1      50.177   6.155  12.867  0.00  0.00    +0.000 HD
ENDBRANCH   1  26
TORSDOF 5
ENDMDL
MODEL 9
REMARK VINA RESULT:    -5.662      4.166      6.704
REMARK INTER + INTRA:          -8.007
REMARK INTER:                  -7.483
REMARK INTRA:                  -0.524
REMARK UNBOUND:                -0.855
REMARK  Name = 
REMARK  5 active torsions:
REMARK  status: ('A' for Active; 'I' for Inactive)
REMARK    1  A    between atoms: N_1  and  C_2
REMARK    2  A    between atoms: C_2  and  C_3
REMARK    3  A    between atoms: C_2  and  C_16
REMARK    4  A    between atoms: C_6  and  C_7
REMARK    5  A    between atoms: C_7  and  C_8
REMARK                            x       y       z     vdW  Elec       q    Type
REMARK                         _______ _______ _______ _____ _____    ______ ____
ROOT
ATOM      1  C   UNL     1      47.129   8.433  13.125  0.00  0.00    +0.000 C 
ENDROOT
BRANCH   1   2
ATOM      2  C   UNL     1      46.489   7.065  13.004  0.00  0.00    +0.000 A 
ATOM      3  C   UNL     1      46.933   5.897  13.611  0.00  0.00    +0.000 A 
ATOM      4  S   UNL     1      45.879   4.570  13.402  0.00  0.00    +0.000 S 
ATOM      5  C   UNL     1      44.787   5.504  12.493  0.00  0.00    +0.000 A 
ATOM      6  N   UNL     1      43.619   4.978  12.035  0.00  0.00    +0.000 NA
ATOM      7  C   UNL     1      42.893   5.807  11.363  0.00  0.00    +0.000 A 
ATOM      8  N   UNL     1      43.235   7.111  11.093  0.00  0.00    +0.000 N 
ATOM      9  C   UNL     1      44.405   7.686  11.534  0.00  0.00    +0.000 A 
ATOM     10  O   UNL     1      44.690   8.852  11.273  0.00  0.00    +0.000 OA
ATOM     11  C   UNL     1      45.242   6.798  12.317  0.00  0.00    +0.000 A 
ATOM     12  H   UNL     1      42.628   7.699  10.543  0.00  0.00    +0.000 HD
ENDBRANCH   1   2
BRANCH   1  13
ATOM     13  C   UNL     1      48.544   8.429  12.593  0.00  0.00    +0.000 A 
ATOM     14  C   UNL     1      48.983   7.761  11.445  0.00  0.00    +0.000 A 
ATOM     15  C   UNL     1      50.343   7.727  11.126  0.00  0.00    +0.000 A 
ATOM     16  C   UNL     1      51.257   8.337  11.978  0.00  0.00    +0.000 A 
ATOM     17  N   UNL     1      50.867   8.991  13.098  0.00  0.00    +0.000 NA
ATOM     18  C   UNL     1      49.542   9.028  13.367  0.00  0.00    +0.000 A 
BRANCH  16  19
ATOM     19  C   UNL     1      52.735   8.344  11.648  0.00  0.00    +0.000 C 
BRANCH  19  20
ATOM     20  C   UNL     1      53.019   7.883  10.240  0.00  0.00    +0.000 A 
ATOM     21  C   UNL     1      53.025   8.803   9.185  0.00  0.00    +0.000 A 
ATOM     22  C   UNL     1      53.217   8.338   7.895  0.00  0.00    +0.000 A 
ATOM     23  N   UNL     1      53.416   7.039   7.588  0.00  0.00    +0.000 NA
ATOM     24  C   UNL     1      53.424   6.169   8.620  0.00  0.00    +0.000 A 
ATOM     25  C   UNL     1      53.236   6.535   9.944  0.00  0.00    +0.000 A 
ENDBRANCH  19  20
ENDBRANCH  16  19
ENDBRANCH   1  13
BRANCH   1  26
ATOM     26  N   UNL     1      47.109   8.860  14.527  0.00  0.00    +0.000 NA
ATOM     27  H   UNL     1      46.257   8.510  14.959  0.00  0.00    +0.000 HD
ATOM     28  H   UNL     1      47.024   9.875  14.554  0.00  0.00    +0.000 HD
ENDBRANCH   1  26
TORSDOF 5
ENDMDL
