MODEL 1
REMARK VINA RESULT:    -6.730      0.000      0.000
REMARK INTER + INTRA:         -11.521
REMARK INTER:                 -10.270
REMARK INTRA:                  -1.250
REMARK UNBOUND:                -1.250
REMARK  Name = 
REMARK  13 active torsions:
REMARK  status: ('A' for Active; 'I' for Inactive)
REMARK    1  A    between atoms: C_1  and  O_2
REMARK    2  A    between atoms: O_2  and  C_3
REMARK    3  A    between atoms: C_5  and  C_6
REMARK    4  A    between atoms: C_10  and  C_11
REMARK    5  A    between atoms: N_13  and  C_14
REMARK    6  A    between atoms: C_14  and  C_15
REMARK    7  A    between atoms: C_18  and  C_19
REMARK    8  A    between atoms: C_19  and  N_20
REMARK    9  A    between atoms: N_20  and  C_21
REMARK   10  A    between atoms: C_21  and  C_22
REMARK   11  A    between atoms: C_24  and  C_25
REMARK   12  A    between atoms: C_27  and  C_28
REMARK   13  A    between atoms: N_34  and  C_35
REMARK                            x       y       z     vdW  Elec       q    Type
REMARK                         _______ _______ _______ _____ _____    ______ ____
ROOT
ATOM      1  C   UNL     1      48.669   3.304  17.299  0.00  0.00    +0.000 A 
ATOM      2  C   UNL     1      49.379   2.150  16.943  0.00  0.00    +0.000 A 
ATOM      3  C   UNL     1      50.755   2.062  17.174  0.00  0.00    +0.000 A 
ATOM      4  C   UNL     1      51.453   3.122  17.771  0.00  0.00    +0.000 A 
ATOM      5  C   UNL     1      50.737   4.268  18.145  0.00  0.00    +0.000 A 
ATOM      6  C   UNL     1      49.360   4.356  17.915  0.00  0.00    +0.000 A 
ENDROOT
BRANCH   1   7
ATOM      7  C   UNL     1      47.187   3.400  17.042  0.00  0.00    +0.000 C 
BRANCH   7  10
ATOM      8  C   UNL     1      47.032   4.055  14.689  0.00  0.00    +0.000 C 
ATOM      9  O   UNL     1      47.320   2.928  14.300  0.00  0.00    +0.000 OA
ATOM     10  N   UNL     1      46.881   4.364  16.019  0.00  0.00    +0.000 N 
ATOM     11  H   UNL     1      46.710   5.323  16.298  0.00  0.00    +0.000 HD
BRANCH   8  19
ATOM     12  C   UNL     1      48.635   6.986  14.102  0.00  0.00    +0.000 A 
ATOM     13  N   UNL     1      49.004   8.212  13.686  0.00  0.00    +0.000 NA
ATOM     14  C   UNL     1      48.264   8.821  12.740  0.00  0.00    +0.000 A 
ATOM     15  C   UNL     1      48.742  10.168  12.296  0.00  0.00    +0.000 C 
ATOM     16  N   UNL     1      47.169   8.323  12.135  0.00  0.00    +0.000 NA
ATOM     17  C   UNL     1      46.836   7.104  12.590  0.00  0.00    +0.000 A 
ATOM     18  C   UNL     1      47.492   6.382  13.579  0.00  0.00    +0.000 A 
ATOM     19  C   UNL     1      46.780   5.153  13.760  0.00  0.00    +0.000 A 
ATOM     20  C   UNL     1      45.756   5.154  12.820  0.00  0.00    +0.000 A 
ATOM     21  N   UNL     1      45.793   6.339  12.136  0.00  0.00    +0.000 N 
ATOM     22  C   UNL     1      44.894   6.730  11.074  0.00  0.00    +0.000 C 
BRANCH  12  24
ATOM     23  C   UNL     1      50.464   7.131  15.549  0.00  0.00    +0.000 C 
ATOM     24  O   UNL     1      49.397   6.332  15.049  0.00  0.00    +0.000 OA
ENDBRANCH  12  24
ENDBRANCH   8  19
ENDBRANCH   7  10
ENDBRANCH   1   7
BRANCH   4  25
ATOM     25  C   UNL     1      52.940   3.023  18.029  0.00  0.00    +0.000 C 
BRANCH  25  26
ATOM     26  N   UNL     1      53.269   1.825  18.795  0.00  0.00    +0.000 NA
ATOM     27  H   UNL     1      52.585   1.094  18.590  0.00  0.00    +0.000 HD
BRANCH  26  28
ATOM     28  C   UNL     1      54.605   1.309  18.447  0.00  0.00    +0.000 C 
BRANCH  28  29
ATOM     29  C   UNL     1      54.633  -0.210  18.337  0.00  0.00    +0.000 A 
ATOM     30  N   UNL     1      54.233  -0.937  19.401  0.00  0.00    +0.000 NA
ATOM     31  C   UNL     1      54.214  -2.279  19.273  0.00  0.00    +0.000 A 
ATOM     32  C   UNL     1      53.751  -3.083  20.451  0.00  0.00    +0.000 C 
ATOM     33  C   UNL     1      54.602  -2.909  18.112  0.00  0.00    +0.000 A 
ATOM     34  C   UNL     1      55.012  -2.087  17.085  0.00  0.00    +0.000 A 
ATOM     35  N   UNL     1      55.045  -0.739  17.169  0.00  0.00    +0.000 NA
BRANCH  34  36
ATOM     36  C   UNL     1      55.439  -2.644  15.833  0.00  0.00    +0.000 C 
ATOM     37  N   UNL     1      55.757  -3.068  14.795  0.00  0.00    +0.000 NA
ENDBRANCH  34  36
ENDBRANCH  28  29
ENDBRANCH  26  28
ENDBRANCH  25  26
ENDBRANCH   4  25
TORSDOF 9
ENDMDL
MODEL 2
REMARK VINA RESULT:    -6.590      5.185      9.635
REMARK INTER + INTRA:         -11.308
REMARK INTER:                  -9.885
REMARK INTRA:                  -1.424
REMARK UNBOUND:                -1.250
REMARK  Name = 
REMARK  13 active torsions:
REMARK  status: ('A' for Active; 'I' for Inactive)
REMARK    1  A    between atoms: C_1  and  O_2
REMARK    2  A    between atoms: O_2  and  C_3
REMARK    3  A    between atoms: C_5  and  C_6
REMARK    4  A    between atoms: C_10  and  C_11
REMARK    5  A    between atoms: N_13  and  C_14
REMARK    6  A    between atoms: C_14  and  C_15
REMARK    7  A    between atoms: C_18  and  C_19
REMARK    8  A    between atoms: C_19  and  N_20
REMARK    9  A    between atoms: N_20  and  C_21
REMARK   10  A    between atoms: C_21  and  C_22
REMARK   11  A    between atoms: C_24  and  C_25
REMARK   12  A    between atoms: C_27  and  C_28
REMARK   13  A    between atoms: N_34  and  C_35
REMARK                            x       y       z     vdW  Elec       q    Type
REMARK                         _______ _______ _______ _____ _____    ______ ____
ROOT
ATOM      1  C   UNL     1      46.860   6.337  13.055  0.00  0.00    +0.000 A 
ATOM      2  C   UNL     1      46.706   5.018  13.500  0.00  0.00    +0.000 A 
ATOM      3  C   UNL     1      45.467   4.377  13.408  0.00  0.00    +0.000 A 
ATOM      4  C   UNL     1      44.354   5.037  12.865  0.00  0.00    +0.000 A 
ATOM      5  C   UNL     1      44.516   6.350  12.403  0.00  0.00    +0.000 A 
ATOM      6  C   UNL     1      45.756   6.991  12.493  0.00  0.00    +0.000 A 
ENDROOT
BRANCH   1   7
ATOM      7  C   UNL     1      48.195   7.028  13.162  0.00  0.00    +0.000 C 
BRANCH   7  10
ATOM      8  C   UNL     1      49.895   7.518  14.854  0.00  0.00    +0.000 C 
ATOM      9  O   UNL     1      50.748   7.756  14.004  0.00  0.00    +0.000 OA
ATOM     10  N   UNL     1      48.595   7.214  14.532  0.00  0.00    +0.000 N 
ATOM     11  H   UNL     1      47.942   6.958  15.263  0.00  0.00    +0.000 HD
BRANCH   8  19
ATOM     12  C   UNL     1      49.217   5.431  17.439  0.00  0.00    +0.000 A 
ATOM     13  N   UNL     1      49.055   4.857  18.647  0.00  0.00    +0.000 NA
ATOM     14  C   UNL     1      49.540   5.491  19.731  0.00  0.00    +0.000 A 
ATOM     15  C   UNL     1      49.357   4.788  21.041  0.00  0.00    +0.000 C 
ATOM     16  N   UNL     1      50.200   6.664  19.746  0.00  0.00    +0.000 NA
ATOM     17  C   UNL     1      50.327   7.201  18.521  0.00  0.00    +0.000 A 
ATOM     18  C   UNL     1      49.849   6.669  17.331  0.00  0.00    +0.000 A 
ATOM     19  C   UNL     1      50.187   7.585  16.282  0.00  0.00    +0.000 A 
ATOM     20  C   UNL     1      50.919   8.606  16.878  0.00  0.00    +0.000 A 
ATOM     21  N   UNL     1      50.981   8.369  18.225  0.00  0.00    +0.000 N 
ATOM     22  C   UNL     1      51.654   9.199  19.198  0.00  0.00    +0.000 C 
BRANCH  12  24
ATOM     23  C   UNL     1      47.911   3.677  16.615  0.00  0.00    +0.000 C 
ATOM     24  O   UNL     1      48.754   4.783  16.312  0.00  0.00    +0.000 OA
ENDBRANCH  12  24
ENDBRANCH   8  19
ENDBRANCH   7  10
ENDBRANCH   1   7
BRANCH   4  25
ATOM     25  C   UNL     1      43.016   4.341  12.759  0.00  0.00    +0.000 C 
BRANCH  25  26
ATOM     26  N   UNL     1      42.761   3.884  11.396  0.00  0.00    +0.000 NA
ATOM     27  H   UNL     1      43.117   4.577  10.735  0.00  0.00    +0.000 HD
BRANCH  26  28
ATOM     28  C   UNL     1      43.434   2.603  11.119  0.00  0.00    +0.000 C 
BRANCH  28  29
ATOM     29  C   UNL     1      44.467   2.715  10.005  0.00  0.00    +0.000 A 
ATOM     30  N   UNL     1      44.893   3.945   9.649  0.00  0.00    +0.000 NA
ATOM     31  C   UNL     1      45.844   4.028   8.697  0.00  0.00    +0.000 A 
ATOM     32  C   UNL     1      46.329   5.395   8.317  0.00  0.00    +0.000 C 
ATOM     33  C   UNL     1      46.365   2.911   8.083  0.00  0.00    +0.000 A 
ATOM     34  C   UNL     1      45.857   1.700   8.498  0.00  0.00    +0.000 A 
ATOM     35  N   UNL     1      44.906   1.570   9.448  0.00  0.00    +0.000 NA
BRANCH  34  36
ATOM     36  C   UNL     1      46.331   0.475   7.919  0.00  0.00    +0.000 C 
ATOM     37  N   UNL     1      46.713  -0.539   7.491  0.00  0.00    +0.000 NA
ENDBRANCH  34  36
ENDBRANCH  28  29
ENDBRANCH  26  28
ENDBRANCH  25  26
ENDBRANCH   4  25
TORSDOF 9
ENDMDL
MODEL 3
REMARK VINA RESULT:    -6.494      2.949      5.042
REMARK INTER + INTRA:         -11.161
REMARK INTER:                  -9.764
REMARK INTRA:                  -1.397
REMARK UNBOUND:                -1.250
REMARK  Name = 
REMARK  13 active torsions:
REMARK  status: ('A' for Active; 'I' for Inactive)
REMARK    1  A    between atoms: C_1  and  O_2
REMARK    2  A    between atoms: O_2  and  C_3
REMARK    3  A    between atoms: C_5  and  C_6
REMARK    4  A    between atoms: C_10  and  C_11
REMARK    5  A    between atoms: N_13  and  C_14
REMARK    6  A    between atoms: C_14  and  C_15
REMARK    7  A    between atoms: C_18  and  C_19
REMARK    8  A    between atoms: C_19  and  N_20
REMARK    9  A    between atoms: N_20  and  C_21
REMARK   10  A    between atoms: C_21  and  C_22
REMARK   11  A    between atoms: C_24  and  C_25
REMARK   12  A    between atoms: C_27  and  C_28
REMARK   13  A    between atoms: N_34  and  C_35
REMARK                            x       y       z     vdW  Elec       q    Type
REMARK                         _______ _______ _______ _____ _____    ______ ____
ROOT
ATOM      1  C   UNL     1      49.319   8.189  16.395  0.00  0.00    +0.000 A 
ATOM      2  C   UNL     1      49.817   9.038  17.392  0.00  0.00    +0.000 A 
ATOM      3  C   UNL     1      49.962   8.583  18.706  0.00  0.00    +0.000 A 
ATOM      4  C   UNL     1      49.617   7.268  19.053  0.00  0.00    +0.000 A 
ATOM      5  C   UNL     1      49.139   6.415  18.050  0.00  0.00    +0.000 A 
ATOM      6  C   UNL     1      48.995   6.869  16.735  0.00  0.00    +0.000 A 
ENDROOT
BRANCH   1   7
ATOM      7  C   UNL     1      49.157   8.684  14.981  0.00  0.00    +0.000 C 
BRANCH   7  10
ATOM      8  C   UNL     1      48.002   7.214  13.400  0.00  0.00    +0.000 C 
ATOM      9  O   UNL     1      49.044   6.649  13.082  0.00  0.00    +0.000 OA
ATOM     10  N   UNL     1      47.953   8.184  14.372  0.00  0.00    +0.000 N 
ATOM     11  H   UNL     1      47.084   8.671  14.554  0.00  0.00    +0.000 HD
BRANCH   8  19
ATOM     12  C   UNL     1      46.283   4.300  13.173  0.00  0.00    +0.000 A 
ATOM     13  N   UNL     1      45.410   3.318  12.876  0.00  0.00    +0.000 NA
ATOM     14  C   UNL     1      44.311   3.627  12.163  0.00  0.00    +0.000 A 
ATOM     15  C   UNL     1      43.363   2.499  11.893  0.00  0.00    +0.000 C 
ATOM     16  N   UNL     1      43.967   4.846  11.708  0.00  0.00    +0.000 NA
ATOM     17  C   UNL     1      44.872   5.789  12.021  0.00  0.00    +0.000 A 
ATOM     18  C   UNL     1      46.056   5.599  12.720  0.00  0.00    +0.000 A 
ATOM     19  C   UNL     1      46.719   6.867  12.799  0.00  0.00    +0.000 A 
ATOM     20  C   UNL     1      45.869   7.788  12.197  0.00  0.00    +0.000 A 
ATOM     21  N   UNL     1      44.771   7.122  11.721  0.00  0.00    +0.000 N 
ATOM     22  C   UNL     1      43.653   7.724  11.030  0.00  0.00    +0.000 C 
BRANCH  12  24
ATOM     23  C   UNL     1      47.169   4.131  15.328  0.00  0.00    +0.000 C 
ATOM     24  O   UNL     1      47.401   4.010  13.929  0.00  0.00    +0.000 OA
ENDBRANCH  12  24
ENDBRANCH   8  19
ENDBRANCH   7  10
ENDBRANCH   1   7
BRANCH   4  25
ATOM     25  C   UNL     1      49.782   6.774  20.473  0.00  0.00    +0.000 C 
BRANCH  25  26
ATOM     26  N   UNL     1      50.313   5.415  20.505  0.00  0.00    +0.000 NA
ATOM     27  H   UNL     1      49.792   4.832  19.849  0.00  0.00    +0.000 HD
BRANCH  26  28
ATOM     28  C   UNL     1      51.734   5.380  20.114  0.00  0.00    +0.000 C 
BRANCH  28  29
ATOM     29  C   UNL     1      52.081   4.148  19.287  0.00  0.00    +0.000 A 
ATOM     30  N   UNL     1      53.296   3.585  19.456  0.00  0.00    +0.000 NA
ATOM     31  C   UNL     1      53.572   2.467  18.755  0.00  0.00    +0.000 A 
ATOM     32  C   UNL     1      54.915   1.833  18.960  0.00  0.00    +0.000 C 
ATOM     33  C   UNL     1      52.668   1.911  17.878  0.00  0.00    +0.000 A 
ATOM     34  C   UNL     1      51.461   2.565  17.758  0.00  0.00    +0.000 A 
ATOM     35  N   UNL     1      51.142   3.686  18.440  0.00  0.00    +0.000 NA
BRANCH  34  36
ATOM     36  C   UNL     1      50.450   2.068  16.867  0.00  0.00    +0.000 C 
ATOM     37  N   UNL     1      49.646   1.693  16.112  0.00  0.00    +0.000 NA
ENDBRANCH  34  36
ENDBRANCH  28  29
ENDBRANCH  26  28
ENDBRANCH  25  26
ENDBRANCH   4  25
TORSDOF 9
ENDMDL
MODEL 4
REMARK VINA RESULT:    -6.308      6.472     10.379
REMARK INTER + INTRA:         -10.877
REMARK INTER:                  -9.531
REMARK INTRA:                  -1.346
REMARK UNBOUND:                -1.250
REMARK  Name = 
REMARK  13 active torsions:
REMARK  status: ('A' for Active; 'I' for Inactive)
REMARK    1  A    between atoms: C_1  and  O_2
REMARK    2  A    between atoms: O_2  and  C_3
REMARK    3  A    between atoms: C_5  and  C_6
REMARK    4  A    between atoms: C_10  and  C_11
REMARK    5  A    between atoms: N_13  and  C_14
REMARK    6  A    between atoms: C_14  and  C_15
REMARK    7  A    between atoms: C_18  and  C_19
REMARK    8  A    between atoms: C_19  and  N_20
REMARK    9  A    between atoms: N_20  and  C_21
REMARK   10  A    between atoms: C_21  and  C_22
REMARK   11  A    between atoms: C_24  and  C_25
REMARK   12  A    between atoms: C_27  and  C_28
REMARK   13  A    between atoms: N_34  and  C_35
REMARK                            x       y       z     vdW  Elec       q    Type
REMARK                         _______ _______ _______ _____ _____    ______ ____
ROOT
ATOM      1  C   UNL     1      50.192   8.817  11.925  0.00  0.00    +0.000 A 
ATOM      2  C   UNL     1      49.575  10.004  11.511  0.00  0.00    +0.000 A 
ATOM      3  C   UNL     1      48.192  10.167  11.635  0.00  0.00    +0.000 A 
ATOM      4  C   UNL     1      47.394   9.150  12.179  0.00  0.00    +0.000 A 
ATOM      5  C   UNL     1      48.016   7.970  12.610  0.00  0.00    +0.000 A 
ATOM      6  C   UNL     1      49.400   7.807  12.488  0.00  0.00    +0.000 A 
ENDROOT
BRANCH   1   7
ATOM      7  C   UNL     1      51.682   8.641  11.784  0.00  0.00    +0.000 C 
BRANCH   7  10
ATOM      8  C   UNL     1      52.940   8.915   9.701  0.00  0.00    +0.000 C 
ATOM      9  O   UNL     1      53.549   9.887  10.135  0.00  0.00    +0.000 OA
ATOM     10  N   UNL     1      52.048   8.200  10.464  0.00  0.00    +0.000 N 
ATOM     11  H   UNL     1      51.517   7.446  10.044  0.00  0.00    +0.000 HD
BRANCH   8  19
ATOM     12  C   UNL     1      53.655   5.833   8.478  0.00  0.00    +0.000 A 
ATOM     13  N   UNL     1      53.984   4.777   7.712  0.00  0.00    +0.000 NA
ATOM     14  C   UNL     1      54.102   4.958   6.383  0.00  0.00    +0.000 A 
ATOM     15  C   UNL     1      54.440   3.739   5.580  0.00  0.00    +0.000 C 
ATOM     16  N   UNL     1      53.912   6.108   5.710  0.00  0.00    +0.000 NA
ATOM     17  C   UNL     1      53.595   7.133   6.518  0.00  0.00    +0.000 A 
ATOM     18  C   UNL     1      53.472   7.089   7.901  0.00  0.00    +0.000 A 
ATOM     19  C   UNL     1      53.149   8.411   8.348  0.00  0.00    +0.000 A 
ATOM     20  C   UNL     1      53.024   9.190   7.203  0.00  0.00    +0.000 A 
ATOM     21  N   UNL     1      53.311   8.411   6.113  0.00  0.00    +0.000 N 
ATOM     22  C   UNL     1      53.293   8.848   4.735  0.00  0.00    +0.000 C 
BRANCH  12  24
ATOM     23  C   UNL     1      54.733   5.697  10.547  0.00  0.00    +0.000 C 
ATOM     24  O   UNL     1      53.498   5.662   9.839  0.00  0.00    +0.000 OA
ENDBRANCH  12  24
ENDBRANCH   8  19
ENDBRANCH   7  10
ENDBRANCH   1   7
BRANCH   4  25
ATOM     25  C   UNL     1      45.899   9.329  12.319  0.00  0.00    +0.000 C 
BRANCH  25  26
ATOM     26  N   UNL     1      45.268   8.129  12.861  0.00  0.00    +0.000 NA
ATOM     27  H   UNL     1      44.596   8.397  13.582  0.00  0.00    +0.000 HD
BRANCH  26  28
ATOM     28  C   UNL     1      44.543   7.380  11.819  0.00  0.00    +0.000 C 
BRANCH  28  29
ATOM     29  C   UNL     1      44.869   5.892  11.837  0.00  0.00    +0.000 A 
ATOM     30  N   UNL     1      44.380   5.118  10.845  0.00  0.00    +0.000 NA
ATOM     31  C   UNL     1      44.717   3.812  10.846  0.00  0.00    +0.000 A 
ATOM     32  C   UNL     1      44.188   2.958   9.732  0.00  0.00    +0.000 C 
ATOM     33  C   UNL     1      45.516   3.262  11.822  0.00  0.00    +0.000 A 
ATOM     34  C   UNL     1      45.953   4.125  12.804  0.00  0.00    +0.000 A 
ATOM     35  N   UNL     1      45.642   5.439  12.843  0.00  0.00    +0.000 NA
BRANCH  34  36
ATOM     36  C   UNL     1      46.789   3.651  13.870  0.00  0.00    +0.000 C 
ATOM     37  N   UNL     1      47.493   3.244  14.704  0.00  0.00    +0.000 NA
ENDBRANCH  34  36
ENDBRANCH  28  29
ENDBRANCH  26  28
ENDBRANCH  25  26
ENDBRANCH   4  25
TORSDOF 9
ENDMDL
MODEL 5
REMARK VINA RESULT:    -6.290      4.823      6.338
REMARK INTER + INTRA:         -10.850
REMARK INTER:                  -8.964
REMARK INTRA:                  -1.886
REMARK UNBOUND:                -1.250
REMARK  Name = 
REMARK  13 active torsions:
REMARK  status: ('A' for Active; 'I' for Inactive)
REMARK    1  A    between atoms: C_1  and  O_2
REMARK    2  A    between atoms: O_2  and  C_3
REMARK    3  A    between atoms: C_5  and  C_6
REMARK    4  A    between atoms: C_10  and  C_11
REMARK    5  A    between atoms: N_13  and  C_14
REMARK    6  A    between atoms: C_14  and  C_15
REMARK    7  A    between atoms: C_18  and  C_19
REMARK    8  A    between atoms: C_19  and  N_20
REMARK    9  A    between atoms: N_20  and  C_21
REMARK   10  A    between atoms: C_21  and  C_22
REMARK   11  A    between atoms: C_24  and  C_25
REMARK   12  A    between atoms: C_27  and  C_28
REMARK   13  A    between atoms: N_34  and  C_35
REMARK                            x       y       z     vdW  Elec       q    Type
REMARK                         _______ _______ _______ _____ _____    ______ ____
ROOT
ATOM      1  C   UNL     1      47.977   4.315  17.631  0.00  0.00    +0.000 A 
ATOM      2  C   UNL     1      49.149   4.012  18.335  0.00  0.00    +0.000 A 
ATOM      3  C   UNL     1      49.513   4.755  19.462  0.00  0.00    +0.000 A 
ATOM      4  C   UNL     1      48.713   5.814  19.915  0.00  0.00    +0.000 A 
ATOM      5  C   UNL     1      47.530   6.102  19.220  0.00  0.00    +0.000 A 
ATOM      6  C   UNL     1      47.165   5.359  18.092  0.00  0.00    +0.000 A 
ENDROOT
BRANCH   1   7
ATOM      7  C   UNL     1      47.591   3.517  16.412  0.00  0.00    +0.000 C 
BRANCH   7  10
ATOM      8  C   UNL     1      46.762   4.127  14.190  0.00  0.00    +0.000 C 
ATOM      9  O   UNL     1      47.505   3.323  13.634  0.00  0.00    +0.000 OA
ATOM     10  N   UNL     1      46.691   4.246  15.557  0.00  0.00    +0.000 N 
ATOM     11  H   UNL     1      46.114   4.969  15.970  0.00  0.00    +0.000 HD
BRANCH   8  19
ATOM     12  C   UNL     1      46.969   7.363  13.198  0.00  0.00    +0.000 A 
ATOM     13  N   UNL     1      46.735   8.602  12.725  0.00  0.00    +0.000 NA
ATOM     14  C   UNL     1      45.564   8.843  12.106  0.00  0.00    +0.000 A 
ATOM     15  C   UNL     1      45.374  10.230  11.573  0.00  0.00    +0.000 C 
ATOM     16  N   UNL     1      44.574   7.957  11.889  0.00  0.00    +0.000 NA
ATOM     17  C   UNL     1      44.851   6.740  12.387  0.00  0.00    +0.000 A 
ATOM     18  C   UNL     1      46.001   6.368  13.071  0.00  0.00    +0.000 A 
ATOM     19  C   UNL     1      45.858   4.992  13.439  0.00  0.00    +0.000 A 
ATOM     20  C   UNL     1      44.648   4.568  12.901  0.00  0.00    +0.000 A 
ATOM     21  N   UNL     1      44.047   5.634  12.286  0.00  0.00    +0.000 N 
ATOM     22  C   UNL     1      42.774   5.608  11.604  0.00  0.00    +0.000 C 
BRANCH  12  24
ATOM     23  C   UNL     1      49.257   7.006  12.887  0.00  0.00    +0.000 C 
ATOM     24  O   UNL     1      48.176   7.087  13.809  0.00  0.00    +0.000 OA
ENDBRANCH  12  24
ENDBRANCH   8  19
ENDBRANCH   7  10
ENDBRANCH   1   7
BRANCH   4  25
ATOM     25  C   UNL     1      49.102   6.612  21.139  0.00  0.00    +0.000 C 
BRANCH  25  26
ATOM     26  N   UNL     1      49.322   8.018  20.809  0.00  0.00    +0.000 NA
ATOM     27  H   UNL     1      49.246   8.580  21.658  0.00  0.00    +0.000 HD
BRANCH  26  28
ATOM     28  C   UNL     1      50.663   8.237  20.237  0.00  0.00    +0.000 C 
BRANCH  28  29
ATOM     29  C   UNL     1      50.649   8.272  18.714  0.00  0.00    +0.000 A 
ATOM     30  N   UNL     1      49.627   8.903  18.098  0.00  0.00    +0.000 NA
ATOM     31  C   UNL     1      49.652   8.971  16.752  0.00  0.00    +0.000 A 
ATOM     32  C   UNL     1      48.526   9.689  16.071  0.00  0.00    +0.000 C 
ATOM     33  C   UNL     1      50.666   8.409  16.009  0.00  0.00    +0.000 A 
ATOM     34  C   UNL     1      51.657   7.770  16.723  0.00  0.00    +0.000 A 
ATOM     35  N   UNL     1      51.672   7.679  18.071  0.00  0.00    +0.000 NA
BRANCH  34  36
ATOM     36  C   UNL     1      52.758   7.148  16.044  0.00  0.00    +0.000 C 
ATOM     37  N   UNL     1      53.679   6.678  15.508  0.00  0.00    +0.000 NA
ENDBRANCH  34  36
ENDBRANCH  28  29
ENDBRANCH  26  28
ENDBRANCH  25  26
ENDBRANCH   4  25
TORSDOF 9
ENDMDL
MODEL 6
REMARK VINA RESULT:    -6.288      5.321      7.717
REMARK INTER + INTRA:         -10.847
REMARK INTER:                  -8.947
REMARK INTRA:                  -1.900
REMARK UNBOUND:                -1.250
REMARK  Name = 
REMARK  13 active torsions:
REMARK  status: ('A' for Active; 'I' for Inactive)
REMARK    1  A    between atoms: C_1  and  O_2
REMARK    2  A    between atoms: O_2  and  C_3
REMARK    3  A    between atoms: C_5  and  C_6
REMARK    4  A    between atoms: C_10  and  C_11
REMARK    5  A    between atoms: N_13  and  C_14
REMARK    6  A    between atoms: C_14  and  C_15
REMARK    7  A    between atoms: C_18  and  C_19
REMARK    8  A    between atoms: C_19  and  N_20
REMARK    9  A    between atoms: N_20  and  C_21
REMARK   10  A    between atoms: C_21  and  C_22
REMARK   11  A    between atoms: C_24  and  C_25
REMARK   12  A    between atoms: C_27  and  C_28
REMARK   13  A    between atoms: N_34  and  C_35
REMARK                            x       y       z     vdW  Elec       q    Type
REMARK                         _______ _______ _______ _____ _____    ______ ____
ROOT
ATOM      1  C   UNL     1      48.208   4.611  17.406  0.00  0.00    +0.000 A 
ATOM      2  C   UNL     1      47.407   5.039  18.472  0.00  0.00    +0.000 A 
ATOM      3  C   UNL     1      47.940   5.843  19.484  0.00  0.00    +0.000 A 
ATOM      4  C   UNL     1      49.284   6.242  19.452  0.00  0.00    +0.000 A 
ATOM      5  C   UNL     1      50.079   5.829  18.374  0.00  0.00    +0.000 A 
ATOM      6  C   UNL     1      49.546   5.025  17.361  0.00  0.00    +0.000 A 
ENDROOT
BRANCH   1   7
ATOM      7  C   UNL     1      47.634   3.738  16.320  0.00  0.00    +0.000 C 
BRANCH   7  10
ATOM      8  C   UNL     1      46.757   4.230  14.088  0.00  0.00    +0.000 C 
ATOM      9  O   UNL     1      47.387   3.307  13.579  0.00  0.00    +0.000 OA
ATOM     10  N   UNL     1      46.768   4.477  15.440  0.00  0.00    +0.000 N 
ATOM     11  H   UNL     1      46.289   5.290  15.807  0.00  0.00    +0.000 HD
BRANCH   8  19
ATOM     12  C   UNL     1      46.920   7.540  13.369  0.00  0.00    +0.000 A 
ATOM     13  N   UNL     1      46.681   8.801  12.962  0.00  0.00    +0.000 NA
ATOM     14  C   UNL     1      45.582   9.043  12.224  0.00  0.00    +0.000 A 
ATOM     15  C   UNL     1      45.388  10.458  11.775  0.00  0.00    +0.000 C 
ATOM     16  N   UNL     1      44.670   8.137  11.823  0.00  0.00    +0.000 NA
ATOM     17  C   UNL     1      44.946   6.897  12.261  0.00  0.00    +0.000 A 
ATOM     18  C   UNL     1      46.023   6.520  13.051  0.00  0.00    +0.000 A 
ATOM     19  C   UNL     1      45.907   5.114  13.298  0.00  0.00    +0.000 A 
ATOM     20  C   UNL     1      44.792   4.685  12.586  0.00  0.00    +0.000 A 
ATOM     21  N   UNL     1      44.216   5.771  11.982  0.00  0.00    +0.000 N 
ATOM     22  C   UNL     1      43.036   5.747  11.149  0.00  0.00    +0.000 C 
BRANCH  12  24
ATOM     23  C   UNL     1      49.215   7.112  13.287  0.00  0.00    +0.000 C 
ATOM     24  O   UNL     1      48.057   7.266  14.101  0.00  0.00    +0.000 OA
ENDBRANCH  12  24
ENDBRANCH   8  19
ENDBRANCH   7  10
ENDBRANCH   1   7
BRANCH   4  25
ATOM     25  C   UNL     1      49.858   7.119  20.543  0.00  0.00    +0.000 C 
BRANCH  25  26
ATOM     26  N   UNL     1      50.973   7.921  20.048  0.00  0.00    +0.000 NA
ATOM     27  H   UNL     1      51.075   7.776  19.043  0.00  0.00    +0.000 HD
BRANCH  26  28
ATOM     28  C   UNL     1      50.750   9.360  20.280  0.00  0.00    +0.000 C 
BRANCH  28  29
ATOM     29  C   UNL     1      49.635   9.924  19.408  0.00  0.00    +0.000 A 
ATOM     30  N   UNL     1      48.534  10.413  20.016  0.00  0.00    +0.000 NA
ATOM     31  C   UNL     1      47.576  10.956  19.237  0.00  0.00    +0.000 A 
ATOM     32  C   UNL     1      46.363  11.516  19.916  0.00  0.00    +0.000 C 
ATOM     33  C   UNL     1      47.689  11.005  17.865  0.00  0.00    +0.000 A 
ATOM     34  C   UNL     1      48.840  10.466  17.333  0.00  0.00    +0.000 A 
ATOM     35  N   UNL     1      49.824   9.914  18.075  0.00  0.00    +0.000 NA
BRANCH  34  36
ATOM     36  C   UNL     1      49.054  10.464  15.914  0.00  0.00    +0.000 C 
ATOM     37  N   UNL     1      49.195  10.495  14.757  0.00  0.00    +0.000 NA
ENDBRANCH  34  36
ENDBRANCH  28  29
ENDBRANCH  26  28
ENDBRANCH  25  26
ENDBRANCH   4  25
TORSDOF 9
ENDMDL
MODEL 7
REMARK VINA RESULT:    -6.208      2.796     10.201
REMARK INTER + INTRA:         -10.725
REMARK INTER:                  -9.587
REMARK INTRA:                  -1.137
REMARK UNBOUND:                -1.250
REMARK  Name = 
REMARK  13 active torsions:
REMARK  status: ('A' for Active; 'I' for Inactive)
REMARK    1  A    between atoms: C_1  and  O_2
REMARK    2  A    between atoms: O_2  and  C_3
REMARK    3  A    between atoms: C_5  and  C_6
REMARK    4  A    between atoms: C_10  and  C_11
REMARK    5  A    between atoms: N_13  and  C_14
REMARK    6  A    between atoms: C_14  and  C_15
REMARK    7  A    between atoms: C_18  and  C_19
REMARK    8  A    between atoms: C_19  and  N_20
REMARK    9  A    between atoms: N_20  and  C_21
REMARK   10  A    between atoms: C_21  and  C_22
REMARK   11  A    between atoms: C_24  and  C_25
REMARK   12  A    between atoms: C_27  and  C_28
REMARK   13  A    between atoms: N_34  and  C_35
REMARK                            x       y       z     vdW  Elec       q    Type
REMARK                         _______ _______ _______ _____ _____    ______ ____
ROOT
ATOM      1  C   UNL     1      48.905   7.864  16.495  0.00  0.00    +0.000 A 
ATOM      2  C   UNL     1      48.422   9.009  15.850  0.00  0.00    +0.000 A 
ATOM      3  C   UNL     1      47.896   8.928  14.557  0.00  0.00    +0.000 A 
ATOM      4  C   UNL     1      47.836   7.701  13.881  0.00  0.00    +0.000 A 
ATOM      5  C   UNL     1      48.301   6.553  14.536  0.00  0.00    +0.000 A 
ATOM      6  C   UNL     1      48.826   6.633  15.830  0.00  0.00    +0.000 A 
ENDROOT
BRANCH   1   7
ATOM      7  C   UNL     1      49.478   7.954  17.886  0.00  0.00    +0.000 C 
BRANCH   7  10
ATOM      8  C   UNL     1      50.467   6.261  19.351  0.00  0.00    +0.000 C 
ATOM      9  O   UNL     1      49.626   6.448  20.224  0.00  0.00    +0.000 OA
ATOM     10  N   UNL     1      50.436   6.912  18.141  0.00  0.00    +0.000 N 
ATOM     11  H   UNL     1      51.188   6.777  17.477  0.00  0.00    +0.000 HD
BRANCH   8  19
ATOM     12  C   UNL     1      51.182   3.331  17.797  0.00  0.00    +0.000 A 
ATOM     13  N   UNL     1      51.690   2.143  17.422  0.00  0.00    +0.000 NA
ATOM     14  C   UNL     1      52.795   1.689  18.044  0.00  0.00    +0.000 A 
ATOM     15  C   UNL     1      53.331   0.377  17.561  0.00  0.00    +0.000 C 
ATOM     16  N   UNL     1      53.478   2.313  19.022  0.00  0.00    +0.000 NA
ATOM     17  C   UNL     1      52.928   3.489  19.367  0.00  0.00    +0.000 A 
ATOM     18  C   UNL     1      51.779   4.055  18.830  0.00  0.00    +0.000 A 
ATOM     19  C   UNL     1      51.548   5.293  19.512  0.00  0.00    +0.000 A 
ATOM     20  C   UNL     1      52.611   5.457  20.392  0.00  0.00    +0.000 A 
ATOM     21  N   UNL     1      53.423   4.358  20.305  0.00  0.00    +0.000 N 
ATOM     22  C   UNL     1      54.637   4.143  21.059  0.00  0.00    +0.000 C 
BRANCH  12  24
ATOM     23  C   UNL     1      48.966   2.928  17.177  0.00  0.00    +0.000 C 
ATOM     24  O   UNL     1      50.068   3.829  17.151  0.00  0.00    +0.000 OA
ENDBRANCH  12  24
ENDBRANCH   8  19
ENDBRANCH   7  10
ENDBRANCH   1   7
BRANCH   4  25
ATOM     25  C   UNL     1      47.260   7.613  12.485  0.00  0.00    +0.000 C 
BRANCH  25  26
ATOM     26  N   UNL     1      45.987   6.898  12.480  0.00  0.00    +0.000 NA
ATOM     27  H   UNL     1      45.338   7.357  13.121  0.00  0.00    +0.000 HD
BRANCH  26  28
ATOM     28  C   UNL     1      45.374   6.894  11.139  0.00  0.00    +0.000 C 
BRANCH  28  29
ATOM     29  C   UNL     1      45.102   5.485  10.626  0.00  0.00    +0.000 A 
ATOM     30  N   UNL     1      44.392   4.645  11.409  0.00  0.00    +0.000 NA
ATOM     31  C   UNL     1      44.115   3.418  10.922  0.00  0.00    +0.000 A 
ATOM     32  C   UNL     1      43.310   2.494  11.786  0.00  0.00    +0.000 C 
ATOM     33  C   UNL     1      44.545   3.009   9.680  0.00  0.00    +0.000 A 
ATOM     34  C   UNL     1      45.278   3.927   8.961  0.00  0.00    +0.000 A 
ATOM     35  N   UNL     1      45.578   5.166   9.408  0.00  0.00    +0.000 NA
BRANCH  34  36
ATOM     36  C   UNL     1      45.777   3.598   7.655  0.00  0.00    +0.000 C 
ATOM     37  N   UNL     1      46.176   3.287   6.606  0.00  0.00    +0.000 NA
ENDBRANCH  34  36
ENDBRANCH  28  29
ENDBRANCH  26  28
ENDBRANCH  25  26
ENDBRANCH   4  25
TORSDOF 9
ENDMDL
MODEL 8
REMARK VINA RESULT:    -6.145      4.038      6.410
REMARK INTER + INTRA:         -10.629
REMARK INTER:                  -9.086
REMARK INTRA:                  -1.543
REMARK UNBOUND:                -1.250
REMARK  Name = 
REMARK  13 active torsions:
REMARK  status: ('A' for Active; 'I' for Inactive)
REMARK    1  A    between atoms: C_1  and  O_2
REMARK    2  A    between atoms: O_2  and  C_3
REMARK    3  A    between atoms: C_5  and  C_6
REMARK    4  A    between atoms: C_10  and  C_11
REMARK    5  A    between atoms: N_13  and  C_14
REMARK    6  A    between atoms: C_14  and  C_15
REMARK    7  A    between atoms: C_18  and  C_19
REMARK    8  A    between atoms: C_19  and  N_20
REMARK    9  A    between atoms: N_20  and  C_21
REMARK   10  A    between atoms: C_21  and  C_22
REMARK   11  A    between atoms: C_24  and  C_25
REMARK   12  A    between atoms: C_27  and  C_28
REMARK   13  A    between atoms: N_34  and  C_35
REMARK                            x       y       z     vdW  Elec       q    Type
REMARK                         _______ _______ _______ _____ _____    ______ ____
ROOT
ATOM      1  C   UNL     1      49.162   9.637  16.382  0.00  0.00    +0.000 A 
ATOM      2  C   UNL     1      47.956   9.522  17.085  0.00  0.00    +0.000 A 
ATOM      3  C   UNL     1      47.955   9.191  18.444  0.00  0.00    +0.000 A 
ATOM      4  C   UNL     1      49.158   8.973  19.132  0.00  0.00    +0.000 A 
ATOM      5  C   UNL     1      50.364   9.109  18.430  0.00  0.00    +0.000 A 
ATOM      6  C   UNL     1      50.365   9.441  17.071  0.00  0.00    +0.000 A 
ENDROOT
BRANCH   1   7
ATOM      7  C   UNL     1      49.160   9.986  14.915  0.00  0.00    +0.000 C 
BRANCH   7  10
ATOM      8  C   UNL     1      47.921   8.577  13.343  0.00  0.00    +0.000 C 
ATOM      9  O   UNL     1      48.907   7.890  13.099  0.00  0.00    +0.000 OA
ATOM     10  N   UNL     1      47.936   9.590  14.271  0.00  0.00    +0.000 N 
ATOM     11  H   UNL     1      47.118  10.175  14.391  0.00  0.00    +0.000 HD
BRANCH   8  19
ATOM     12  C   UNL     1      46.028   5.792  12.933  0.00  0.00    +0.000 A 
ATOM     13  N   UNL     1      45.104   4.883  12.569  0.00  0.00    +0.000 NA
ATOM     14  C   UNL     1      44.045   5.296  11.847  0.00  0.00    +0.000 A 
ATOM     15  C   UNL     1      43.036   4.245  11.500  0.00  0.00    +0.000 C 
ATOM     16  N   UNL     1      43.790   6.555  11.445  0.00  0.00    +0.000 NA
ATOM     17  C   UNL     1      44.744   7.422  11.824  0.00  0.00    +0.000 A 
ATOM     18  C   UNL     1      45.895   7.124  12.540  0.00  0.00    +0.000 A 
ATOM     19  C   UNL     1      46.634   8.341  12.696  0.00  0.00    +0.000 A 
ATOM     20  C   UNL     1      45.860   9.342  12.122  0.00  0.00    +0.000 A 
ATOM     21  N   UNL     1      44.735   8.772  11.588  0.00  0.00    +0.000 N 
ATOM     22  C   UNL     1      43.675   9.476  10.902  0.00  0.00    +0.000 C 
BRANCH  12  24
ATOM     23  C   UNL     1      47.095   4.003  13.991  0.00  0.00    +0.000 C 
ATOM     24  O   UNL     1      47.106   5.396  13.700  0.00  0.00    +0.000 OA
ENDBRANCH  12  24
ENDBRANCH   8  19
ENDBRANCH   7  10
ENDBRANCH   1   7
BRANCH   4  25
ATOM     25  C   UNL     1      49.157   8.624  20.603  0.00  0.00    +0.000 C 
BRANCH  25  26
ATOM     26  N   UNL     1      48.588   7.299  20.835  0.00  0.00    +0.000 NA
ATOM     27  H   UNL     1      48.051   7.014  20.014  0.00  0.00    +0.000 HD
BRANCH  26  28
ATOM     28  C   UNL     1      49.638   6.291  21.065  0.00  0.00    +0.000 C 
BRANCH  28  29
ATOM     29  C   UNL     1      49.806   5.344  19.883  0.00  0.00    +0.000 A 
ATOM     30  N   UNL     1      51.057   5.077  19.451  0.00  0.00    +0.000 NA
ATOM     31  C   UNL     1      51.195   4.199  18.437  0.00  0.00    +0.000 A 
ATOM     32  C   UNL     1      52.586   3.890  17.971  0.00  0.00    +0.000 C 
ATOM     33  C   UNL     1      50.112   3.596  17.837  0.00  0.00    +0.000 A 
ATOM     34  C   UNL     1      48.875   3.944  18.333  0.00  0.00    +0.000 A 
ATOM     35  N   UNL     1      48.689   4.817  19.347  0.00  0.00    +0.000 NA
BRANCH  34  36
ATOM     36  C   UNL     1      47.681   3.374  17.775  0.00  0.00    +0.000 C 
ATOM     37  N   UNL     1      46.687   2.940  17.349  0.00  0.00    +0.000 NA
ENDBRANCH  34  36
ENDBRANCH  28  29
ENDBRANCH  26  28
ENDBRANCH  25  26
ENDBRANCH   4  25
TORSDOF 9
ENDMDL
MODEL 9
REMARK VINA RESULT:    -6.137      7.668     10.550
REMARK INTER + INTRA:         -10.616
REMARK INTER:                  -9.416
REMARK INTRA:                  -1.200
REMARK UNBOUND:                -1.250
REMARK  Name = 
REMARK  13 active torsions:
REMARK  status: ('A' for Active; 'I' for Inactive)
REMARK    1  A    between atoms: C_1  and  O_2
REMARK    2  A    between atoms: O_2  and  C_3
REMARK    3  A    between atoms: C_5  and  C_6
REMARK    4  A    between atoms: C_10  and  C_11
REMARK    5  A    between atoms: N_13  and  C_14
REMARK    6  A    between atoms: C_14  and  C_15
REMARK    7  A    between atoms: C_18  and  C_19
REMARK    8  A    between atoms: C_19  and  N_20
REMARK    9  A    between atoms: N_20  and  C_21
REMARK   10  A    between atoms: C_21  and  C_22
REMARK   11  A    between atoms: C_24  and  C_25
REMARK   12  A    between atoms: C_27  and  C_28
REMARK   13  A    between atoms: N_34  and  C_35
REMARK                            x       y       z     vdW  Elec       q    Type
REMARK                         _______ _______ _______ _____ _____    ______ ____
ROOT
ATOM      1  C   UNL     1      49.994   8.490  12.082  0.00  0.00    +0.000 A 
ATOM      2  C   UNL     1      49.428   7.328  12.621  0.00  0.00    +0.000 A 
ATOM      3  C   UNL     1      48.057   7.265  12.893  0.00  0.00    +0.000 A 
ATOM      4  C   UNL     1      47.221   8.360  12.628  0.00  0.00    +0.000 A 
ATOM      5  C   UNL     1      47.787   9.514  12.070  0.00  0.00    +0.000 A 
ATOM      6  C   UNL     1      49.158   9.577  11.797  0.00  0.00    +0.000 A 
ENDROOT
BRANCH   1   7
ATOM      7  C   UNL     1      51.472   8.558  11.797  0.00  0.00    +0.000 C 
BRANCH   7  10
ATOM      8  C   UNL     1      53.007   7.349  10.322  0.00  0.00    +0.000 C 
ATOM      9  O   UNL     1      53.810   7.154  11.229  0.00  0.00    +0.000 OA
ATOM     10  N   UNL     1      51.800   7.975  10.524  0.00  0.00    +0.000 N 
ATOM     11  H   UNL     1      51.199   8.175   9.734  0.00  0.00    +0.000 HD
BRANCH   8  19
ATOM     12  C   UNL     1      53.210   8.965   7.347  0.00  0.00    +0.000 A 
ATOM     13  N   UNL     1      53.289   9.299   6.045  0.00  0.00    +0.000 NA
ATOM     14  C   UNL     1      53.489   8.322   5.141  0.00  0.00    +0.000 A 
ATOM     15  C   UNL     1      53.600   8.759   3.713  0.00  0.00    +0.000 C 
ATOM     16  N   UNL     1      53.633   7.009   5.398  0.00  0.00    +0.000 NA
ATOM     17  C   UNL     1      53.537   6.725   6.708  0.00  0.00    +0.000 A 
ATOM     18  C   UNL     1      53.303   7.629   7.735  0.00  0.00    +0.000 A 
ATOM     19  C   UNL     1      53.252   6.887   8.960  0.00  0.00    +0.000 A 
ATOM     20  C   UNL     1      53.525   5.566   8.626  0.00  0.00    +0.000 A 
ATOM     21  N   UNL     1      53.678   5.482   7.268  0.00  0.00    +0.000 N 
ATOM     22  C   UNL     1      53.973   4.278   6.524  0.00  0.00    +0.000 C 
BRANCH  12  24
ATOM     23  C   UNL     1      54.176  10.797   8.429  0.00  0.00    +0.000 C 
ATOM     24  O   UNL     1      53.036   9.955   8.293  0.00  0.00    +0.000 OA
ENDBRANCH  12  24
ENDBRANCH   8  19
ENDBRANCH   7  10
ENDBRANCH   1   7
BRANCH   4  25
ATOM     25  C   UNL     1      45.738   8.289  12.914  0.00  0.00    +0.000 C 
BRANCH  25  26
ATOM     26  N   UNL     1      45.189   6.983  12.560  0.00  0.00    +0.000 NA
ATOM     27  H   UNL     1      44.320   6.831  13.073  0.00  0.00    +0.000 HD
BRANCH  26  28
ATOM     28  C   UNL     1      44.889   6.895  11.119  0.00  0.00    +0.000 C 
BRANCH  28  29
ATOM     29  C   UNL     1      44.813   5.455  10.627  0.00  0.00    +0.000 A 
ATOM     30  N   UNL     1      44.157   4.553  11.386  0.00  0.00    +0.000 NA
ATOM     31  C   UNL     1      44.053   3.294  10.915  0.00  0.00    +0.000 A 
ATOM     32  C   UNL     1      43.307   2.298  11.752  0.00  0.00    +0.000 C 
ATOM     33  C   UNL     1      44.604   2.914   9.711  0.00  0.00    +0.000 A 
ATOM     34  C   UNL     1      45.270   3.899   9.014  0.00  0.00    +0.000 A 
ATOM     35  N   UNL     1      45.398   5.172   9.447  0.00  0.00    +0.000 NA
BRANCH  34  36
ATOM     36  C   UNL     1      45.884   3.607   7.750  0.00  0.00    +0.000 C 
ATOM     37  N   UNL     1      46.422   3.364   6.745  0.00  0.00    +0.000 NA
ENDBRANCH  34  36
ENDBRANCH  28  29
ENDBRANCH  26  28
ENDBRANCH  25  26
ENDBRANCH   4  25
TORSDOF 9
ENDMDL
