MODEL 1
REMARK VINA RESULT:    -7.340      0.000      0.000
REMARK INTER + INTRA:         -11.623
REMARK INTER:                 -10.773
REMARK INTRA:                  -0.850
REMARK UNBOUND:                -0.850
REMARK  Name = 
REMARK  9 active torsions:
REMARK  status: ('A' for Active; 'I' for Inactive)
REMARK    1  A    between atoms: C_1  and  N_2
REMARK    2  A    between atoms: N_2  and  C_3
REMARK    3  A    between atoms: N_2  and  C_25
REMARK    4  A    between atoms: C_3  and  C_4
REMARK    5  A    between atoms: C_4  and  N_5
REMARK    6  A    between atoms: C_8  and  C_9
REMARK    7  A    between atoms: C_9  and  N_10
REMARK    8  A    between atoms: C_11  and  C_13
REMARK    9  A    between atoms: C_25  and  C_26
REMARK                            x       y       z     vdW  Elec       q    Type
REMARK                         _______ _______ _______ _____ _____    ______ ____
ROOT
ATOM      1  N   UNL     1      46.070   6.057  12.442  0.00  0.00    +0.000 NA
ATOM      2  C   UNL     1      45.498   7.361  12.810  0.00  0.00    +0.000 C 
ATOM      3  C   UNL     1      46.365   8.516  12.321  0.00  0.00    +0.000 C 
ATOM      4  C   UNL     1      47.793   8.419  12.865  0.00  0.00    +0.000 C 
ATOM      5  C   UNL     1      48.361   7.051  12.468  0.00  0.00    +0.000 C 
ATOM      6  C   UNL     1      47.454   5.900  12.921  0.00  0.00    +0.000 C 
ENDROOT
BRANCH   1   7
ATOM      7  C   UNL     1      45.236   4.944  12.957  0.00  0.00    +0.000 C 
BRANCH   7   8
ATOM      8  C   UNL     1      45.149   3.747  11.977  0.00  0.00    +0.000 C 
BRANCH   8  10
ATOM      9  C   UNL     1      43.410   4.779  10.626  0.00  0.00    +0.000 C 
ATOM     10  N   UNL     1      44.693   4.070  10.608  0.00  0.00    +0.000 NA
BRANCH  10  11
ATOM     11  C   UNL     1      44.569   2.793   9.855  0.00  0.00    +0.000 C 
BRANCH  11  12
ATOM     12  C   UNL     1      45.499   2.681   8.663  0.00  0.00    +0.000 A 
ATOM     13  C   UNL     1      46.068   1.453   8.331  0.00  0.00    +0.000 A 
ATOM     14  C   UNL     1      46.993   1.402   7.294  0.00  0.00    +0.000 A 
ATOM     15  C   UNL     1      47.316   2.571   6.613  0.00  0.00    +0.000 A 
ATOM     16  C   UNL     1      46.691   3.745   6.992  0.00  0.00    +0.000 A 
ATOM     17  N   UNL     1      45.793   3.828   7.997  0.00  0.00    +0.000 NA
ENDBRANCH  11  12
ENDBRANCH  10  11
ENDBRANCH   8  10
ENDBRANCH   7   8
ENDBRANCH   1   7
BRANCH   4  18
ATOM     18  C   UNL     1      47.872   8.620  14.388  0.00  0.00    +0.000 C 
BRANCH  18  19
ATOM     19  N   UNL     1      48.753   7.656  15.006  0.00  0.00    +0.000 N 
ATOM     20  C   UNL     1      48.977   7.592  16.358  0.00  0.00    +0.000 C 
ATOM     21  O   UNL     1      48.421   8.335  17.160  0.00  0.00    +0.000 OA
ATOM     22  H   UNL     1      49.321   7.097  14.380  0.00  0.00    +0.000 HD
BRANCH  20  23
ATOM     23  C   UNL     1      49.880   6.525  16.798  0.00  0.00    +0.000 A 
ATOM     24  C   UNL     1      51.190   6.827  17.150  0.00  0.00    +0.000 A 
ATOM     25  S   UNL     1      52.066   5.482  17.726  0.00  0.00    +0.000 S 
ATOM     26  C   UNL     1      50.744   4.440  17.467  0.00  0.00    +0.000 A 
ATOM     27  N   UNL     1      50.829   3.116  17.763  0.00  0.00    +0.000 NA
ATOM     28  C   UNL     1      49.769   2.436  17.479  0.00  0.00    +0.000 A 
ATOM     29  N   UNL     1      48.632   2.960  16.921  0.00  0.00    +0.000 N 
ATOM     30  C   UNL     1      48.481   4.299  16.655  0.00  0.00    +0.000 A 
ATOM     31  O   UNL     1      47.417   4.745  16.240  0.00  0.00    +0.000 OA
ATOM     32  C   UNL     1      49.650   5.109  16.950  0.00  0.00    +0.000 A 
ATOM     33  H   UNL     1      47.830   2.375  16.731  0.00  0.00    +0.000 HD
ENDBRANCH  20  23
ENDBRANCH  18  19
ENDBRANCH   4  18
TORSDOF 8
ENDMDL
MODEL 2
REMARK VINA RESULT:    -7.263      3.845      9.326
REMARK INTER + INTRA:         -11.510
REMARK INTER:                 -10.452
REMARK INTRA:                  -1.058
REMARK UNBOUND:                -0.850
REMARK  Name = 
REMARK  9 active torsions:
REMARK  status: ('A' for Active; 'I' for Inactive)
REMARK    1  A    between atoms: C_1  and  N_2
REMARK    2  A    between atoms: N_2  and  C_3
REMARK    3  A    between atoms: N_2  and  C_25
REMARK    4  A    between atoms: C_3  and  C_4
REMARK    5  A    between atoms: C_4  and  N_5
REMARK    6  A    between atoms: C_8  and  C_9
REMARK    7  A    between atoms: C_9  and  N_10
REMARK    8  A    between atoms: C_11  and  C_13
REMARK    9  A    between atoms: C_25  and  C_26
REMARK                            x       y       z     vdW  Elec       q    Type
REMARK                         _______ _______ _______ _____ _____    ______ ____
ROOT
ATOM      1  N   UNL     1      49.748   2.526  17.764  0.00  0.00    +0.000 NA
ATOM      2  C   UNL     1      50.075   3.916  18.117  0.00  0.00    +0.000 C 
ATOM      3  C   UNL     1      48.826   4.720  18.458  0.00  0.00    +0.000 C 
ATOM      4  C   UNL     1      47.819   4.715  17.305  0.00  0.00    +0.000 C 
ATOM      5  C   UNL     1      47.499   3.256  16.959  0.00  0.00    +0.000 C 
ATOM      6  C   UNL     1      48.768   2.445  16.667  0.00  0.00    +0.000 C 
ENDROOT
BRANCH   1   7
ATOM      7  C   UNL     1      50.968   1.767  17.397  0.00  0.00    +0.000 C 
BRANCH   7   8
ATOM      8  C   UNL     1      52.277   2.504  17.774  0.00  0.00    +0.000 C 
BRANCH   8  10
ATOM      9  C   UNL     1      54.007   2.586  19.482  0.00  0.00    +0.000 C 
ATOM     10  N   UNL     1      53.248   1.723  18.572  0.00  0.00    +0.000 NA
BRANCH  10  11
ATOM     11  C   UNL     1      54.165   1.032  17.626  0.00  0.00    +0.000 C 
BRANCH  11  12
ATOM     12  C   UNL     1      54.335  -0.450  17.896  0.00  0.00    +0.000 A 
ATOM     13  C   UNL     1      54.962  -1.266  16.957  0.00  0.00    +0.000 A 
ATOM     14  C   UNL     1      55.015  -2.636  17.189  0.00  0.00    +0.000 A 
ATOM     15  C   UNL     1      54.452  -3.151  18.352  0.00  0.00    +0.000 A 
ATOM     16  C   UNL     1      53.866  -2.269  19.243  0.00  0.00    +0.000 A 
ATOM     17  N   UNL     1      53.794  -0.936  19.044  0.00  0.00    +0.000 NA
ENDBRANCH  11  12
ENDBRANCH  10  11
ENDBRANCH   8  10
ENDBRANCH   7   8
ENDBRANCH   1   7
BRANCH   4  18
ATOM     18  C   UNL     1      48.322   5.472  16.064  0.00  0.00    +0.000 C 
BRANCH  18  19
ATOM     19  N   UNL     1      47.279   5.618  15.074  0.00  0.00    +0.000 N 
ATOM     20  C   UNL     1      47.521   5.944  13.763  0.00  0.00    +0.000 C 
ATOM     21  O   UNL     1      48.651   6.111  13.316  0.00  0.00    +0.000 OA
ATOM     22  H   UNL     1      46.325   5.603  15.415  0.00  0.00    +0.000 HD
BRANCH  20  23
ATOM     23  C   UNL     1      46.337   6.015  12.902  0.00  0.00    +0.000 A 
ATOM     24  C   UNL     1      45.877   7.248  12.455  0.00  0.00    +0.000 A 
ATOM     25  S   UNL     1      44.551   7.135  11.391  0.00  0.00    +0.000 S 
ATOM     26  C   UNL     1      44.506   5.438  11.539  0.00  0.00    +0.000 A 
ATOM     27  N   UNL     1      43.583   4.702  10.866  0.00  0.00    +0.000 NA
ATOM     28  C   UNL     1      43.636   3.434  11.103  0.00  0.00    +0.000 A 
ATOM     29  N   UNL     1      44.527   2.835  11.955  0.00  0.00    +0.000 N 
ATOM     30  C   UNL     1      45.511   3.532  12.614  0.00  0.00    +0.000 A 
ATOM     31  O   UNL     1      46.347   2.951  13.297  0.00  0.00    +0.000 OA
ATOM     32  C   UNL     1      45.490   4.966  12.388  0.00  0.00    +0.000 A 
ATOM     33  H   UNL     1      44.524   1.834  12.090  0.00  0.00    +0.000 HD
ENDBRANCH  20  23
ENDBRANCH  18  19
ENDBRANCH   4  18
TORSDOF 8
ENDMDL
MODEL 3
REMARK VINA RESULT:    -7.201      1.531      2.156
REMARK INTER + INTRA:         -11.419
REMARK INTER:                 -10.532
REMARK INTRA:                  -0.887
REMARK UNBOUND:                -0.850
REMARK  Name = 
REMARK  9 active torsions:
REMARK  status: ('A' for Active; 'I' for Inactive)
REMARK    1  A    between atoms: C_1  and  N_2
REMARK    2  A    between atoms: N_2  and  C_3
REMARK    3  A    between atoms: N_2  and  C_25
REMARK    4  A    between atoms: C_3  and  C_4
REMARK    5  A    between atoms: C_4  and  N_5
REMARK    6  A    between atoms: C_8  and  C_9
REMARK    7  A    between atoms: C_9  and  N_10
REMARK    8  A    between atoms: C_11  and  C_13
REMARK    9  A    between atoms: C_25  and  C_26
REMARK                            x       y       z     vdW  Elec       q    Type
REMARK                         _______ _______ _______ _____ _____    ______ ____
ROOT
ATOM      1  N   UNL     1      46.347   7.309  12.664  0.00  0.00    +0.000 NA
ATOM      2  C   UNL     1      46.613   8.526  13.446  0.00  0.00    +0.000 C 
ATOM      3  C   UNL     1      48.091   8.900  13.422  0.00  0.00    +0.000 C 
ATOM      4  C   UNL     1      48.970   7.760  13.945  0.00  0.00    +0.000 C 
ATOM      5  C   UNL     1      48.670   6.507  13.114  0.00  0.00    +0.000 C 
ATOM      6  C   UNL     1      47.173   6.172  13.105  0.00  0.00    +0.000 C 
ENDROOT
BRANCH   1   7
ATOM      7  C   UNL     1      44.913   6.936  12.729  0.00  0.00    +0.000 C 
BRANCH   7   8
ATOM      8  C   UNL     1      44.233   6.895  11.338  0.00  0.00    +0.000 C 
BRANCH   8  10
ATOM      9  C   UNL     1      42.323   5.454  11.771  0.00  0.00    +0.000 C 
ATOM     10  N   UNL     1      43.553   5.628  10.993  0.00  0.00    +0.000 NA
BRANCH  10  11
ATOM     11  C   UNL     1      44.499   4.512  11.261  0.00  0.00    +0.000 C 
BRANCH  11  12
ATOM     12  C   UNL     1      45.042   3.844  10.014  0.00  0.00    +0.000 A 
ATOM     13  C   UNL     1      45.555   4.615   8.973  0.00  0.00    +0.000 A 
ATOM     14  C   UNL     1      45.955   3.979   7.802  0.00  0.00    +0.000 A 
ATOM     15  C   UNL     1      45.842   2.596   7.707  0.00  0.00    +0.000 A 
ATOM     16  C   UNL     1      45.342   1.903   8.795  0.00  0.00    +0.000 A 
ATOM     17  N   UNL     1      44.941   2.491   9.941  0.00  0.00    +0.000 NA
ENDBRANCH  11  12
ENDBRANCH  10  11
ENDBRANCH   8  10
ENDBRANCH   7   8
ENDBRANCH   1   7
BRANCH   4  18
ATOM     18  C   UNL     1      48.765   7.483  15.444  0.00  0.00    +0.000 C 
BRANCH  18  19
ATOM     19  N   UNL     1      49.813   6.641  15.975  0.00  0.00    +0.000 N 
ATOM     20  C   UNL     1      49.686   5.912  17.130  0.00  0.00    +0.000 C 
ATOM     21  O   UNL     1      48.656   5.894  17.796  0.00  0.00    +0.000 OA
ATOM     22  H   UNL     1      50.719   6.709  15.527  0.00  0.00    +0.000 HD
BRANCH  20  23
ATOM     23  C   UNL     1      50.847   5.093  17.491  0.00  0.00    +0.000 A 
ATOM     24  C   UNL     1      52.003   5.700  17.967  0.00  0.00    +0.000 A 
ATOM     25  S   UNL     1      53.213   4.591  18.424  0.00  0.00    +0.000 S 
ATOM     26  C   UNL     1      52.258   3.264  17.944  0.00  0.00    +0.000 A 
ATOM     27  N   UNL     1      52.715   1.990  18.074  0.00  0.00    +0.000 NA
ATOM     28  C   UNL     1      51.906   1.086  17.633  0.00  0.00    +0.000 A 
ATOM     29  N   UNL     1      50.682   1.341  17.070  0.00  0.00    +0.000 N 
ATOM     30  C   UNL     1      50.157   2.606  16.969  0.00  0.00    +0.000 A 
ATOM     31  O   UNL     1      49.022   2.787  16.543  0.00  0.00    +0.000 OA
ATOM     32  C   UNL     1      51.032   3.663  17.444  0.00  0.00    +0.000 A 
ATOM     33  H   UNL     1      50.090   0.587  16.753  0.00  0.00    +0.000 HD
ENDBRANCH  20  23
ENDBRANCH  18  19
ENDBRANCH   4  18
TORSDOF 8
ENDMDL
MODEL 4
REMARK VINA RESULT:    -7.095      3.060      7.995
REMARK INTER + INTRA:         -11.263
REMARK INTER:                  -9.831
REMARK INTRA:                  -1.432
REMARK UNBOUND:                -0.850
REMARK  Name = 
REMARK  9 active torsions:
REMARK  status: ('A' for Active; 'I' for Inactive)
REMARK    1  A    between atoms: C_1  and  N_2
REMARK    2  A    between atoms: N_2  and  C_3
REMARK    3  A    between atoms: N_2  and  C_25
REMARK    4  A    between atoms: C_3  and  C_4
REMARK    5  A    between atoms: C_4  and  N_5
REMARK    6  A    between atoms: C_8  and  C_9
REMARK    7  A    between atoms: C_9  and  N_10
REMARK    8  A    between atoms: C_11  and  C_13
REMARK    9  A    between atoms: C_25  and  C_26
REMARK                            x       y       z     vdW  Elec       q    Type
REMARK                         _______ _______ _______ _____ _____    ______ ____
ROOT
ATOM      1  N   UNL     1      49.931   8.655  13.857  0.00  0.00    +0.000 NA
ATOM      2  C   UNL     1      49.404   7.369  13.377  0.00  0.00    +0.000 C 
ATOM      3  C   UNL     1      48.696   7.516  12.035  0.00  0.00    +0.000 C 
ATOM      4  C   UNL     1      47.556   8.535  12.106  0.00  0.00    +0.000 C 
ATOM      5  C   UNL     1      48.135   9.862  12.610  0.00  0.00    +0.000 C 
ATOM      6  C   UNL     1      48.888   9.692  13.935  0.00  0.00    +0.000 C 
ENDROOT
BRANCH   1   7
ATOM      7  C   UNL     1      50.582   8.504  15.181  0.00  0.00    +0.000 C 
BRANCH   7   8
ATOM      8  C   UNL     1      49.666   8.922  16.359  0.00  0.00    +0.000 C 
BRANCH   8  10
ATOM      9  C   UNL     1      48.710   8.168  18.464  0.00  0.00    +0.000 C 
ATOM     10  N   UNL     1      48.986   7.817  17.067  0.00  0.00    +0.000 NA
BRANCH  10  11
ATOM     11  C   UNL     1      49.865   6.619  16.998  0.00  0.00    +0.000 C 
BRANCH  11  12
ATOM     12  C   UNL     1      49.120   5.299  17.010  0.00  0.00    +0.000 A 
ATOM     13  C   UNL     1      49.484   4.297  17.907  0.00  0.00    +0.000 A 
ATOM     14  C   UNL     1      48.848   3.063  17.827  0.00  0.00    +0.000 A 
ATOM     15  C   UNL     1      47.861   2.867  16.867  0.00  0.00    +0.000 A 
ATOM     16  C   UNL     1      47.544   3.921  16.029  0.00  0.00    +0.000 A 
ATOM     17  N   UNL     1      48.147   5.128  16.077  0.00  0.00    +0.000 NA
ENDBRANCH  11  12
ENDBRANCH  10  11
ENDBRANCH   8  10
ENDBRANCH   7   8
ENDBRANCH   1   7
BRANCH   4  18
ATOM     18  C   UNL     1      46.392   8.074  12.999  0.00  0.00    +0.000 C 
BRANCH  18  19
ATOM     19  N   UNL     1      45.915   6.765  12.614  0.00  0.00    +0.000 N 
ATOM     20  C   UNL     1      44.841   6.565  11.785  0.00  0.00    +0.000 C 
ATOM     21  O   UNL     1      44.211   7.487  11.276  0.00  0.00    +0.000 OA
ATOM     22  H   UNL     1      46.327   5.974  13.094  0.00  0.00    +0.000 HD
BRANCH  20  23
ATOM     23  C   UNL     1      44.527   5.165  11.484  0.00  0.00    +0.000 A 
ATOM     24  C   UNL     1      43.802   4.406  12.394  0.00  0.00    +0.000 A 
ATOM     25  S   UNL     1      43.451   2.833  11.840  0.00  0.00    +0.000 S 
ATOM     26  C   UNL     1      44.309   3.092  10.391  0.00  0.00    +0.000 A 
ATOM     27  N   UNL     1      44.398   2.117   9.448  0.00  0.00    +0.000 NA
ATOM     28  C   UNL     1      45.112   2.433   8.420  0.00  0.00    +0.000 A 
ATOM     29  N   UNL     1      45.748   3.635   8.251  0.00  0.00    +0.000 N 
ATOM     30  C   UNL     1      45.640   4.668   9.150  0.00  0.00    +0.000 A 
ATOM     31  O   UNL     1      46.149   5.760   8.922  0.00  0.00    +0.000 OA
ATOM     32  C   UNL     1      44.854   4.361  10.331  0.00  0.00    +0.000 A 
ATOM     33  H   UNL     1      46.284   3.826   7.416  0.00  0.00    +0.000 HD
ENDBRANCH  20  23
ENDBRANCH  18  19
ENDBRANCH   4  18
TORSDOF 8
ENDMDL
MODEL 5
REMARK VINA RESULT:    -7.057      3.284      9.117
REMARK INTER + INTRA:         -11.208
REMARK INTER:                  -9.608
REMARK INTRA:                  -1.600
REMARK UNBOUND:                -0.850
REMARK  Name = 
REMARK  9 active torsions:
REMARK  status: ('A' for Active; 'I' for Inactive)
REMARK    1  A    between atoms: C_1  and  N_2
REMARK    2  A    between atoms: N_2  and  C_3
REMARK    3  A    between atoms: N_2  and  C_25
REMARK    4  A    between atoms: C_3  and  C_4
REMARK    5  A    between atoms: C_4  and  N_5
REMARK    6  A    between atoms: C_8  and  C_9
REMARK    7  A    between atoms: C_9  and  N_10
REMARK    8  A    between atoms: C_11  and  C_13
REMARK    9  A    between atoms: C_25  and  C_26
REMARK                            x       y       z     vdW  Elec       q    Type
REMARK                         _______ _______ _______ _____ _____    ______ ____
ROOT
ATOM      1  N   UNL     1      49.738   2.468  17.421  0.00  0.00    +0.000 NA
ATOM      2  C   UNL     1      50.353   3.763  17.749  0.00  0.00    +0.000 C 
ATOM      3  C   UNL     1      49.335   4.739  18.330  0.00  0.00    +0.000 C 
ATOM      4  C   UNL     1      48.161   4.964  17.373  0.00  0.00    +0.000 C 
ATOM      5  C   UNL     1      47.543   3.599  17.048  0.00  0.00    +0.000 C 
ATOM      6  C   UNL     1      48.587   2.611  16.514  0.00  0.00    +0.000 C 
ENDROOT
BRANCH   1   7
ATOM      7  C   UNL     1      50.731   1.543  16.823  0.00  0.00    +0.000 C 
BRANCH   7   8
ATOM      8  C   UNL     1      51.790   1.048  17.839  0.00  0.00    +0.000 C 
BRANCH   8  10
ATOM      9  C   UNL     1      53.925   0.221  17.019  0.00  0.00    +0.000 C 
ATOM     10  N   UNL     1      53.194   1.388  17.522  0.00  0.00    +0.000 NA
BRANCH  10  11
ATOM     11  C   UNL     1      53.831   1.904  18.763  0.00  0.00    +0.000 C 
BRANCH  11  12
ATOM     12  C   UNL     1      53.675   3.398  18.968  0.00  0.00    +0.000 A 
ATOM     13  C   UNL     1      53.215   3.894  20.186  0.00  0.00    +0.000 A 
ATOM     14  C   UNL     1      52.989   5.260  20.311  0.00  0.00    +0.000 A 
ATOM     15  C   UNL     1      53.236   6.092  19.224  0.00  0.00    +0.000 A 
ATOM     16  C   UNL     1      53.711   5.522  18.056  0.00  0.00    +0.000 A 
ATOM     17  N   UNL     1      53.936   4.200  17.903  0.00  0.00    +0.000 NA
ENDBRANCH  11  12
ENDBRANCH  10  11
ENDBRANCH   8  10
ENDBRANCH   7   8
ENDBRANCH   1   7
BRANCH   4  18
ATOM     18  C   UNL     1      48.567   5.699  16.085  0.00  0.00    +0.000 C 
BRANCH  18  19
ATOM     19  N   UNL     1      47.474   5.758  15.141  0.00  0.00    +0.000 N 
ATOM     20  C   UNL     1      47.633   6.084  13.818  0.00  0.00    +0.000 C 
ATOM     21  O   UNL     1      48.727   6.326  13.319  0.00  0.00    +0.000 OA
ATOM     22  H   UNL     1      46.540   5.679  15.525  0.00  0.00    +0.000 HD
BRANCH  20  23
ATOM     23  C   UNL     1      46.410   6.060  13.011  0.00  0.00    +0.000 A 
ATOM     24  C   UNL     1      45.861   7.249  12.546  0.00  0.00    +0.000 A 
ATOM     25  S   UNL     1      44.498   7.025  11.549  0.00  0.00    +0.000 S 
ATOM     26  C   UNL     1      44.556   5.335  11.753  0.00  0.00    +0.000 A 
ATOM     27  N   UNL     1      43.648   4.526  11.147  0.00  0.00    +0.000 NA
ATOM     28  C   UNL     1      43.783   3.272  11.422  0.00  0.00    +0.000 A 
ATOM     29  N   UNL     1      44.745   2.753  12.250  0.00  0.00    +0.000 N 
ATOM     30  C   UNL     1      45.715   3.526  12.840  0.00  0.00    +0.000 A 
ATOM     31  O   UNL     1      46.612   3.016  13.503  0.00  0.00    +0.000 OA
ATOM     32  C   UNL     1      45.603   4.948  12.570  0.00  0.00    +0.000 A 
ATOM     33  H   UNL     1      44.805   1.759  12.417  0.00  0.00    +0.000 HD
ENDBRANCH  20  23
ENDBRANCH  18  19
ENDBRANCH   4  18
TORSDOF 8
ENDMDL
MODEL 6
REMARK VINA RESULT:    -6.927      3.359      8.392
REMARK INTER + INTRA:         -11.017
REMARK INTER:                  -9.051
REMARK INTRA:                  -1.966
REMARK UNBOUND:                -0.850
REMARK  Name = 
REMARK  9 active torsions:
REMARK  status: ('A' for Active; 'I' for Inactive)
REMARK    1  A    between atoms: C_1  and  N_2
REMARK    2  A    between atoms: N_2  and  C_3
REMARK    3  A    between atoms: N_2  and  C_25
REMARK    4  A    between atoms: C_3  and  C_4
REMARK    5  A    between atoms: C_4  and  N_5
REMARK    6  A    between atoms: C_8  and  C_9
REMARK    7  A    between atoms: C_9  and  N_10
REMARK    8  A    between atoms: C_11  and  C_13
REMARK    9  A    between atoms: C_25  and  C_26
REMARK                            x       y       z     vdW  Elec       q    Type
REMARK                         _______ _______ _______ _____ _____    ______ ____
ROOT
ATOM      1  N   UNL     1      48.475   4.927  19.539  0.00  0.00    +0.000 NA
ATOM      2  C   UNL     1      47.257   5.138  18.742  0.00  0.00    +0.000 C 
ATOM      3  C   UNL     1      47.135   4.115  17.617  0.00  0.00    +0.000 C 
ATOM      4  C   UNL     1      48.356   4.144  16.693  0.00  0.00    +0.000 C 
ATOM      5  C   UNL     1      49.607   3.924  17.552  0.00  0.00    +0.000 C 
ATOM      6  C   UNL     1      49.692   4.926  18.709  0.00  0.00    +0.000 C 
ENDROOT
BRANCH   1   7
ATOM      7  C   UNL     1      48.599   5.952  20.603  0.00  0.00    +0.000 C 
BRANCH   7   8
ATOM      8  C   UNL     1      47.607   7.130  20.431  0.00  0.00    +0.000 C 
BRANCH   8  10
ATOM      9  C   UNL     1      47.958   9.479  20.950  0.00  0.00    +0.000 C 
ATOM     10  N   UNL     1      48.199   8.408  19.979  0.00  0.00    +0.000 NA
BRANCH  10  11
ATOM     11  C   UNL     1      47.594   8.753  18.665  0.00  0.00    +0.000 C 
BRANCH  11  12
ATOM     12  C   UNL     1      48.582   8.789  17.516  0.00  0.00    +0.000 A 
ATOM     13  C   UNL     1      48.168   9.196  16.249  0.00  0.00    +0.000 A 
ATOM     14  C   UNL     1      49.073   9.125  15.194  0.00  0.00    +0.000 A 
ATOM     15  C   UNL     1      50.362   8.663  15.434  0.00  0.00    +0.000 A 
ATOM     16  C   UNL     1      50.698   8.298  16.726  0.00  0.00    +0.000 A 
ATOM     17  N   UNL     1      49.843   8.351  17.769  0.00  0.00    +0.000 NA
ENDBRANCH  11  12
ENDBRANCH  10  11
ENDBRANCH   8  10
ENDBRANCH   7   8
ENDBRANCH   1   7
BRANCH   4  18
ATOM     18  C   UNL     1      48.470   5.449  15.888  0.00  0.00    +0.000 C 
BRANCH  18  19
ATOM     19  N   UNL     1      47.375   5.594  14.956  0.00  0.00    +0.000 N 
ATOM     20  C   UNL     1      47.537   5.988  13.652  0.00  0.00    +0.000 C 
ATOM     21  O   UNL     1      48.636   6.223  13.160  0.00  0.00    +0.000 OA
ATOM     22  H   UNL     1      46.440   5.523  15.342  0.00  0.00    +0.000 HD
BRANCH  20  23
ATOM     23  C   UNL     1      46.310   6.047  12.853  0.00  0.00    +0.000 A 
ATOM     24  C   UNL     1      45.827   7.273  12.412  0.00  0.00    +0.000 A 
ATOM     25  S   UNL     1      44.448   7.143  11.420  0.00  0.00    +0.000 S 
ATOM     26  C   UNL     1      44.411   5.449  11.596  0.00  0.00    +0.000 A 
ATOM     27  N   UNL     1      43.455   4.703  10.982  0.00  0.00    +0.000 NA
ATOM     28  C   UNL     1      43.521   3.439  11.235  0.00  0.00    +0.000 A 
ATOM     29  N   UNL     1      44.456   2.853  12.048  0.00  0.00    +0.000 N 
ATOM     30  C   UNL     1      45.472   3.559  12.644  0.00  0.00    +0.000 A 
ATOM     31  O   UNL     1      46.343   2.988  13.292  0.00  0.00    +0.000 OA
ATOM     32  C   UNL     1      45.439   4.990  12.399  0.00  0.00    +0.000 A 
ATOM     33  H   UNL     1      44.461   1.854  12.198  0.00  0.00    +0.000 HD
ENDBRANCH  20  23
ENDBRANCH  18  19
ENDBRANCH   4  18
TORSDOF 8
ENDMDL
MODEL 7
REMARK VINA RESULT:    -6.736      3.284      8.943
REMARK INTER + INTRA:         -10.737
REMARK INTER:                  -9.621
REMARK INTRA:                  -1.116
REMARK UNBOUND:                -0.850
REMARK  Name = 
REMARK  9 active torsions:
REMARK  status: ('A' for Active; 'I' for Inactive)
REMARK    1  A    between atoms: C_1  and  N_2
REMARK    2  A    between atoms: N_2  and  C_3
REMARK    3  A    between atoms: N_2  and  C_25
REMARK    4  A    between atoms: C_3  and  C_4
REMARK    5  A    between atoms: C_4  and  N_5
REMARK    6  A    between atoms: C_8  and  C_9
REMARK    7  A    between atoms: C_9  and  N_10
REMARK    8  A    between atoms: C_11  and  C_13
REMARK    9  A    between atoms: C_25  and  C_26
REMARK                            x       y       z     vdW  Elec       q    Type
REMARK                         _______ _______ _______ _____ _____    ______ ____
ROOT
ATOM      1  N   UNL     1      49.094   4.919  19.763  0.00  0.00    +0.000 NA
ATOM      2  C   UNL     1      48.304   5.983  19.124  0.00  0.00    +0.000 C 
ATOM      3  C   UNL     1      47.010   5.443  18.525  0.00  0.00    +0.000 C 
ATOM      4  C   UNL     1      47.281   4.332  17.506  0.00  0.00    +0.000 C 
ATOM      5  C   UNL     1      48.106   3.241  18.199  0.00  0.00    +0.000 C 
ATOM      6  C   UNL     1      49.379   3.807  18.841  0.00  0.00    +0.000 C 
ENDROOT
BRANCH   1   7
ATOM      7  C   UNL     1      50.367   5.453  20.306  0.00  0.00    +0.000 C 
BRANCH   7   8
ATOM      8  C   UNL     1      51.407   5.779  19.205  0.00  0.00    +0.000 C 
BRANCH   8  10
ATOM      9  C   UNL     1      53.782   5.757  19.726  0.00  0.00    +0.000 C 
ATOM     10  N   UNL     1      52.646   4.973  19.233  0.00  0.00    +0.000 NA
BRANCH  10  11
ATOM     11  C   UNL     1      52.910   4.492  17.850  0.00  0.00    +0.000 C 
BRANCH  11  12
ATOM     12  C   UNL     1      53.314   3.033  17.766  0.00  0.00    +0.000 A 
ATOM     13  C   UNL     1      54.648   2.687  17.559  0.00  0.00    +0.000 A 
ATOM     14  C   UNL     1      54.973   1.345  17.388  0.00  0.00    +0.000 A 
ATOM     15  C   UNL     1      53.964   0.389  17.439  0.00  0.00    +0.000 A 
ATOM     16  C   UNL     1      52.668   0.816  17.670  0.00  0.00    +0.000 A 
ATOM     17  N   UNL     1      52.320   2.109  17.834  0.00  0.00    +0.000 NA
ENDBRANCH  11  12
ENDBRANCH  10  11
ENDBRANCH   8  10
ENDBRANCH   7   8
ENDBRANCH   1   7
BRANCH   4  18
ATOM     18  C   UNL     1      47.998   4.838  16.242  0.00  0.00    +0.000 C 
BRANCH  18  19
ATOM     19  N   UNL     1      47.061   5.119  15.178  0.00  0.00    +0.000 N 
ATOM     20  C   UNL     1      47.405   5.763  14.017  0.00  0.00    +0.000 C 
ATOM     21  O   UNL     1      48.550   6.129  13.773  0.00  0.00    +0.000 OA
ATOM     22  H   UNL     1      46.083   4.940  15.377  0.00  0.00    +0.000 HD
BRANCH  20  23
ATOM     23  C   UNL     1      46.322   5.929  13.043  0.00  0.00    +0.000 A 
ATOM     24  C   UNL     1      45.957   7.202  12.623  0.00  0.00    +0.000 A 
ATOM     25  S   UNL     1      44.748   7.201  11.421  0.00  0.00    +0.000 S 
ATOM     26  C   UNL     1      44.628   5.502  11.465  0.00  0.00    +0.000 A 
ATOM     27  N   UNL     1      43.757   4.841  10.658  0.00  0.00    +0.000 NA
ATOM     28  C   UNL     1      43.740   3.561  10.825  0.00  0.00    +0.000 A 
ATOM     29  N   UNL     1      44.514   2.882  11.729  0.00  0.00    +0.000 N 
ATOM     30  C   UNL     1      45.446   3.501  12.526  0.00  0.00    +0.000 A 
ATOM     31  O   UNL     1      46.183   2.850  13.258  0.00  0.00    +0.000 OA
ATOM     32  C   UNL     1      45.500   4.945  12.383  0.00  0.00    +0.000 A 
ATOM     33  H   UNL     1      44.462   1.876  11.804  0.00  0.00    +0.000 HD
ENDBRANCH  20  23
ENDBRANCH  18  19
ENDBRANCH   4  18
TORSDOF 8
ENDMDL
MODEL 8
REMARK VINA RESULT:    -6.731      3.081      4.235
REMARK INTER + INTRA:         -10.729
REMARK INTER:                 -10.193
REMARK INTRA:                  -0.536
REMARK UNBOUND:                -0.850
REMARK  Name = 
REMARK  9 active torsions:
REMARK  status: ('A' for Active; 'I' for Inactive)
REMARK    1  A    between atoms: C_1  and  N_2
REMARK    2  A    between atoms: N_2  and  C_3
REMARK    3  A    between atoms: N_2  and  C_25
REMARK    4  A    between atoms: C_3  and  C_4
REMARK    5  A    between atoms: C_4  and  N_5
REMARK    6  A    between atoms: C_8  and  C_9
REMARK    7  A    between atoms: C_9  and  N_10
REMARK    8  A    between atoms: C_11  and  C_13
REMARK    9  A    between atoms: C_25  and  C_26
REMARK                            x       y       z     vdW  Elec       q    Type
REMARK                         _______ _______ _______ _____ _____    ______ ____
ROOT
ATOM      1  N   UNL     1      44.577   4.187  13.091  0.00  0.00    +0.000 NA
ATOM      2  C   UNL     1      46.034   4.015  13.191  0.00  0.00    +0.000 C 
ATOM      3  C   UNL     1      46.689   5.172  13.937  0.00  0.00    +0.000 C 
ATOM      4  C   UNL     1      46.383   6.517  13.273  0.00  0.00    +0.000 C 
ATOM      5  C   UNL     1      44.860   6.667  13.180  0.00  0.00    +0.000 C 
ATOM      6  C   UNL     1      44.209   5.473  12.473  0.00  0.00    +0.000 C 
ENDROOT
BRANCH   1   7
ATOM      7  C   UNL     1      43.959   3.075  12.330  0.00  0.00    +0.000 C 
BRANCH   7   8
ATOM      8  C   UNL     1      43.692   3.430  10.845  0.00  0.00    +0.000 C 
BRANCH   8  10
ATOM      9  C   UNL     1      45.191   4.790   9.498  0.00  0.00    +0.000 C 
ATOM     10  N   UNL     1      44.877   3.435   9.962  0.00  0.00    +0.000 NA
BRANCH  10  11
ATOM     11  C   UNL     1      44.590   2.544   8.805  0.00  0.00    +0.000 C 
BRANCH  11  12
ATOM     12  C   UNL     1      45.758   2.360   7.857  0.00  0.00    +0.000 A 
ATOM     13  C   UNL     1      45.934   3.231   6.784  0.00  0.00    +0.000 A 
ATOM     14  C   UNL     1      46.957   2.978   5.877  0.00  0.00    +0.000 A 
ATOM     15  C   UNL     1      47.780   1.874   6.070  0.00  0.00    +0.000 A 
ATOM     16  C   UNL     1      47.550   1.070   7.172  0.00  0.00    +0.000 A 
ATOM     17  N   UNL     1      46.563   1.286   8.068  0.00  0.00    +0.000 NA
ENDBRANCH  11  12
ENDBRANCH  10  11
ENDBRANCH   8  10
ENDBRANCH   7   8
ENDBRANCH   1   7
BRANCH   4  18
ATOM     18  C   UNL     1      47.030   6.663  11.885  0.00  0.00    +0.000 C 
BRANCH  18  19
ATOM     19  N   UNL     1      48.380   7.170  11.980  0.00  0.00    +0.000 N 
ATOM     20  C   UNL     1      48.691   8.506  11.948  0.00  0.00    +0.000 C 
ATOM     21  O   UNL     1      47.840   9.386  11.864  0.00  0.00    +0.000 OA
ATOM     22  H   UNL     1      49.125   6.485  11.936  0.00  0.00    +0.000 HD
BRANCH  20  23
ATOM     23  C   UNL     1      50.114   8.826  12.090  0.00  0.00    +0.000 A 
ATOM     24  C   UNL     1      50.748   9.608  11.132  0.00  0.00    +0.000 A 
ATOM     25  S   UNL     1      52.374   9.956  11.506  0.00  0.00    +0.000 S 
ATOM     26  C   UNL     1      52.304   9.024  12.930  0.00  0.00    +0.000 A 
ATOM     27  N   UNL     1      53.389   8.904  13.741  0.00  0.00    +0.000 NA
ATOM     28  C   UNL     1      53.209   8.135  14.762  0.00  0.00    +0.000 A 
ATOM     29  N   UNL     1      52.043   7.473  15.045  0.00  0.00    +0.000 N 
ATOM     30  C   UNL     1      50.906   7.608  14.285  0.00  0.00    +0.000 A 
ATOM     31  O   UNL     1      49.856   7.071  14.620  0.00  0.00    +0.000 OA
ATOM     32  C   UNL     1      51.057   8.456  13.117  0.00  0.00    +0.000 A 
ATOM     33  H   UNL     1      51.962   6.893  15.868  0.00  0.00    +0.000 HD
ENDBRANCH  20  23
ENDBRANCH  18  19
ENDBRANCH   4  18
TORSDOF 8
ENDMDL
MODEL 9
REMARK VINA RESULT:    -6.698      3.389      7.663
REMARK INTER + INTRA:         -10.681
REMARK INTER:                  -9.238
REMARK INTRA:                  -1.444
REMARK UNBOUND:                -0.850
REMARK  Name = 
REMARK  9 active torsions:
REMARK  status: ('A' for Active; 'I' for Inactive)
REMARK    1  A    between atoms: C_1  and  N_2
REMARK    2  A    between atoms: N_2  and  C_3
REMARK    3  A    between atoms: N_2  and  C_25
REMARK    4  A    between atoms: C_3  and  C_4
REMARK    5  A    between atoms: C_4  and  N_5
REMARK    6  A    between atoms: C_8  and  C_9
REMARK    7  A    between atoms: C_9  and  N_10
REMARK    8  A    between atoms: C_11  and  C_13
REMARK    9  A    between atoms: C_25  and  C_26
REMARK                            x       y       z     vdW  Elec       q    Type
REMARK                         _______ _______ _______ _____ _____    ______ ____
ROOT
ATOM      1  N   UNL     1      49.570   9.956  15.215  0.00  0.00    +0.000 NA
ATOM      2  C   UNL     1      50.732   9.199  14.726  0.00  0.00    +0.000 C 
ATOM      3  C   UNL     1      50.883   9.313  13.213  0.00  0.00    +0.000 C 
ATOM      4  C   UNL     1      49.625   8.835  12.483  0.00  0.00    +0.000 C 
ATOM      5  C   UNL     1      48.432   9.638  13.015  0.00  0.00    +0.000 C 
ATOM      6  C   UNL     1      48.322   9.557  14.543  0.00  0.00    +0.000 C 
ENDROOT
BRANCH   1   7
ATOM      7  C   UNL     1      49.414   9.804  16.682  0.00  0.00    +0.000 C 
BRANCH   7   8
ATOM      8  C   UNL     1      48.369   8.729  17.074  0.00  0.00    +0.000 C 
BRANCH   8  10
ATOM      9  C   UNL     1      49.527   8.437  19.192  0.00  0.00    +0.000 C 
ATOM     10  N   UNL     1      48.796   7.767  18.113  0.00  0.00    +0.000 NA
BRANCH  10  11
ATOM     11  C   UNL     1      49.655   6.742  17.462  0.00  0.00    +0.000 C 
BRANCH  11  12
ATOM     12  C   UNL     1      49.074   5.341  17.479  0.00  0.00    +0.000 A 
ATOM     13  C   UNL     1      49.915   4.233  17.393  0.00  0.00    +0.000 A 
ATOM     14  C   UNL     1      49.346   2.966  17.312  0.00  0.00    +0.000 A 
ATOM     15  C   UNL     1      47.962   2.840  17.331  0.00  0.00    +0.000 A 
ATOM     16  C   UNL     1      47.200   3.990  17.441  0.00  0.00    +0.000 A 
ATOM     17  N   UNL     1      47.721   5.232  17.515  0.00  0.00    +0.000 NA
ENDBRANCH  11  12
ENDBRANCH  10  11
ENDBRANCH   8  10
ENDBRANCH   7   8
ENDBRANCH   1   7
BRANCH   4  18
ATOM     18  C   UNL     1      49.377   7.325  12.638  0.00  0.00    +0.000 C 
BRANCH  18  19
ATOM     19  N   UNL     1      48.043   6.960  12.220  0.00  0.00    +0.000 N 
ATOM     20  C   UNL     1      47.172   6.248  13.005  0.00  0.00    +0.000 C 
ATOM     21  O   UNL     1      47.446   5.884  14.144  0.00  0.00    +0.000 OA
ATOM     22  H   UNL     1      47.809   7.137  11.250  0.00  0.00    +0.000 HD
BRANCH  20  23
ATOM     23  C   UNL     1      45.851   6.002  12.419  0.00  0.00    +0.000 A 
ATOM     24  C   UNL     1      45.117   7.058  11.894  0.00  0.00    +0.000 A 
ATOM     25  S   UNL     1      43.651   6.576  11.173  0.00  0.00    +0.000 S 
ATOM     26  C   UNL     1      43.917   4.946  11.591  0.00  0.00    +0.000 A 
ATOM     27  N   UNL     1      43.018   3.982  11.256  0.00  0.00    +0.000 NA
ATOM     28  C   UNL     1      43.325   2.799  11.671  0.00  0.00    +0.000 A 
ATOM     29  N   UNL     1      44.449   2.492  12.393  0.00  0.00    +0.000 N 
ATOM     30  C   UNL     1      45.410   3.422  12.707  0.00  0.00    +0.000 A 
ATOM     31  O   UNL     1      46.445   3.093  13.276  0.00  0.00    +0.000 OA
ATOM     32  C   UNL     1      45.109   4.773  12.270  0.00  0.00    +0.000 A 
ATOM     33  H   UNL     1      44.638   1.542  12.680  0.00  0.00    +0.000 HD
ENDBRANCH  20  23
ENDBRANCH  18  19
ENDBRANCH   4  18
TORSDOF 8
ENDMDL
