MODEL 1
REMARK VINA RESULT:    -8.040      0.000      0.000
REMARK INTER + INTRA:         -10.410
REMARK INTER:                 -10.156
REMARK INTRA:                  -0.254
REMARK UNBOUND:                -0.254
REMARK  Name = 
REMARK  5 active torsions:
REMARK  status: ('A' for Active; 'I' for Inactive)
REMARK    1  A    between atoms: N_1  and  C_2
REMARK    2  A    between atoms: C_2  and  C_3
REMARK    3  A    between atoms: C_6  and  C_7
REMARK    4  A    between atoms: C_7  and  N_8
REMARK    5  A    between atoms: C_11  and  C_12
REMARK                            x       y       z     vdW  Elec       q    Type
REMARK                         _______ _______ _______ _____ _____    ______ ____
ROOT
ATOM      1  N   UNL     1      44.863   2.778  11.580  0.00  0.00    +0.000 N 
ATOM      2  C   UNL     1      45.435   3.903  12.200  0.00  0.00    +0.000 A 
ATOM      3  C   UNL     1      46.142   3.734  13.384  0.00  0.00    +0.000 A 
ATOM      4  C   UNL     1      46.705   4.851  14.016  0.00  0.00    +0.000 A 
ATOM      5  C   UNL     1      46.537   6.110  13.447  0.00  0.00    +0.000 A 
ATOM      6  C   UNL     1      45.809   6.191  12.278  0.00  0.00    +0.000 A 
ATOM      7  N   UNL     1      45.260   5.127  11.661  0.00  0.00    +0.000 NA
ATOM      8  H   UNL     1      45.580   2.076  11.419  0.00  0.00    +0.000 HD
ENDROOT
BRANCH   4   9
ATOM      9  C   UNL     1      47.462   4.635  15.280  0.00  0.00    +0.000 C 
ATOM     10  N   UNL     1      47.130   3.574  16.075  0.00  0.00    +0.000 N 
ATOM     11  O   UNL     1      48.367   5.392  15.617  0.00  0.00    +0.000 OA
ATOM     12  H   UNL     1      46.409   2.900  15.893  0.00  0.00    +0.000 HD
ATOM     13  H   UNL     1      47.671   3.463  16.926  0.00  0.00    +0.000 HD
ENDBRANCH   4   9
BRANCH   1  14
ATOM     14  C   UNL     1      44.139   3.106  10.357  0.00  0.00    +0.000 C 
BRANCH  14  18
ATOM     15  C   UNL     1      46.596   2.752   6.804  0.00  0.00    +0.000 A 
ATOM     16  C   UNL     1      46.339   1.634   7.611  0.00  0.00    +0.000 A 
ATOM     17  C   UNL     1      45.572   1.752   8.772  0.00  0.00    +0.000 A 
ATOM     18  C   UNL     1      45.041   2.992   9.151  0.00  0.00    +0.000 A 
ATOM     19  C   UNL     1      45.333   4.118   8.369  0.00  0.00    +0.000 A 
ATOM     20  C   UNL     1      46.100   4.000   7.206  0.00  0.00    +0.000 A 
BRANCH  15  21
ATOM     21  C   UNL     1      47.400   2.611   5.536  0.00  0.00    +0.000 C 
BRANCH  21  22
ATOM     22  N   UNL     1      48.566   1.756   5.732  0.00  0.00    +0.000 NA
ATOM     23  H   UNL     1      48.526   0.980   5.076  0.00  0.00    +0.000 HD
ATOM     24  H   UNL     1      48.521   1.350   6.666  0.00  0.00    +0.000 HD
ENDBRANCH  21  22
ENDBRANCH  15  21
ENDBRANCH  14  18
ENDBRANCH   1  14
TORSDOF 5
ENDMDL
MODEL 2
REMARK VINA RESULT:    -7.914      2.112      3.232
REMARK INTER + INTRA:         -10.250
REMARK INTER:                  -9.970
REMARK INTRA:                  -0.280
REMARK UNBOUND:                -0.254
REMARK  Name = 
REMARK  5 active torsions:
REMARK  status: ('A' for Active; 'I' for Inactive)
REMARK    1  A    between atoms: N_1  and  C_2
REMARK    2  A    between atoms: C_2  and  C_3
REMARK    3  A    between atoms: C_6  and  C_7
REMARK    4  A    between atoms: C_7  and  N_8
REMARK    5  A    between atoms: C_11  and  C_12
REMARK                            x       y       z     vdW  Elec       q    Type
REMARK                         _______ _______ _______ _____ _____    ______ ____
ROOT
ATOM      1  N   UNL     1      43.791   5.309  10.357  0.00  0.00    +0.000 N 
ATOM      2  C   UNL     1      44.642   5.848  11.337  0.00  0.00    +0.000 A 
ATOM      3  C   UNL     1      44.761   7.228  11.443  0.00  0.00    +0.000 A 
ATOM      4  C   UNL     1      45.618   7.774  12.409  0.00  0.00    +0.000 A 
ATOM      5  C   UNL     1      46.338   6.920  13.238  0.00  0.00    +0.000 A 
ATOM      6  C   UNL     1      46.172   5.563  13.057  0.00  0.00    +0.000 A 
ATOM      7  N   UNL     1      45.355   5.024  12.132  0.00  0.00    +0.000 NA
ATOM      8  H   UNL     1      42.857   5.696  10.466  0.00  0.00    +0.000 HD
ENDROOT
BRANCH   4   9
ATOM      9  C   UNL     1      45.718   9.257  12.501  0.00  0.00    +0.000 C 
ATOM     10  N   UNL     1      44.567   9.994  12.543  0.00  0.00    +0.000 N 
ATOM     11  O   UNL     1      46.807   9.821  12.534  0.00  0.00    +0.000 OA
ATOM     12  H   UNL     1      43.630   9.632  12.521  0.00  0.00    +0.000 HD
ATOM     13  H   UNL     1      44.680  11.000  12.607  0.00  0.00    +0.000 HD
ENDBRANCH   4   9
BRANCH   1  14
ATOM     14  C   UNL     1      43.776   3.851  10.350  0.00  0.00    +0.000 C 
BRANCH  14  18
ATOM     15  C   UNL     1      46.592   2.315   7.435  0.00  0.00    +0.000 A 
ATOM     16  C   UNL     1      46.269   3.679   7.469  0.00  0.00    +0.000 A 
ATOM     17  C   UNL     1      45.339   4.171   8.387  0.00  0.00    +0.000 A 
ATOM     18  C   UNL     1      44.715   3.308   9.298  0.00  0.00    +0.000 A 
ATOM     19  C   UNL     1      45.005   1.938   9.238  0.00  0.00    +0.000 A 
ATOM     20  C   UNL     1      45.936   1.447   8.319  0.00  0.00    +0.000 A 
BRANCH  15  21
ATOM     21  C   UNL     1      47.619   1.796   6.461  0.00  0.00    +0.000 C 
BRANCH  21  22
ATOM     22  N   UNL     1      48.639   2.799   6.170  0.00  0.00    +0.000 NA
ATOM     23  H   UNL     1      48.369   3.684   6.593  0.00  0.00    +0.000 HD
ATOM     24  H   UNL     1      48.667   2.954   5.163  0.00  0.00    +0.000 HD
ENDBRANCH  21  22
ENDBRANCH  15  21
ENDBRANCH  14  18
ENDBRANCH   1  14
TORSDOF 5
ENDMDL
MODEL 3
REMARK VINA RESULT:    -7.478      2.993      6.549
REMARK INTER + INTRA:          -9.700
REMARK INTER:                  -9.778
REMARK INTRA:                   0.078
REMARK UNBOUND:                -0.254
REMARK  Name = 
REMARK  5 active torsions:
REMARK  status: ('A' for Active; 'I' for Inactive)
REMARK    1  A    between atoms: N_1  and  C_2
REMARK    2  A    between atoms: C_2  and  C_3
REMARK    3  A    between atoms: C_6  and  C_7
REMARK    4  A    between atoms: C_7  and  N_8
REMARK    5  A    between atoms: C_11  and  C_12
REMARK                            x       y       z     vdW  Elec       q    Type
REMARK                         _______ _______ _______ _____ _____    ______ ____
ROOT
ATOM      1  N   UNL     1      44.098   2.664  10.755  0.00  0.00    +0.000 N 
ATOM      2  C   UNL     1      44.853   2.921   9.597  0.00  0.00    +0.000 A 
ATOM      3  C   UNL     1      45.570   1.883   9.014  0.00  0.00    +0.000 A 
ATOM      4  C   UNL     1      46.335   2.132   7.867  0.00  0.00    +0.000 A 
ATOM      5  C   UNL     1      46.367   3.419   7.339  0.00  0.00    +0.000 A 
ATOM      6  C   UNL     1      45.638   4.394   7.987  0.00  0.00    +0.000 A 
ATOM      7  N   UNL     1      44.900   4.170   9.091  0.00  0.00    +0.000 NA
ATOM      8  H   UNL     1      43.454   1.899  10.579  0.00  0.00    +0.000 HD
ENDROOT
BRANCH   4   9
ATOM      9  C   UNL     1      47.086   0.997   7.263  0.00  0.00    +0.000 C 
ATOM     10  N   UNL     1      46.778  -0.278   7.650  0.00  0.00    +0.000 N 
ATOM     11  O   UNL     1      47.972   1.188   6.436  0.00  0.00    +0.000 OA
ATOM     12  H   UNL     1      46.075  -0.541   8.317  0.00  0.00    +0.000 HD
ATOM     13  H   UNL     1      47.312  -1.021   7.214  0.00  0.00    +0.000 HD
ENDBRANCH   4   9
BRANCH   1  14
ATOM     14  C   UNL     1      43.413   3.846  11.265  0.00  0.00    +0.000 C 
BRANCH  14  18
ATOM     15  C   UNL     1      46.295   6.508  13.105  0.00  0.00    +0.000 A 
ATOM     16  C   UNL     1      46.368   5.123  13.310  0.00  0.00    +0.000 A 
ATOM     17  C   UNL     1      45.422   4.266  12.742  0.00  0.00    +0.000 A 
ATOM     18  C   UNL     1      44.384   4.777  11.952  0.00  0.00    +0.000 A 
ATOM     19  C   UNL     1      44.285   6.164  11.782  0.00  0.00    +0.000 A 
ATOM     20  C   UNL     1      45.232   7.022  12.350  0.00  0.00    +0.000 A 
BRANCH  15  21
ATOM     21  C   UNL     1      47.337   7.424  13.697  0.00  0.00    +0.000 C 
BRANCH  21  22
ATOM     22  N   UNL     1      46.776   8.730  14.031  0.00  0.00    +0.000 NA
ATOM     23  H   UNL     1      46.063   8.615  14.748  0.00  0.00    +0.000 HD
ATOM     24  H   UNL     1      46.304   9.103  13.208  0.00  0.00    +0.000 HD
ENDBRANCH  21  22
ENDBRANCH  15  21
ENDBRANCH  14  18
ENDBRANCH   1  14
TORSDOF 5
ENDMDL
MODEL 4
REMARK VINA RESULT:    -7.261      1.087      1.589
REMARK INTER + INTRA:          -9.425
REMARK INTER:                  -9.135
REMARK INTRA:                  -0.290
REMARK UNBOUND:                -0.254
REMARK  Name = 
REMARK  5 active torsions:
REMARK  status: ('A' for Active; 'I' for Inactive)
REMARK    1  A    between atoms: N_1  and  C_2
REMARK    2  A    between atoms: C_2  and  C_3
REMARK    3  A    between atoms: C_6  and  C_7
REMARK    4  A    between atoms: C_7  and  N_8
REMARK    5  A    between atoms: C_11  and  C_12
REMARK                            x       y       z     vdW  Elec       q    Type
REMARK                         _______ _______ _______ _____ _____    ______ ____
ROOT
ATOM      1  N   UNL     1      45.280   3.691  11.970  0.00  0.00    +0.000 N 
ATOM      2  C   UNL     1      45.878   4.913  12.326  0.00  0.00    +0.000 A 
ATOM      3  C   UNL     1      46.747   4.949  13.410  0.00  0.00    +0.000 A 
ATOM      4  C   UNL     1      47.337   6.165  13.780  0.00  0.00    +0.000 A 
ATOM      5  C   UNL     1      47.034   7.315  13.057  0.00  0.00    +0.000 A 
ATOM      6  C   UNL     1      46.152   7.194  12.004  0.00  0.00    +0.000 A 
ATOM      7  N   UNL     1      45.575   6.033  11.638  0.00  0.00    +0.000 NA
ATOM      8  H   UNL     1      46.001   2.991  11.817  0.00  0.00    +0.000 HD
ENDROOT
BRANCH   4   9
ATOM      9  C   UNL     1      48.268   6.168  14.942  0.00  0.00    +0.000 C 
ATOM     10  N   UNL     1      47.815   5.723  16.152  0.00  0.00    +0.000 N 
ATOM     11  O   UNL     1      49.423   6.567  14.830  0.00  0.00    +0.000 OA
ATOM     12  H   UNL     1      46.892   5.379  16.349  0.00  0.00    +0.000 HD
ATOM     13  H   UNL     1      48.481   5.741  16.916  0.00  0.00    +0.000 HD
ENDBRANCH   4   9
BRANCH   1  14
ATOM     14  C   UNL     1      44.382   3.805  10.826  0.00  0.00    +0.000 C 
BRANCH  14  18
ATOM     15  C   UNL     1      46.516   2.592   7.254  0.00  0.00    +0.000 A 
ATOM     16  C   UNL     1      46.272   3.948   7.516  0.00  0.00    +0.000 A 
ATOM     17  C   UNL     1      45.559   4.339   8.651  0.00  0.00    +0.000 A 
ATOM     18  C   UNL     1      45.076   3.381   9.553  0.00  0.00    +0.000 A 
ATOM     19  C   UNL     1      45.282   2.024   9.270  0.00  0.00    +0.000 A 
ATOM     20  C   UNL     1      45.997   1.633   8.134  0.00  0.00    +0.000 A 
BRANCH  15  21
ATOM     21  C   UNL     1      47.312   2.178   6.042  0.00  0.00    +0.000 C 
BRANCH  21  22
ATOM     22  N   UNL     1      48.734   2.457   6.213  0.00  0.00    +0.000 NA
ATOM     23  H   UNL     1      49.264   1.603   6.057  0.00  0.00    +0.000 HD
ATOM     24  H   UNL     1      48.899   2.729   7.182  0.00  0.00    +0.000 HD
ENDBRANCH  21  22
ENDBRANCH  15  21
ENDBRANCH  14  18
ENDBRANCH   1  14
TORSDOF 5
ENDMDL
MODEL 5
REMARK VINA RESULT:    -7.195      2.715      7.122
REMARK INTER + INTRA:          -9.342
REMARK INTER:                  -8.974
REMARK INTRA:                  -0.368
REMARK UNBOUND:                -0.254
REMARK  Name = 
REMARK  5 active torsions:
REMARK  status: ('A' for Active; 'I' for Inactive)
REMARK    1  A    between atoms: N_1  and  C_2
REMARK    2  A    between atoms: C_2  and  C_3
REMARK    3  A    between atoms: C_6  and  C_7
REMARK    4  A    between atoms: C_7  and  N_8
REMARK    5  A    between atoms: C_11  and  C_12
REMARK                            x       y       z     vdW  Elec       q    Type
REMARK                         _______ _______ _______ _____ _____    ______ ____
ROOT
ATOM      1  N   UNL     1      45.480   5.372   9.277  0.00  0.00    +0.000 N 
ATOM      2  C   UNL     1      45.699   4.054   8.840  0.00  0.00    +0.000 A 
ATOM      3  C   UNL     1      46.463   3.839   7.700  0.00  0.00    +0.000 A 
ATOM      4  C   UNL     1      46.675   2.529   7.249  0.00  0.00    +0.000 A 
ATOM      5  C   UNL     1      46.109   1.469   7.951  0.00  0.00    +0.000 A 
ATOM      6  C   UNL     1      45.353   1.771   9.064  0.00  0.00    +0.000 A 
ATOM      7  N   UNL     1      45.138   3.025   9.508  0.00  0.00    +0.000 NA
ATOM      8  H   UNL     1      46.372   5.841   9.406  0.00  0.00    +0.000 HD
ENDROOT
BRANCH   4   9
ATOM      9  C   UNL     1      47.504   2.332   6.028  0.00  0.00    +0.000 C 
ATOM     10  N   UNL     1      47.317   3.167   4.961  0.00  0.00    +0.000 N 
ATOM     11  O   UNL     1      48.340   1.437   5.963  0.00  0.00    +0.000 OA
ATOM     12  H   UNL     1      46.661   3.927   4.911  0.00  0.00    +0.000 HD
ATOM     13  H   UNL     1      47.902   2.999   4.151  0.00  0.00    +0.000 HD
ENDBRANCH   4   9
BRANCH   1  14
ATOM     14  C   UNL     1      44.650   5.447  10.474  0.00  0.00    +0.000 C 
BRANCH  14  18
ATOM     15  C   UNL     1      47.209   5.722  13.962  0.00  0.00    +0.000 A 
ATOM     16  C   UNL     1      46.196   4.754  13.891  0.00  0.00    +0.000 A 
ATOM     17  C   UNL     1      45.351   4.684  12.782  0.00  0.00    +0.000 A 
ATOM     18  C   UNL     1      45.504   5.578  11.714  0.00  0.00    +0.000 A 
ATOM     19  C   UNL     1      46.488   6.572  11.801  0.00  0.00    +0.000 A 
ATOM     20  C   UNL     1      47.334   6.642  12.912  0.00  0.00    +0.000 A 
BRANCH  15  21
ATOM     21  C   UNL     1      48.136   5.773  15.149  0.00  0.00    +0.000 C 
BRANCH  21  22
ATOM     22  N   UNL     1      47.532   5.162  16.329  0.00  0.00    +0.000 NA
ATOM     23  H   UNL     1      47.380   5.877  17.036  0.00  0.00    +0.000 HD
ATOM     24  H   UNL     1      48.193   4.495  16.726  0.00  0.00    +0.000 HD
ENDBRANCH  21  22
ENDBRANCH  15  21
ENDBRANCH  14  18
ENDBRANCH   1  14
TORSDOF 5
ENDMDL
MODEL 6
REMARK VINA RESULT:    -6.238      3.462      7.820
REMARK INTER + INTRA:          -8.133
REMARK INTER:                  -7.750
REMARK INTRA:                  -0.383
REMARK UNBOUND:                -0.254
REMARK  Name = 
REMARK  5 active torsions:
REMARK  status: ('A' for Active; 'I' for Inactive)
REMARK    1  A    between atoms: N_1  and  C_2
REMARK    2  A    between atoms: C_2  and  C_3
REMARK    3  A    between atoms: C_6  and  C_7
REMARK    4  A    between atoms: C_7  and  N_8
REMARK    5  A    between atoms: C_11  and  C_12
REMARK                            x       y       z     vdW  Elec       q    Type
REMARK                         _______ _______ _______ _____ _____    ______ ____
ROOT
ATOM      1  N   UNL     1      46.729   4.013  15.477  0.00  0.00    +0.000 N 
ATOM      2  C   UNL     1      46.566   4.674  14.246  0.00  0.00    +0.000 A 
ATOM      3  C   UNL     1      45.809   4.069  13.251  0.00  0.00    +0.000 A 
ATOM      4  C   UNL     1      45.652   4.714  12.016  0.00  0.00    +0.000 A 
ATOM      5  C   UNL     1      46.265   5.946  11.811  0.00  0.00    +0.000 A 
ATOM      6  C   UNL     1      47.010   6.469  12.847  0.00  0.00    +0.000 A 
ATOM      7  N   UNL     1      47.172   5.860  14.037  0.00  0.00    +0.000 NA
ATOM      8  H   UNL     1      45.817   3.791  15.868  0.00  0.00    +0.000 HD
ENDROOT
BRANCH   4   9
ATOM      9  C   UNL     1      44.829   4.042  10.973  0.00  0.00    +0.000 C 
ATOM     10  N   UNL     1      44.311   2.805  11.236  0.00  0.00    +0.000 N 
ATOM     11  O   UNL     1      44.616   4.576   9.889  0.00  0.00    +0.000 OA
ATOM     12  H   UNL     1      44.427   2.283  12.086  0.00  0.00    +0.000 HD
ATOM     13  H   UNL     1      43.756   2.383  10.499  0.00  0.00    +0.000 HD
ENDBRANCH   4   9
BRANCH   1  14
ATOM     14  C   UNL     1      47.558   4.756  16.419  0.00  0.00    +0.000 C 
BRANCH  14  18
ATOM     15  C   UNL     1      51.074   2.444  17.459  0.00  0.00    +0.000 A 
ATOM     16  C   UNL     1      49.933   1.817  16.938  0.00  0.00    +0.000 A 
ATOM     17  C   UNL     1      48.788   2.555  16.631  0.00  0.00    +0.000 A 
ATOM     18  C   UNL     1      48.762   3.941  16.834  0.00  0.00    +0.000 A 
ATOM     19  C   UNL     1      49.886   4.564  17.394  0.00  0.00    +0.000 A 
ATOM     20  C   UNL     1      51.032   3.824  17.700  0.00  0.00    +0.000 A 
BRANCH  15  21
ATOM     21  C   UNL     1      52.316   1.644  17.761  0.00  0.00    +0.000 C 
BRANCH  21  22
ATOM     22  N   UNL     1      51.992   0.270  18.135  0.00  0.00    +0.000 NA
ATOM     23  H   UNL     1      51.377   0.280  18.945  0.00  0.00    +0.000 HD
ATOM     24  H   UNL     1      52.849  -0.200  18.424  0.00  0.00    +0.000 HD
ENDBRANCH  21  22
ENDBRANCH  15  21
ENDBRANCH  14  18
ENDBRANCH   1  14
TORSDOF 5
ENDMDL
MODEL 7
REMARK VINA RESULT:    -5.984      3.182      5.437
REMARK INTER + INTRA:          -7.812
REMARK INTER:                  -7.500
REMARK INTRA:                  -0.312
REMARK UNBOUND:                -0.254
REMARK  Name = 
REMARK  5 active torsions:
REMARK  status: ('A' for Active; 'I' for Inactive)
REMARK    1  A    between atoms: N_1  and  C_2
REMARK    2  A    between atoms: C_2  and  C_3
REMARK    3  A    between atoms: C_6  and  C_7
REMARK    4  A    between atoms: C_7  and  N_8
REMARK    5  A    between atoms: C_11  and  C_12
REMARK                            x       y       z     vdW  Elec       q    Type
REMARK                         _______ _______ _______ _____ _____    ______ ____
ROOT
ATOM      1  N   UNL     1      47.410   5.433  15.399  0.00  0.00    +0.000 N 
ATOM      2  C   UNL     1      48.508   5.561  16.268  0.00  0.00    +0.000 A 
ATOM      3  C   UNL     1      48.394   5.097  17.572  0.00  0.00    +0.000 A 
ATOM      4  C   UNL     1      49.479   5.233  18.449  0.00  0.00    +0.000 A 
ATOM      5  C   UNL     1      50.647   5.837  17.995  0.00  0.00    +0.000 A 
ATOM      6  C   UNL     1      50.672   6.282  16.690  0.00  0.00    +0.000 A 
ATOM      7  N   UNL     1      49.636   6.161  15.837  0.00  0.00    +0.000 NA
ATOM      8  H   UNL     1      47.117   4.460  15.361  0.00  0.00    +0.000 HD
ENDROOT
BRANCH   4   9
ATOM      9  C   UNL     1      49.328   4.719  19.838  0.00  0.00    +0.000 C 
ATOM     10  N   UNL     1      48.529   3.631  20.056  0.00  0.00    +0.000 N 
ATOM     11  O   UNL     1      49.900   5.256  20.782  0.00  0.00    +0.000 OA
ATOM     12  H   UNL     1      48.018   3.121  19.357  0.00  0.00    +0.000 HD
ATOM     13  H   UNL     1      48.454   3.313  21.016  0.00  0.00    +0.000 HD
ENDBRANCH   4   9
BRANCH   1  14
ATOM     14  C   UNL     1      47.665   5.976  14.070  0.00  0.00    +0.000 C 
BRANCH  14  18
ATOM     15  C   UNL     1      44.999   4.276  11.105  0.00  0.00    +0.000 A 
ATOM     16  C   UNL     1      45.585   5.534  10.904  0.00  0.00    +0.000 A 
ATOM     17  C   UNL     1      46.421   6.097  11.871  0.00  0.00    +0.000 A 
ATOM     18  C   UNL     1      46.693   5.410  13.061  0.00  0.00    +0.000 A 
ATOM     19  C   UNL     1      46.074   4.172  13.283  0.00  0.00    +0.000 A 
ATOM     20  C   UNL     1      45.239   3.608  12.314  0.00  0.00    +0.000 A 
BRANCH  15  21
ATOM     21  C   UNL     1      44.122   3.662  10.044  0.00  0.00    +0.000 C 
BRANCH  21  22
ATOM     22  N   UNL     1      43.773   4.630   9.009  0.00  0.00    +0.000 NA
ATOM     23  H   UNL     1      44.433   5.404   9.038  0.00  0.00    +0.000 HD
ATOM     24  H   UNL     1      42.857   5.022   9.224  0.00  0.00    +0.000 HD
ENDBRANCH  21  22
ENDBRANCH  15  21
ENDBRANCH  14  18
ENDBRANCH   1  14
TORSDOF 5
ENDMDL
MODEL 8
REMARK VINA RESULT:    -5.886      2.016      3.244
REMARK INTER + INTRA:          -7.689
REMARK INTER:                  -7.333
REMARK INTRA:                  -0.356
REMARK UNBOUND:                -0.254
REMARK  Name = 
REMARK  5 active torsions:
REMARK  status: ('A' for Active; 'I' for Inactive)
REMARK    1  A    between atoms: N_1  and  C_2
REMARK    2  A    between atoms: C_2  and  C_3
REMARK    3  A    between atoms: C_6  and  C_7
REMARK    4  A    between atoms: C_7  and  N_8
REMARK    5  A    between atoms: C_11  and  C_12
REMARK                            x       y       z     vdW  Elec       q    Type
REMARK                         _______ _______ _______ _____ _____    ______ ____
ROOT
ATOM      1  N   UNL     1      46.115   5.918  12.868  0.00  0.00    +0.000 N 
ATOM      2  C   UNL     1      46.806   5.528  14.029  0.00  0.00    +0.000 A 
ATOM      3  C   UNL     1      47.872   6.303  14.472  0.00  0.00    +0.000 A 
ATOM      4  C   UNL     1      48.575   5.915  15.621  0.00  0.00    +0.000 A 
ATOM      5  C   UNL     1      48.194   4.756  16.291  0.00  0.00    +0.000 A 
ATOM      6  C   UNL     1      47.135   4.039  15.776  0.00  0.00    +0.000 A 
ATOM      7  N   UNL     1      46.452   4.397  14.672  0.00  0.00    +0.000 NA
ATOM      8  H   UNL     1      45.786   6.873  12.972  0.00  0.00    +0.000 HD
ENDROOT
BRANCH   4   9
ATOM      9  C   UNL     1      49.706   6.770  16.073  0.00  0.00    +0.000 C 
ATOM     10  N   UNL     1      49.459   8.074  16.401  0.00  0.00    +0.000 N 
ATOM     11  O   UNL     1      50.848   6.327  16.150  0.00  0.00    +0.000 OA
ATOM     12  H   UNL     1      48.565   8.533  16.372  0.00  0.00    +0.000 HD
ATOM     13  H   UNL     1      50.256   8.621  16.705  0.00  0.00    +0.000 HD
ENDBRANCH   4   9
BRANCH   1  14
ATOM     14  C   UNL     1      45.034   5.006  12.513  0.00  0.00    +0.000 C 
BRANCH  14  18
ATOM     15  C   UNL     1      45.535   3.676   8.418  0.00  0.00    +0.000 A 
ATOM     16  C   UNL     1      45.863   4.988   8.790  0.00  0.00    +0.000 A 
ATOM     17  C   UNL     1      45.673   5.427  10.102  0.00  0.00    +0.000 A 
ATOM     18  C   UNL     1      45.156   4.561  11.074  0.00  0.00    +0.000 A 
ATOM     19  C   UNL     1      44.789   3.263  10.695  0.00  0.00    +0.000 A 
ATOM     20  C   UNL     1      44.979   2.823   9.381  0.00  0.00    +0.000 A 
BRANCH  15  21
ATOM     21  C   UNL     1      45.770   3.200   7.007  0.00  0.00    +0.000 C 
BRANCH  21  22
ATOM     22  N   UNL     1      46.811   3.979   6.344  0.00  0.00    +0.000 NA
ATOM     23  H   UNL     1      47.164   3.456   5.546  0.00  0.00    +0.000 HD
ATOM     24  H   UNL     1      47.593   4.093   6.987  0.00  0.00    +0.000 HD
ENDBRANCH  21  22
ENDBRANCH  15  21
ENDBRANCH  14  18
ENDBRANCH   1  14
TORSDOF 5
ENDMDL
MODEL 9
REMARK VINA RESULT:    -5.735      3.762      8.277
REMARK INTER + INTRA:          -7.498
REMARK INTER:                  -7.137
REMARK INTRA:                  -0.360
REMARK UNBOUND:                -0.254
REMARK  Name = 
REMARK  5 active torsions:
REMARK  status: ('A' for Active; 'I' for Inactive)
REMARK    1  A    between atoms: N_1  and  C_2
REMARK    2  A    between atoms: C_2  and  C_3
REMARK    3  A    between atoms: C_6  and  C_7
REMARK    4  A    between atoms: C_7  and  N_8
REMARK    5  A    between atoms: C_11  and  C_12
REMARK                            x       y       z     vdW  Elec       q    Type
REMARK                         _______ _______ _______ _____ _____    ______ ____
ROOT
ATOM      1  N   UNL     1      47.425   5.261  13.754  0.00  0.00    +0.000 N 
ATOM      2  C   UNL     1      46.371   5.798  12.994  0.00  0.00    +0.000 A 
ATOM      3  C   UNL     1      45.597   4.945  12.217  0.00  0.00    +0.000 A 
ATOM      4  C   UNL     1      44.552   5.473  11.445  0.00  0.00    +0.000 A 
ATOM      5  C   UNL     1      44.316   6.844  11.469  0.00  0.00    +0.000 A 
ATOM      6  C   UNL     1      45.140   7.620  12.257  0.00  0.00    +0.000 A 
ATOM      7  N   UNL     1      46.149   7.128  13.001  0.00  0.00    +0.000 NA
ATOM      8  H   UNL     1      47.070   4.524  14.357  0.00  0.00    +0.000 HD
ENDROOT
BRANCH   4   9
ATOM      9  C   UNL     1      43.738   4.532  10.629  0.00  0.00    +0.000 C 
ATOM     10  N   UNL     1      43.912   4.513   9.273  0.00  0.00    +0.000 N 
ATOM     11  O   UNL     1      42.915   3.785  11.149  0.00  0.00    +0.000 OA
ATOM     12  H   UNL     1      44.555   5.081   8.750  0.00  0.00    +0.000 HD
ATOM     13  H   UNL     1      43.338   3.857   8.754  0.00  0.00    +0.000 HD
ENDBRANCH   4   9
BRANCH   1  14
ATOM     14  C   UNL     1      48.160   6.271  14.507  0.00  0.00    +0.000 C 
BRANCH  14  18
ATOM     15  C   UNL     1      48.648   5.063  18.640  0.00  0.00    +0.000 A 
ATOM     16  C   UNL     1      47.922   4.267  17.743  0.00  0.00    +0.000 A 
ATOM     17  C   UNL     1      47.738   4.669  16.418  0.00  0.00    +0.000 A 
ATOM     18  C   UNL     1      48.281   5.877  15.960  0.00  0.00    +0.000 A 
ATOM     19  C   UNL     1      48.971   6.694  16.866  0.00  0.00    +0.000 A 
ATOM     20  C   UNL     1      49.156   6.290  18.192  0.00  0.00    +0.000 A 
BRANCH  15  21
ATOM     21  C   UNL     1      48.868   4.608  20.061  0.00  0.00    +0.000 C 
BRANCH  21  22
ATOM     22  N   UNL     1      48.339   3.266  20.283  0.00  0.00    +0.000 NA
ATOM     23  H   UNL     1      48.370   3.053  21.277  0.00  0.00    +0.000 HD
ATOM     24  H   UNL     1      48.952   2.593  19.822  0.00  0.00    +0.000 HD
ENDBRANCH  21  22
ENDBRANCH  15  21
ENDBRANCH  14  18
ENDBRANCH   1  14
TORSDOF 5
ENDMDL
