MODEL 1
REMARK VINA RESULT:    -6.910      0.000      0.000
REMARK INTER + INTRA:         -10.048
REMARK INTER:                  -9.333
REMARK INTRA:                  -0.714
REMARK UNBOUND:                -0.714
REMARK  Name = 
REMARK  9 active torsions:
REMARK  status: ('A' for Active; 'I' for Inactive)
REMARK    1  A    between atoms: C_1  and  C_2
REMARK    2  A    between atoms: C_2  and  C_3
REMARK    3  A    between atoms: C_2  and  C_4
REMARK    4  A    between atoms: C_2  and  C_5
REMARK    5  A    between atoms: C_7  and  C_8
REMARK    6  A    between atoms: N_13  and  C_14
REMARK    7  A    between atoms: C_14  and  C_15
REMARK    8  A    between atoms: N_23  and  C_24
REMARK    9  A    between atoms: C_24  and  C_25
REMARK                            x       y       z     vdW  Elec       q    Type
REMARK                         _______ _______ _______ _____ _____    ______ ____
ROOT
ATOM      1  C   UNL     1      50.100   7.522  14.550  0.00  0.00    +0.000 C 
ENDROOT
BRANCH   1   2
ATOM      2  C   UNL     1      48.903   8.070  13.803  0.00  0.00    +0.000 A 
ATOM      3  C   UNL     1      48.703   9.428  13.677  0.00  0.00    +0.000 A 
ATOM      4  C   UNL     1      47.618   9.797  12.936  0.00  0.00    +0.000 A 
ATOM      5  N   UNL     1      46.786   8.922  12.346  0.00  0.00    +0.000 NA
ATOM      6  C   UNL     1      47.017   7.615  12.532  0.00  0.00    +0.000 A 
ATOM      7  N   UNL     1      46.190   6.698  11.934  0.00  0.00    +0.000 N 
ATOM      8  C   UNL     1      45.173   7.129  10.981  0.00  0.00    +0.000 C 
ATOM      9  C   UNL     1      43.771   6.692  11.449  0.00  0.00    +0.000 C 
ATOM     10  N   UNL     1      43.649   5.251  11.783  0.00  0.00    +0.000 NA
ATOM     11  C   UNL     1      44.678   4.939  12.809  0.00  0.00    +0.000 C 
ATOM     12  C   UNL     1      46.132   5.328  12.439  0.00  0.00    +0.000 C 
ATOM     13  N   UNL     1      48.051   7.167  13.262  0.00  0.00    +0.000 NA
BRANCH  10  14
ATOM     14  C   UNL     1      43.803   4.367  10.593  0.00  0.00    +0.000 C 
BRANCH  14  15
ATOM     15  C   UNL     1      44.005   2.842  10.785  0.00  0.00    +0.000 C 
ATOM     16  F   UNL     1      43.143   2.288  11.662  0.00  0.00    +0.000 F 
ATOM     17  F   UNL     1      43.847   2.199   9.603  0.00  0.00    +0.000 F 
ATOM     18  F   UNL     1      45.258   2.574  11.223  0.00  0.00    +0.000 F 
ENDBRANCH  14  15
ENDBRANCH  10  14
ENDBRANCH   1   2
BRANCH   1  24
ATOM     19  C   UNL     1      49.609   5.560  18.818  0.00  0.00    +0.000 A 
ATOM     20  C   UNL     1      48.774   4.572  18.344  0.00  0.00    +0.000 A 
ATOM     21  C   UNL     1      48.420   4.663  17.021  0.00  0.00    +0.000 A 
ATOM     22  N   UNL     1      48.815   5.652  16.189  0.00  0.00    +0.000 NA
ATOM     23  C   UNL     1      49.591   6.591  16.735  0.00  0.00    +0.000 A 
ATOM     24  N   UNL     1      49.974   7.682  15.986  0.00  0.00    +0.000 N 
ATOM     25  N   UNL     1      50.014   6.568  18.010  0.00  0.00    +0.000 NA
ATOM     26  H   UNL     1      50.752   8.146  16.441  0.00  0.00    +0.000 HD
BRANCH  21  27
ATOM     27  C   UNL     1      47.558   3.592  16.435  0.00  0.00    +0.000 C 
ATOM     28  N   UNL     1      46.790   2.892  17.323  0.00  0.00    +0.000 N 
ATOM     29  O   UNL     1      47.530   3.356  15.234  0.00  0.00    +0.000 OA
ATOM     30  H   UNL     1      46.882   3.058  18.318  0.00  0.00    +0.000 HD
ATOM     31  H   UNL     1      46.222   2.130  16.982  0.00  0.00    +0.000 HD
ENDBRANCH  21  27
BRANCH  19  33
ATOM     32  C   UNL     1      49.093   4.749  21.139  0.00  0.00    +0.000 C 
ATOM     33  C   UNL     1      50.112   5.511  20.267  0.00  0.00    +0.000 C 
ATOM     34  C   UNL     1      50.284   6.943  20.814  0.00  0.00    +0.000 C 
ATOM     35  C   UNL     1      51.470   4.791  20.392  0.00  0.00    +0.000 C 
ENDBRANCH  19  33
ENDBRANCH   1  24
TORSDOF 6
ENDMDL
MODEL 2
REMARK VINA RESULT:    -6.822      2.047      2.874
REMARK INTER + INTRA:          -9.929
REMARK INTER:                  -9.136
REMARK INTRA:                  -0.793
REMARK UNBOUND:                -0.714
REMARK  Name = 
REMARK  9 active torsions:
REMARK  status: ('A' for Active; 'I' for Inactive)
REMARK    1  A    between atoms: C_1  and  C_2
REMARK    2  A    between atoms: C_2  and  C_3
REMARK    3  A    between atoms: C_2  and  C_4
REMARK    4  A    between atoms: C_2  and  C_5
REMARK    5  A    between atoms: C_7  and  C_8
REMARK    6  A    between atoms: N_13  and  C_14
REMARK    7  A    between atoms: C_14  and  C_15
REMARK    8  A    between atoms: N_23  and  C_24
REMARK    9  A    between atoms: C_24  and  C_25
REMARK                            x       y       z     vdW  Elec       q    Type
REMARK                         _______ _______ _______ _____ _____    ______ ____
ROOT
ATOM      1  C   UNL     1      50.671   8.626  14.579  0.00  0.00    +0.000 C 
ENDROOT
BRANCH   1   2
ATOM      2  C   UNL     1      49.407   8.748  13.754  0.00  0.00    +0.000 A 
ATOM      3  C   UNL     1      48.982   9.971  13.280  0.00  0.00    +0.000 A 
ATOM      4  C   UNL     1      47.859   9.943  12.505  0.00  0.00    +0.000 A 
ATOM      5  N   UNL     1      47.193   8.816  12.197  0.00  0.00    +0.000 NA
ATOM      6  C   UNL     1      47.640   7.664  12.716  0.00  0.00    +0.000 A 
ATOM      7  N   UNL     1      46.986   6.496  12.411  0.00  0.00    +0.000 N 
ATOM      8  C   UNL     1      45.922   6.483  11.413  0.00  0.00    +0.000 C 
ATOM      9  C   UNL     1      44.608   5.961  12.028  0.00  0.00    +0.000 C 
ATOM     10  N   UNL     1      44.727   4.662  12.736  0.00  0.00    +0.000 NA
ATOM     11  C   UNL     1      45.782   4.810  13.772  0.00  0.00    +0.000 C 
ATOM     12  C   UNL     1      47.155   5.322  13.263  0.00  0.00    +0.000 C 
ATOM     13  N   UNL     1      48.726   7.605  13.502  0.00  0.00    +0.000 NA
BRANCH  10  14
ATOM     14  C   UNL     1      45.043   3.530  11.819  0.00  0.00    +0.000 C 
BRANCH  14  15
ATOM     15  C   UNL     1      43.964   3.008  10.837  0.00  0.00    +0.000 C 
ATOM     16  F   UNL     1      43.354   3.984  10.134  0.00  0.00    +0.000 F 
ATOM     17  F   UNL     1      44.521   2.155   9.943  0.00  0.00    +0.000 F 
ATOM     18  F   UNL     1      43.002   2.322  11.498  0.00  0.00    +0.000 F 
ENDBRANCH  14  15
ENDBRANCH  10  14
ENDBRANCH   1   2
BRANCH   1  24
ATOM     19  C   UNL     1      49.276   5.086  17.377  0.00  0.00    +0.000 A 
ATOM     20  C   UNL     1      48.883   5.942  18.382  0.00  0.00    +0.000 A 
ATOM     21  C   UNL     1      49.147   7.275  18.177  0.00  0.00    +0.000 A 
ATOM     22  N   UNL     1      49.772   7.773  17.089  0.00  0.00    +0.000 NA
ATOM     23  C   UNL     1      50.156   6.874  16.180  0.00  0.00    +0.000 A 
ATOM     24  N   UNL     1      50.876   7.280  15.077  0.00  0.00    +0.000 N 
ATOM     25  N   UNL     1      49.914   5.556  16.278  0.00  0.00    +0.000 NA
ATOM     26  H   UNL     1      50.855   6.549  14.375  0.00  0.00    +0.000 HD
BRANCH  21  27
ATOM     27  C   UNL     1      48.697   8.259  19.208  0.00  0.00    +0.000 C 
ATOM     28  N   UNL     1      47.375   8.606  19.166  0.00  0.00    +0.000 N 
ATOM     29  O   UNL     1      49.458   8.725  20.047  0.00  0.00    +0.000 OA
ATOM     30  H   UNL     1      46.782   8.261  18.421  0.00  0.00    +0.000 HD
ATOM     31  H   UNL     1      47.031   9.299  19.814  0.00  0.00    +0.000 HD
ENDBRANCH  21  27
BRANCH  19  33
ATOM     32  C   UNL     1      50.278   2.783  17.328  0.00  0.00    +0.000 C 
ATOM     33  C   UNL     1      48.969   3.586  17.482  0.00  0.00    +0.000 C 
ATOM     34  C   UNL     1      47.980   3.170  16.374  0.00  0.00    +0.000 C 
ATOM     35  C   UNL     1      48.343   3.210  18.840  0.00  0.00    +0.000 C 
ENDBRANCH  19  33
ENDBRANCH   1  24
TORSDOF 6
ENDMDL
MODEL 3
REMARK VINA RESULT:    -6.646      2.852      3.795
REMARK INTER + INTRA:          -9.691
REMARK INTER:                  -9.004
REMARK INTRA:                  -0.687
REMARK UNBOUND:                -0.714
REMARK  Name = 
REMARK  9 active torsions:
REMARK  status: ('A' for Active; 'I' for Inactive)
REMARK    1  A    between atoms: C_1  and  C_2
REMARK    2  A    between atoms: C_2  and  C_3
REMARK    3  A    between atoms: C_2  and  C_4
REMARK    4  A    between atoms: C_2  and  C_5
REMARK    5  A    between atoms: C_7  and  C_8
REMARK    6  A    between atoms: N_13  and  C_14
REMARK    7  A    between atoms: C_14  and  C_15
REMARK    8  A    between atoms: N_23  and  C_24
REMARK    9  A    between atoms: C_24  and  C_25
REMARK                            x       y       z     vdW  Elec       q    Type
REMARK                         _______ _______ _______ _____ _____    ______ ____
ROOT
ATOM      1  C   UNL     1      49.148   4.682  17.429  0.00  0.00    +0.000 C 
ENDROOT
BRANCH   1   2
ATOM      2  C   UNL     1      48.852   5.758  16.405  0.00  0.00    +0.000 A 
ATOM      3  C   UNL     1      49.305   7.049  16.577  0.00  0.00    +0.000 A 
ATOM      4  C   UNL     1      49.019   7.913  15.559  0.00  0.00    +0.000 A 
ATOM      5  N   UNL     1      48.351   7.559  14.447  0.00  0.00    +0.000 NA
ATOM      6  C   UNL     1      47.911   6.297  14.355  0.00  0.00    +0.000 A 
ATOM      7  N   UNL     1      47.236   5.905  13.227  0.00  0.00    +0.000 N 
ATOM      8  C   UNL     1      47.137   6.797  12.077  0.00  0.00    +0.000 C 
ATOM      9  C   UNL     1      45.660   7.073  11.730  0.00  0.00    +0.000 C 
ATOM     10  N   UNL     1      44.823   5.858  11.569  0.00  0.00    +0.000 NA
ATOM     11  C   UNL     1      44.940   5.063  12.819  0.00  0.00    +0.000 C 
ATOM     12  C   UNL     1      46.386   4.717  13.261  0.00  0.00    +0.000 C 
ATOM     13  N   UNL     1      48.133   5.388  15.319  0.00  0.00    +0.000 NA
BRANCH  10  14
ATOM     14  C   UNL     1      45.210   5.040  10.385  0.00  0.00    +0.000 C 
BRANCH  14  15
ATOM     15  C   UNL     1      44.430   3.744  10.053  0.00  0.00    +0.000 C 
ATOM     16  F   UNL     1      43.258   3.633  10.711  0.00  0.00    +0.000 F 
ATOM     17  F   UNL     1      44.155   3.692   8.727  0.00  0.00    +0.000 F 
ATOM     18  F   UNL     1      45.168   2.648  10.351  0.00  0.00    +0.000 F 
ENDBRANCH  14  15
ENDBRANCH  10  14
ENDBRANCH   1   2
BRANCH   1  24
ATOM     19  C   UNL     1      53.659   4.368  18.793  0.00  0.00    +0.000 A 
ATOM     20  C   UNL     1      53.734   3.030  18.478  0.00  0.00    +0.000 A 
ATOM     21  C   UNL     1      52.565   2.441  18.061  0.00  0.00    +0.000 A 
ATOM     22  N   UNL     1      51.377   3.078  17.968  0.00  0.00    +0.000 NA
ATOM     23  C   UNL     1      51.381   4.363  18.330  0.00  0.00    +0.000 A 
ATOM     24  N   UNL     1      50.199   5.072  18.349  0.00  0.00    +0.000 N 
ATOM     25  N   UNL     1      52.480   5.031  18.719  0.00  0.00    +0.000 NA
ATOM     26  H   UNL     1      50.403   6.065  18.380  0.00  0.00    +0.000 HD
BRANCH  21  27
ATOM     27  C   UNL     1      52.594   1.004  17.654  0.00  0.00    +0.000 C 
ATOM     28  N   UNL     1      51.550   0.237  18.095  0.00  0.00    +0.000 N 
ATOM     29  O   UNL     1      53.488   0.535  16.962  0.00  0.00    +0.000 OA
ATOM     30  H   UNL     1      50.861   0.630  18.723  0.00  0.00    +0.000 HD
ATOM     31  H   UNL     1      51.546  -0.750  17.881  0.00  0.00    +0.000 HD
ENDBRANCH  21  27
BRANCH  19  33
ATOM     32  C   UNL     1      55.763   5.455  17.955  0.00  0.00    +0.000 C 
ATOM     33  C   UNL     1      54.924   5.132  19.209  0.00  0.00    +0.000 C 
ATOM     34  C   UNL     1      55.762   4.275  20.180  0.00  0.00    +0.000 C 
ATOM     35  C   UNL     1      54.599   6.464  19.914  0.00  0.00    +0.000 C 
ENDBRANCH  19  33
ENDBRANCH   1  24
TORSDOF 6
ENDMDL
MODEL 4
REMARK VINA RESULT:    -5.898      3.778      8.140
REMARK INTER + INTRA:          -8.680
REMARK INTER:                  -7.830
REMARK INTRA:                  -0.850
REMARK UNBOUND:                -0.714
REMARK  Name = 
REMARK  9 active torsions:
REMARK  status: ('A' for Active; 'I' for Inactive)
REMARK    1  A    between atoms: C_1  and  C_2
REMARK    2  A    between atoms: C_2  and  C_3
REMARK    3  A    between atoms: C_2  and  C_4
REMARK    4  A    between atoms: C_2  and  C_5
REMARK    5  A    between atoms: C_7  and  C_8
REMARK    6  A    between atoms: N_13  and  C_14
REMARK    7  A    between atoms: C_14  and  C_15
REMARK    8  A    between atoms: N_23  and  C_24
REMARK    9  A    between atoms: C_24  and  C_25
REMARK                            x       y       z     vdW  Elec       q    Type
REMARK                         _______ _______ _______ _____ _____    ______ ____
ROOT
ATOM      1  C   UNL     1      49.337   7.920  11.842  0.00  0.00    +0.000 C 
ENDROOT
BRANCH   1   2
ATOM      2  C   UNL     1      49.964   8.552  13.067  0.00  0.00    +0.000 A 
ATOM      3  C   UNL     1      50.919   9.540  12.949  0.00  0.00    +0.000 A 
ATOM      4  C   UNL     1      51.368  10.067  14.125  0.00  0.00    +0.000 A 
ATOM      5  N   UNL     1      50.925   9.679  15.333  0.00  0.00    +0.000 NA
ATOM      6  C   UNL     1      50.019   8.692  15.381  0.00  0.00    +0.000 A 
ATOM      7  N   UNL     1      49.541   8.282  16.600  0.00  0.00    +0.000 N 
ATOM      8  C   UNL     1      49.888   9.013  17.815  0.00  0.00    +0.000 C 
ATOM      9  C   UNL     1      50.587   8.083  18.827  0.00  0.00    +0.000 C 
ATOM     10  N   UNL     1      49.856   6.824  19.120  0.00  0.00    +0.000 NA
ATOM     11  C   UNL     1      49.621   6.130  17.827  0.00  0.00    +0.000 C 
ATOM     12  C   UNL     1      48.913   6.970  16.734  0.00  0.00    +0.000 C 
ATOM     13  N   UNL     1      49.538   8.107  14.272  0.00  0.00    +0.000 NA
BRANCH  10  14
ATOM     14  C   UNL     1      48.571   7.055  19.837  0.00  0.00    +0.000 C 
BRANCH  14  15
ATOM     15  C   UNL     1      47.594   5.875  20.071  0.00  0.00    +0.000 C 
ATOM     16  F   UNL     1      46.793   5.618  19.018  0.00  0.00    +0.000 F 
ATOM     17  F   UNL     1      48.288   4.742  20.336  0.00  0.00    +0.000 F 
ATOM     18  F   UNL     1      46.797   6.115  21.139  0.00  0.00    +0.000 F 
ENDBRANCH  14  15
ENDBRANCH  10  14
ENDBRANCH   1   2
BRANCH   1  24
ATOM     19  C   UNL     1      45.082   5.909  11.458  0.00  0.00    +0.000 A 
ATOM     20  C   UNL     1      44.430   7.123  11.468  0.00  0.00    +0.000 A 
ATOM     21  C   UNL     1      45.218   8.229  11.672  0.00  0.00    +0.000 A 
ATOM     22  N   UNL     1      46.552   8.191  11.879  0.00  0.00    +0.000 NA
ATOM     23  C   UNL     1      47.101   6.975  11.893  0.00  0.00    +0.000 A 
ATOM     24  N   UNL     1      48.441   6.832  12.181  0.00  0.00    +0.000 N 
ATOM     25  N   UNL     1      46.417   5.839  11.672  0.00  0.00    +0.000 NA
ATOM     26  H   UNL     1      48.750   5.909  11.895  0.00  0.00    +0.000 HD
BRANCH  21  27
ATOM     27  C   UNL     1      44.577   9.579  11.641  0.00  0.00    +0.000 C 
ATOM     28  N   UNL     1      45.146  10.528  12.445  0.00  0.00    +0.000 N 
ATOM     29  O   UNL     1      43.607   9.829  10.937  0.00  0.00    +0.000 OA
ATOM     30  H   UNL     1      45.902  10.279  13.070  0.00  0.00    +0.000 HD
ATOM     31  H   UNL     1      44.723  11.444  12.491  0.00  0.00    +0.000 HD
ENDBRANCH  21  27
BRANCH  19  33
ATOM     32  C   UNL     1      44.901   3.463  12.000  0.00  0.00    +0.000 C 
ATOM     33  C   UNL     1      44.299   4.619  11.175  0.00  0.00    +0.000 C 
ATOM     34  C   UNL     1      44.377   4.273   9.674  0.00  0.00    +0.000 C 
ATOM     35  C   UNL     1      42.810   4.743  11.554  0.00  0.00    +0.000 C 
ENDBRANCH  19  33
ENDBRANCH   1  24
TORSDOF 6
ENDMDL
MODEL 5
REMARK VINA RESULT:    -5.821      3.502      7.580
REMARK INTER + INTRA:          -8.576
REMARK INTER:                  -8.224
REMARK INTRA:                  -0.353
REMARK UNBOUND:                -0.714
REMARK  Name = 
REMARK  9 active torsions:
REMARK  status: ('A' for Active; 'I' for Inactive)
REMARK    1  A    between atoms: C_1  and  C_2
REMARK    2  A    between atoms: C_2  and  C_3
REMARK    3  A    between atoms: C_2  and  C_4
REMARK    4  A    between atoms: C_2  and  C_5
REMARK    5  A    between atoms: C_7  and  C_8
REMARK    6  A    between atoms: N_13  and  C_14
REMARK    7  A    between atoms: C_14  and  C_15
REMARK    8  A    between atoms: N_23  and  C_24
REMARK    9  A    between atoms: C_24  and  C_25
REMARK                            x       y       z     vdW  Elec       q    Type
REMARK                         _______ _______ _______ _____ _____    ______ ____
ROOT
ATOM      1  C   UNL     1      49.620   7.478  12.238  0.00  0.00    +0.000 C 
ENDROOT
BRANCH   1   2
ATOM      2  C   UNL     1      49.258   8.333  13.434  0.00  0.00    +0.000 A 
ATOM      3  C   UNL     1      48.948   9.668  13.287  0.00  0.00    +0.000 A 
ATOM      4  C   UNL     1      48.586  10.318  14.432  0.00  0.00    +0.000 A 
ATOM      5  N   UNL     1      48.518   9.724  15.636  0.00  0.00    +0.000 NA
ATOM      6  C   UNL     1      48.862   8.432  15.717  0.00  0.00    +0.000 A 
ATOM      7  N   UNL     1      48.793   7.796  16.931  0.00  0.00    +0.000 N 
ATOM      8  C   UNL     1      48.202   8.467  18.084  0.00  0.00    +0.000 C 
ATOM      9  C   UNL     1      49.216   8.552  19.242  0.00  0.00    +0.000 C 
ATOM     10  N   UNL     1      49.848   7.261  19.609  0.00  0.00    +0.000 NA
ATOM     11  C   UNL     1      50.478   6.704  18.384  0.00  0.00    +0.000 C 
ATOM     12  C   UNL     1      49.544   6.564  17.154  0.00  0.00    +0.000 C 
ATOM     13  N   UNL     1      49.247   7.724  14.643  0.00  0.00    +0.000 NA
BRANCH  10  14
ATOM     14  C   UNL     1      48.882   6.289  20.194  0.00  0.00    +0.000 C 
BRANCH  14  15
ATOM     15  C   UNL     1      49.309   4.818  20.424  0.00  0.00    +0.000 C 
ATOM     16  F   UNL     1      49.517   4.129  19.283  0.00  0.00    +0.000 F 
ATOM     17  F   UNL     1      50.459   4.772  21.138  0.00  0.00    +0.000 F 
ATOM     18  F   UNL     1      48.370   4.149  21.135  0.00  0.00    +0.000 F 
ENDBRANCH  14  15
ENDBRANCH  10  14
ENDBRANCH   1   2
BRANCH   1  24
ATOM     19  C   UNL     1      45.260   5.664  12.250  0.00  0.00    +0.000 A 
ATOM     20  C   UNL     1      45.543   4.810  13.293  0.00  0.00    +0.000 A 
ATOM     21  C   UNL     1      46.845   4.801  13.731  0.00  0.00    +0.000 A 
ATOM     22  N   UNL     1      47.837   5.544  13.194  0.00  0.00    +0.000 NA
ATOM     23  C   UNL     1      47.490   6.315  12.162  0.00  0.00    +0.000 A 
ATOM     24  N   UNL     1      48.452   7.044  11.497  0.00  0.00    +0.000 N 
ATOM     25  N   UNL     1      46.237   6.413  11.686  0.00  0.00    +0.000 NA
ATOM     26  H   UNL     1      48.004   7.758  10.935  0.00  0.00    +0.000 HD
BRANCH  21  27
ATOM     27  C   UNL     1      47.202   3.935  14.894  0.00  0.00    +0.000 C 
ATOM     28  N   UNL     1      46.823   4.400  16.123  0.00  0.00    +0.000 N 
ATOM     29  O   UNL     1      47.791   2.870  14.764  0.00  0.00    +0.000 OA
ATOM     30  H   UNL     1      46.401   5.316  16.213  0.00  0.00    +0.000 HD
ATOM     31  H   UNL     1      47.079   3.871  16.945  0.00  0.00    +0.000 HD
ENDBRANCH  21  27
BRANCH  19  33
ATOM     32  C   UNL     1      42.835   5.380  12.843  0.00  0.00    +0.000 C 
ATOM     33  C   UNL     1      43.821   5.793  11.730  0.00  0.00    +0.000 C 
ATOM     34  C   UNL     1      43.620   4.881  10.503  0.00  0.00    +0.000 C 
ATOM     35  C   UNL     1      43.478   7.235  11.309  0.00  0.00    +0.000 C 
ENDBRANCH  19  33
ENDBRANCH   1  24
TORSDOF 6
ENDMDL
MODEL 6
REMARK VINA RESULT:    -5.742      2.592      3.455
REMARK INTER + INTRA:          -8.471
REMARK INTER:                  -7.747
REMARK INTRA:                  -0.723
REMARK UNBOUND:                -0.714
REMARK  Name = 
REMARK  9 active torsions:
REMARK  status: ('A' for Active; 'I' for Inactive)
REMARK    1  A    between atoms: C_1  and  C_2
REMARK    2  A    between atoms: C_2  and  C_3
REMARK    3  A    between atoms: C_2  and  C_4
REMARK    4  A    between atoms: C_2  and  C_5
REMARK    5  A    between atoms: C_7  and  C_8
REMARK    6  A    between atoms: N_13  and  C_14
REMARK    7  A    between atoms: C_14  and  C_15
REMARK    8  A    between atoms: N_23  and  C_24
REMARK    9  A    between atoms: C_24  and  C_25
REMARK                            x       y       z     vdW  Elec       q    Type
REMARK                         _______ _______ _______ _____ _____    ______ ____
ROOT
ATOM      1  C   UNL     1      48.766   8.003  16.182  0.00  0.00    +0.000 C 
ENDROOT
BRANCH   1   2
ATOM      2  C   UNL     1      48.242   8.149  14.769  0.00  0.00    +0.000 A 
ATOM      3  C   UNL     1      48.407   9.324  14.067  0.00  0.00    +0.000 A 
ATOM      4  C   UNL     1      47.939   9.314  12.784  0.00  0.00    +0.000 A 
ATOM      5  N   UNL     1      47.360   8.245  12.211  0.00  0.00    +0.000 NA
ATOM      6  C   UNL     1      47.201   7.143  12.957  0.00  0.00    +0.000 A 
ATOM      7  N   UNL     1      46.623   6.033  12.395  0.00  0.00    +0.000 N 
ATOM      8  C   UNL     1      46.330   5.994  10.966  0.00  0.00    +0.000 C 
ATOM      9  C   UNL     1      44.828   5.745  10.726  0.00  0.00    +0.000 C 
ATOM     10  N   UNL     1      44.271   4.572  11.443  0.00  0.00    +0.000 NA
ATOM     11  C   UNL     1      44.560   4.750  12.890  0.00  0.00    +0.000 C 
ATOM     12  C   UNL     1      46.047   4.998  13.251  0.00  0.00    +0.000 C 
ATOM     13  N   UNL     1      47.616   7.075  14.233  0.00  0.00    +0.000 NA
BRANCH  10  14
ATOM     14  C   UNL     1      44.821   3.277  10.950  0.00  0.00    +0.000 C 
BRANCH  14  15
ATOM     15  C   UNL     1      44.743   2.929   9.442  0.00  0.00    +0.000 C 
ATOM     16  F   UNL     1      43.921   3.737   8.741  0.00  0.00    +0.000 F 
ATOM     17  F   UNL     1      45.973   3.018   8.879  0.00  0.00    +0.000 F 
ATOM     18  F   UNL     1      44.313   1.658   9.264  0.00  0.00    +0.000 F 
ENDBRANCH  14  15
ENDBRANCH  10  14
ENDBRANCH   1   2
BRANCH   1  24
ATOM     19  C   UNL     1      53.227   6.455  16.281  0.00  0.00    +0.000 A 
ATOM     20  C   UNL     1      52.894   5.330  17.002  0.00  0.00    +0.000 A 
ATOM     21  C   UNL     1      51.585   5.239  17.409  0.00  0.00    +0.000 A 
ATOM     22  N   UNL     1      50.642   6.174  17.168  0.00  0.00    +0.000 NA
ATOM     23  C   UNL     1      51.054   7.252  16.497  0.00  0.00    +0.000 A 
ATOM     24  N   UNL     1      50.182   8.297  16.278  0.00  0.00    +0.000 N 
ATOM     25  N   UNL     1      52.303   7.415  16.032  0.00  0.00    +0.000 NA
ATOM     26  H   UNL     1      50.552   8.896  15.549  0.00  0.00    +0.000 HD
BRANCH  21  27
ATOM     27  C   UNL     1      51.151   4.016  18.150  0.00  0.00    +0.000 C 
ATOM     28  N   UNL     1      52.111   3.403  18.906  0.00  0.00    +0.000 N 
ATOM     29  O   UNL     1      50.005   3.588  18.097  0.00  0.00    +0.000 OA
ATOM     30  H   UNL     1      53.068   3.734  18.879  0.00  0.00    +0.000 HD
ATOM     31  H   UNL     1      51.878   2.549  19.392  0.00  0.00    +0.000 HD
ENDBRANCH  21  27
BRANCH  19  33
ATOM     32  C   UNL     1      55.411   5.286  15.866  0.00  0.00    +0.000 C 
ATOM     33  C   UNL     1      54.649   6.621  15.727  0.00  0.00    +0.000 C 
ATOM     34  C   UNL     1      55.395   7.721  16.509  0.00  0.00    +0.000 C 
ATOM     35  C   UNL     1      54.654   7.014  14.236  0.00  0.00    +0.000 C 
ENDBRANCH  19  33
ENDBRANCH   1  24
TORSDOF 6
ENDMDL
MODEL 7
REMARK VINA RESULT:    -5.545      1.786      2.346
REMARK INTER + INTRA:          -8.204
REMARK INTER:                  -7.164
REMARK INTRA:                  -1.040
REMARK UNBOUND:                -0.714
REMARK  Name = 
REMARK  9 active torsions:
REMARK  status: ('A' for Active; 'I' for Inactive)
REMARK    1  A    between atoms: C_1  and  C_2
REMARK    2  A    between atoms: C_2  and  C_3
REMARK    3  A    between atoms: C_2  and  C_4
REMARK    4  A    between atoms: C_2  and  C_5
REMARK    5  A    between atoms: C_7  and  C_8
REMARK    6  A    between atoms: N_13  and  C_14
REMARK    7  A    between atoms: C_14  and  C_15
REMARK    8  A    between atoms: N_23  and  C_24
REMARK    9  A    between atoms: C_24  and  C_25
REMARK                            x       y       z     vdW  Elec       q    Type
REMARK                         _______ _______ _______ _____ _____    ______ ____
ROOT
ATOM      1  C   UNL     1      48.507   9.427  16.145  0.00  0.00    +0.000 C 
ENDROOT
BRANCH   1   2
ATOM      2  C   UNL     1      48.568   9.065  14.677  0.00  0.00    +0.000 A 
ATOM      3  C   UNL     1      49.467   9.679  13.829  0.00  0.00    +0.000 A 
ATOM      4  C   UNL     1      49.462   9.228  12.541  0.00  0.00    +0.000 A 
ATOM      5  N   UNL     1      48.656   8.249  12.097  0.00  0.00    +0.000 NA
ATOM      6  C   UNL     1      47.783   7.715  12.963  0.00  0.00    +0.000 A 
ATOM      7  N   UNL     1      46.954   6.707  12.540  0.00  0.00    +0.000 N 
ATOM      8  C   UNL     1      47.126   6.112  11.219  0.00  0.00    +0.000 C 
ATOM      9  C   UNL     1      45.834   6.251  10.389  0.00  0.00    +0.000 C 
ATOM     10  N   UNL     1      44.606   5.765  11.065  0.00  0.00    +0.000 NA
ATOM     11  C   UNL     1      44.491   6.485  12.360  0.00  0.00    +0.000 C 
ATOM     12  C   UNL     1      45.734   6.405  13.284  0.00  0.00    +0.000 C 
ATOM     13  N   UNL     1      47.710   8.113  14.243  0.00  0.00    +0.000 NA
BRANCH  10  14
ATOM     14  C   UNL     1      44.609   4.290  11.280  0.00  0.00    +0.000 C 
BRANCH  14  15
ATOM     15  C   UNL     1      43.358   3.594  11.873  0.00  0.00    +0.000 C 
ATOM     16  F   UNL     1      43.181   2.332  11.432  0.00  0.00    +0.000 F 
ATOM     17  F   UNL     1      43.452   3.539  13.224  0.00  0.00    +0.000 F 
ATOM     18  F   UNL     1      42.235   4.289  11.578  0.00  0.00    +0.000 F 
ENDBRANCH  14  15
ENDBRANCH  10  14
ENDBRANCH   1   2
BRANCH   1  24
ATOM     19  C   UNL     1      50.789   5.654  17.834  0.00  0.00    +0.000 A 
ATOM     20  C   UNL     1      49.619   4.980  18.105  0.00  0.00    +0.000 A 
ATOM     21  C   UNL     1      48.456   5.677  17.885  0.00  0.00    +0.000 A 
ATOM     22  N   UNL     1      48.400   6.956  17.455  0.00  0.00    +0.000 NA
ATOM     23  C   UNL     1      49.578   7.551  17.253  0.00  0.00    +0.000 A 
ATOM     24  N   UNL     1      49.621   8.881  16.895  0.00  0.00    +0.000 N 
ATOM     25  N   UNL     1      50.764   6.940  17.410  0.00  0.00    +0.000 NA
ATOM     26  H   UNL     1      50.540   9.100  16.529  0.00  0.00    +0.000 HD
BRANCH  21  27
ATOM     27  C   UNL     1      47.152   4.982  18.110  0.00  0.00    +0.000 C 
ATOM     28  N   UNL     1      46.318   5.559  19.028  0.00  0.00    +0.000 N 
ATOM     29  O   UNL     1      46.839   3.963  17.507  0.00  0.00    +0.000 OA
ATOM     30  H   UNL     1      46.628   6.360  19.564  0.00  0.00    +0.000 HD
ATOM     31  H   UNL     1      45.443   5.104  19.246  0.00  0.00    +0.000 HD
ENDBRANCH  21  27
BRANCH  19  33
ATOM     32  C   UNL     1      53.145   5.523  16.972  0.00  0.00    +0.000 C 
ATOM     33  C   UNL     1      52.140   4.940  17.987  0.00  0.00    +0.000 C 
ATOM     34  C   UNL     1      51.970   3.429  17.730  0.00  0.00    +0.000 C 
ATOM     35  C   UNL     1      52.738   5.116  19.397  0.00  0.00    +0.000 C 
ENDBRANCH  19  33
ENDBRANCH   1  24
TORSDOF 6
ENDMDL
MODEL 8
REMARK VINA RESULT:    -5.018     11.185     13.954
REMARK INTER + INTRA:          -7.492
REMARK INTER:                  -6.483
REMARK INTRA:                  -1.010
REMARK UNBOUND:                -0.714
REMARK  Name = 
REMARK  9 active torsions:
REMARK  status: ('A' for Active; 'I' for Inactive)
REMARK    1  A    between atoms: C_1  and  C_2
REMARK    2  A    between atoms: C_2  and  C_3
REMARK    3  A    between atoms: C_2  and  C_4
REMARK    4  A    between atoms: C_2  and  C_5
REMARK    5  A    between atoms: C_7  and  C_8
REMARK    6  A    between atoms: N_13  and  C_14
REMARK    7  A    between atoms: C_14  and  C_15
REMARK    8  A    between atoms: N_23  and  C_24
REMARK    9  A    between atoms: C_24  and  C_25
REMARK                            x       y       z     vdW  Elec       q    Type
REMARK                         _______ _______ _______ _____ _____    ______ ____
ROOT
ATOM      1  C   UNL     1      41.078  -2.824  13.354  0.00  0.00    +0.000 C 
ENDROOT
BRANCH   1   2
ATOM      2  C   UNL     1      40.573  -2.892  14.780  0.00  0.00    +0.000 A 
ATOM      3  C   UNL     1      40.681  -4.051  15.519  0.00  0.00    +0.000 A 
ATOM      4  C   UNL     1      40.237  -3.971  16.807  0.00  0.00    +0.000 A 
ATOM      5  N   UNL     1      39.734  -2.851  17.354  0.00  0.00    +0.000 NA
ATOM      6  C   UNL     1      39.627  -1.767  16.573  0.00  0.00    +0.000 A 
ATOM      7  N   UNL     1      39.126  -0.606  17.106  0.00  0.00    +0.000 N 
ATOM      8  C   UNL     1      38.862  -0.503  18.538  0.00  0.00    +0.000 C 
ATOM      9  C   UNL     1      37.382  -0.156  18.794  0.00  0.00    +0.000 C 
ATOM     10  N   UNL     1      36.883   1.025  18.047  0.00  0.00    +0.000 NA
ATOM     11  C   UNL     1      37.135   0.782  16.602  0.00  0.00    +0.000 C 
ATOM     12  C   UNL     1      38.598   0.433  16.226  0.00  0.00    +0.000 C 
ATOM     13  N   UNL     1      40.022  -1.766  15.290  0.00  0.00    +0.000 NA
BRANCH  10  14
ATOM     14  C   UNL     1      37.518   2.299  18.487  0.00  0.00    +0.000 C 
BRANCH  14  15
ATOM     15  C   UNL     1      37.037   3.647  17.894  0.00  0.00    +0.000 C 
ATOM     16  F   UNL     1      35.743   3.641  17.514  0.00  0.00    +0.000 F 
ATOM     17  F   UNL     1      37.184   4.637  18.808  0.00  0.00    +0.000 F 
ATOM     18  F   UNL     1      37.776   3.989  16.812  0.00  0.00    +0.000 F 
ENDBRANCH  14  15
ENDBRANCH  10  14
ENDBRANCH   1   2
BRANCH   1  24
ATOM     19  C   UNL     1      38.262  -2.780   9.564  0.00  0.00    +0.000 A 
ATOM     20  C   UNL     1      37.734  -1.549   9.884  0.00  0.00    +0.000 A 
ATOM     21  C   UNL     1      38.142  -1.009  11.079  0.00  0.00    +0.000 A 
ATOM     22  N   UNL     1      38.988  -1.611  11.942  0.00  0.00    +0.000 NA
ATOM     23  C   UNL     1      39.424  -2.819  11.577  0.00  0.00    +0.000 A 
ATOM     24  N   UNL     1      40.224  -3.545  12.432  0.00  0.00    +0.000 N 
ATOM     25  N   UNL     1      39.105  -3.412  10.414  0.00  0.00    +0.000 NA
ATOM     26  H   UNL     1      40.675  -4.293  11.916  0.00  0.00    +0.000 HD
BRANCH  21  27
ATOM     27  C   UNL     1      37.644   0.348  11.458  0.00  0.00    +0.000 C 
ATOM     28  N   UNL     1      37.514   1.244  10.433  0.00  0.00    +0.000 N 
ATOM     29  O   UNL     1      37.361   0.646  12.611  0.00  0.00    +0.000 OA
ATOM     30  H   UNL     1      37.821   0.997   9.500  0.00  0.00    +0.000 HD
ATOM     31  H   UNL     1      37.222   2.188  10.643  0.00  0.00    +0.000 HD
ENDBRANCH  21  27
BRANCH  19  33
ATOM     32  C   UNL     1      36.741  -4.418   8.418  0.00  0.00    +0.000 C 
ATOM     33  C   UNL     1      37.916  -3.439   8.221  0.00  0.00    +0.000 C 
ATOM     34  C   UNL     1      39.140  -4.208   7.681  0.00  0.00    +0.000 C 
ATOM     35  C   UNL     1      37.498  -2.408   7.154  0.00  0.00    +0.000 C 
ENDBRANCH  19  33
ENDBRANCH   1  24
TORSDOF 6
ENDMDL
MODEL 9
REMARK VINA RESULT:    -4.873      4.857      9.418
REMARK INTER + INTRA:          -7.297
REMARK INTER:                  -6.298
REMARK INTRA:                  -0.999
REMARK UNBOUND:                -0.714
REMARK  Name = 
REMARK  9 active torsions:
REMARK  status: ('A' for Active; 'I' for Inactive)
REMARK    1  A    between atoms: C_1  and  C_2
REMARK    2  A    between atoms: C_2  and  C_3
REMARK    3  A    between atoms: C_2  and  C_4
REMARK    4  A    between atoms: C_2  and  C_5
REMARK    5  A    between atoms: C_7  and  C_8
REMARK    6  A    between atoms: N_13  and  C_14
REMARK    7  A    between atoms: C_14  and  C_15
REMARK    8  A    between atoms: N_23  and  C_24
REMARK    9  A    between atoms: C_24  and  C_25
REMARK                            x       y       z     vdW  Elec       q    Type
REMARK                         _______ _______ _______ _____ _____    ______ ____
ROOT
ATOM      1  C   UNL     1      47.166   5.861  12.751  0.00  0.00    +0.000 C 
ENDROOT
BRANCH   1   2
ATOM      2  C   UNL     1      47.519   5.436  14.161  0.00  0.00    +0.000 A 
ATOM      3  C   UNL     1      47.081   4.233  14.673  0.00  0.00    +0.000 A 
ATOM      4  C   UNL     1      47.510   3.941  15.935  0.00  0.00    +0.000 A 
ATOM      5  N   UNL     1      48.313   4.743  16.655  0.00  0.00    +0.000 NA
ATOM      6  C   UNL     1      48.678   5.913  16.112  0.00  0.00    +0.000 A 
ATOM      7  N   UNL     1      49.506   6.748  16.819  0.00  0.00    +0.000 N 
ATOM      8  C   UNL     1      50.110   6.306  18.071  0.00  0.00    +0.000 C 
ATOM      9  C   UNL     1      49.718   7.249  19.226  0.00  0.00    +0.000 C 
ATOM     10  N   UNL     1      49.968   8.689  18.963  0.00  0.00    +0.000 NA
ATOM     11  C   UNL     1      49.251   9.047  17.711  0.00  0.00    +0.000 C 
ATOM     12  C   UNL     1      49.576   8.167  16.477  0.00  0.00    +0.000 C 
ATOM     13  N   UNL     1      48.286   6.286  14.883  0.00  0.00    +0.000 NA
BRANCH  10  14
ATOM     14  C   UNL     1      51.418   9.014  18.853  0.00  0.00    +0.000 C 
BRANCH  14  15
ATOM     15  C   UNL     1      51.871  10.492  18.742  0.00  0.00    +0.000 C 
ATOM     16  F   UNL     1      51.014  11.366  19.307  0.00  0.00    +0.000 F 
ATOM     17  F   UNL     1      53.073  10.657  19.347  0.00  0.00    +0.000 F 
ATOM     18  F   UNL     1      52.023  10.852  17.446  0.00  0.00    +0.000 F 
ENDBRANCH  14  15
ENDBRANCH  10  14
ENDBRANCH   1   2
BRANCH   1  24
ATOM     19  C   UNL     1      44.860   9.757  11.410  0.00  0.00    +0.000 A 
ATOM     20  C   UNL     1      45.940  10.571  11.672  0.00  0.00    +0.000 A 
ATOM     21  C   UNL     1      47.031   9.961  12.240  0.00  0.00    +0.000 A 
ATOM     22  N   UNL     1      47.093   8.652  12.568  0.00  0.00    +0.000 NA
ATOM     23  C   UNL     1      45.991   7.941  12.318  0.00  0.00    +0.000 A 
ATOM     24  N   UNL     1      45.931   6.617  12.696  0.00  0.00    +0.000 N 
ATOM     25  N   UNL     1      44.889   8.443  11.736  0.00  0.00    +0.000 NA
ATOM     26  H   UNL     1      45.165   6.164  12.211  0.00  0.00    +0.000 HD
BRANCH  21  27
ATOM     27  C   UNL     1      48.254  10.781  12.500  0.00  0.00    +0.000 C 
ATOM     28  N   UNL     1      48.383  11.276  13.768  0.00  0.00    +0.000 N 
ATOM     29  O   UNL     1      49.097  10.993  11.638  0.00  0.00    +0.000 OA
ATOM     30  H   UNL     1      47.639  11.146  14.443  0.00  0.00    +0.000 HD
ATOM     31  H   UNL     1      49.170  11.871  13.982  0.00  0.00    +0.000 HD
ENDBRANCH  21  27
BRANCH  19  33
ATOM     32  C   UNL     1      42.536   9.233  10.611  0.00  0.00    +0.000 C 
ATOM     33  C   UNL     1      43.615  10.331  10.718  0.00  0.00    +0.000 C 
ATOM     34  C   UNL     1      43.981  10.831   9.305  0.00  0.00    +0.000 C 
ATOM     35  C   UNL     1      43.007  11.515  11.495  0.00  0.00    +0.000 C 
ENDBRANCH  19  33
ENDBRANCH   1  24
TORSDOF 6
ENDMDL
