MODEL 1
REMARK VINA RESULT:    -8.033      0.000      0.000
REMARK INTER + INTRA:         -13.144
REMARK INTER:                 -11.790
REMARK INTRA:                  -1.354
REMARK UNBOUND:                -1.354
REMARK  Name = 
REMARK  10 active torsions:
REMARK  status: ('A' for Active; 'I' for Inactive)
REMARK    1  A    between atoms: C_1  and  O_2
REMARK    2  A    between atoms: O_2  and  C_3
REMARK    3  A    between atoms: C_10  and  C_11
REMARK    4  A    between atoms: N_13  and  C_14
REMARK    5  A    between atoms: C_14  and  C_15
REMARK    6  A    between atoms: C_18  and  C_19
REMARK    7  A    between atoms: C_19  and  N_20
REMARK    8  A    between atoms: N_20  and  C_21
REMARK    9  A    between atoms: C_21  and  C_22
REMARK   10  A    between atoms: C_24  and  C_25
REMARK                            x       y       z     vdW  Elec       q    Type
REMARK                         _______ _______ _______ _____ _____    ______ ____
ROOT
ATOM      1  C   UNL     1      47.474   6.311  12.917  0.00  0.00    +0.000 A 
ATOM      2  C   UNL     1      47.064   6.870  11.700  0.00  0.00    +0.000 A 
ATOM      3  C   UNL     1      45.787   6.609  11.189  0.00  0.00    +0.000 A 
ATOM      4  C   UNL     1      44.890   5.786  11.884  0.00  0.00    +0.000 A 
ATOM      5  C   UNL     1      45.310   5.209  13.090  0.00  0.00    +0.000 A 
ATOM      6  C   UNL     1      46.586   5.473  13.604  0.00  0.00    +0.000 A 
ENDROOT
BRANCH   1   7
ATOM      7  C   UNL     1      48.825   6.647  13.494  0.00  0.00    +0.000 C 
BRANCH   7  10
ATOM      8  C   UNL     1      49.873   7.084  15.669  0.00  0.00    +0.000 C 
ATOM      9  O   UNL     1      50.886   7.499  15.109  0.00  0.00    +0.000 OA
ATOM     10  N   UNL     1      48.805   6.631  14.939  0.00  0.00    +0.000 N 
ATOM     11  H   UNL     1      47.964   6.311  15.402  0.00  0.00    +0.000 HD
BRANCH   8  19
ATOM     12  C   UNL     1      49.017   4.658  17.975  0.00  0.00    +0.000 A 
ATOM     13  N   UNL     1      48.701   3.934  19.069  0.00  0.00    +0.000 NA
ATOM     14  C   UNL     1      48.780   4.526  20.263  0.00  0.00    +0.000 A 
ATOM     15  N   UNL     1      49.146   5.779  20.508  0.00  0.00    +0.000 NA
ATOM     16  C   UNL     1      49.441   6.469  19.392  0.00  0.00    +0.000 A 
ATOM     17  S   UNL     1      49.934   8.089  19.521  0.00  0.00    +0.000 S 
ATOM     18  C   UNL     1      50.087   8.223  17.835  0.00  0.00    +0.000 A 
ATOM     19  C   UNL     1      49.776   7.059  17.140  0.00  0.00    +0.000 A 
ATOM     20  C   UNL     1      49.396   6.007  18.080  0.00  0.00    +0.000 A 
BRANCH  12  22
ATOM     21  C   UNL     1      47.673   3.413  16.533  0.00  0.00    +0.000 C 
ATOM     22  O   UNL     1      48.935   4.043  16.743  0.00  0.00    +0.000 OA
ENDBRANCH  12  22
ENDBRANCH   8  19
ENDBRANCH   7  10
ENDBRANCH   1   7
BRANCH   4  23
ATOM     23  C   UNL     1      43.485   5.567  11.364  0.00  0.00    +0.000 C 
BRANCH  23  24
ATOM     24  N   UNL     1      43.493   5.009  10.015  0.00  0.00    +0.000 NA
ATOM     25  H   UNL     1      44.166   5.525   9.449  0.00  0.00    +0.000 HD
BRANCH  24  26
ATOM     26  C   UNL     1      43.899   3.595  10.026  0.00  0.00    +0.000 C 
BRANCH  26  27
ATOM     27  C   UNL     1      44.991   3.313   9.009  0.00  0.00    +0.000 A 
ATOM     28  C   UNL     1      45.442   2.006   8.815  0.00  0.00    +0.000 A 
ATOM     29  C   UNL     1      46.424   1.754   7.856  0.00  0.00    +0.000 A 
ATOM     30  C   UNL     1      46.918   0.361   7.601  0.00  0.00    +0.000 C 
ATOM     31  C   UNL     1      46.938   2.829   7.134  0.00  0.00    +0.000 A 
ATOM     32  C   UNL     1      46.443   4.099   7.392  0.00  0.00    +0.000 A 
ATOM     33  N   UNL     1      45.483   4.365   8.307  0.00  0.00    +0.000 NA
ENDBRANCH  26  27
ENDBRANCH  24  26
ENDBRANCH  23  24
ENDBRANCH   4  23
TORSDOF 8
ENDMDL
MODEL 2
REMARK VINA RESULT:    -7.976      1.776      2.565
REMARK INTER + INTRA:         -13.060
REMARK INTER:                 -11.800
REMARK INTRA:                  -1.260
REMARK UNBOUND:                -1.354
REMARK  Name = 
REMARK  10 active torsions:
REMARK  status: ('A' for Active; 'I' for Inactive)
REMARK    1  A    between atoms: C_1  and  O_2
REMARK    2  A    between atoms: O_2  and  C_3
REMARK    3  A    between atoms: C_10  and  C_11
REMARK    4  A    between atoms: N_13  and  C_14
REMARK    5  A    between atoms: C_14  and  C_15
REMARK    6  A    between atoms: C_18  and  C_19
REMARK    7  A    between atoms: C_19  and  N_20
REMARK    8  A    between atoms: N_20  and  C_21
REMARK    9  A    between atoms: C_21  and  C_22
REMARK   10  A    between atoms: C_24  and  C_25
REMARK                            x       y       z     vdW  Elec       q    Type
REMARK                         _______ _______ _______ _____ _____    ______ ____
ROOT
ATOM      1  C   UNL     1      47.152   6.157  13.350  0.00  0.00    +0.000 A 
ATOM      2  C   UNL     1      46.914   6.840  12.151  0.00  0.00    +0.000 A 
ATOM      3  C   UNL     1      45.737   6.621  11.427  0.00  0.00    +0.000 A 
ATOM      4  C   UNL     1      44.769   5.715  11.886  0.00  0.00    +0.000 A 
ATOM      5  C   UNL     1      45.019   5.016  13.075  0.00  0.00    +0.000 A 
ATOM      6  C   UNL     1      46.196   5.238  13.802  0.00  0.00    +0.000 A 
ENDROOT
BRANCH   1   7
ATOM      7  C   UNL     1      48.391   6.444  14.159  0.00  0.00    +0.000 C 
BRANCH   7  10
ATOM      8  C   UNL     1      48.982   6.204  16.529  0.00  0.00    +0.000 C 
ATOM      9  O   UNL     1      50.062   5.704  16.220  0.00  0.00    +0.000 OA
ATOM     10  N   UNL     1      48.087   6.591  15.564  0.00  0.00    +0.000 N 
ATOM     11  H   UNL     1      47.208   7.021  15.821  0.00  0.00    +0.000 HD
BRANCH   8  19
ATOM     12  C   UNL     1      47.761   8.884  18.335  0.00  0.00    +0.000 A 
ATOM     13  N   UNL     1      47.326   9.751  19.273  0.00  0.00    +0.000 NA
ATOM     14  C   UNL     1      47.211   9.317  20.531  0.00  0.00    +0.000 A 
ATOM     15  N   UNL     1      47.480   8.096  20.980  0.00  0.00    +0.000 NA
ATOM     16  C   UNL     1      47.921   7.267  20.017  0.00  0.00    +0.000 A 
ATOM     17  S   UNL     1      48.308   5.662  20.415  0.00  0.00    +0.000 S 
ATOM     18  C   UNL     1      48.749   5.324  18.810  0.00  0.00    +0.000 A 
ATOM     19  C   UNL     1      48.615   6.403  17.942  0.00  0.00    +0.000 A 
ATOM     20  C   UNL     1      48.109   7.564  18.671  0.00  0.00    +0.000 A 
BRANCH  12  22
ATOM     21  C   UNL     1      49.163   9.893  16.770  0.00  0.00    +0.000 C 
ATOM     22  O   UNL     1      47.878   9.335  17.037  0.00  0.00    +0.000 OA
ENDBRANCH  12  22
ENDBRANCH   8  19
ENDBRANCH   7  10
ENDBRANCH   1   7
BRANCH   4  23
ATOM     23  C   UNL     1      43.464   5.537  11.138  0.00  0.00    +0.000 C 
BRANCH  23  24
ATOM     24  N   UNL     1      43.683   4.991   9.802  0.00  0.00    +0.000 NA
ATOM     25  H   UNL     1      44.462   5.486   9.368  0.00  0.00    +0.000 HD
BRANCH  24  26
ATOM     26  C   UNL     1      44.028   3.563   9.860  0.00  0.00    +0.000 C 
BRANCH  26  27
ATOM     27  C   UNL     1      45.129   3.207   8.876  0.00  0.00    +0.000 A 
ATOM     28  C   UNL     1      45.514   1.875   8.713  0.00  0.00    +0.000 A 
ATOM     29  C   UNL     1      46.504   1.556   7.784  0.00  0.00    +0.000 A 
ATOM     30  C   UNL     1      46.930   0.134   7.563  0.00  0.00    +0.000 C 
ATOM     31  C   UNL     1      47.094   2.590   7.060  0.00  0.00    +0.000 A 
ATOM     32  C   UNL     1      46.661   3.888   7.287  0.00  0.00    +0.000 A 
ATOM     33  N   UNL     1      45.694   4.220   8.172  0.00  0.00    +0.000 NA
ENDBRANCH  26  27
ENDBRANCH  24  26
ENDBRANCH  23  24
ENDBRANCH   4  23
TORSDOF 8
ENDMDL
MODEL 3
REMARK VINA RESULT:    -7.192      2.326      2.833
REMARK INTER + INTRA:         -11.909
REMARK INTER:                 -10.800
REMARK INTRA:                  -1.109
REMARK UNBOUND:                -1.354
REMARK  Name = 
REMARK  10 active torsions:
REMARK  status: ('A' for Active; 'I' for Inactive)
REMARK    1  A    between atoms: C_1  and  O_2
REMARK    2  A    between atoms: O_2  and  C_3
REMARK    3  A    between atoms: C_10  and  C_11
REMARK    4  A    between atoms: N_13  and  C_14
REMARK    5  A    between atoms: C_14  and  C_15
REMARK    6  A    between atoms: C_18  and  C_19
REMARK    7  A    between atoms: C_19  and  N_20
REMARK    8  A    between atoms: N_20  and  C_21
REMARK    9  A    between atoms: C_21  and  C_22
REMARK   10  A    between atoms: C_24  and  C_25
REMARK                            x       y       z     vdW  Elec       q    Type
REMARK                         _______ _______ _______ _____ _____    ______ ____
ROOT
ATOM      1  C   UNL     1      47.814   6.579  14.448  0.00  0.00    +0.000 A 
ATOM      2  C   UNL     1      47.800   7.518  13.409  0.00  0.00    +0.000 A 
ATOM      3  C   UNL     1      47.170   7.227  12.194  0.00  0.00    +0.000 A 
ATOM      4  C   UNL     1      46.536   5.993  11.990  0.00  0.00    +0.000 A 
ATOM      5  C   UNL     1      46.570   5.046  13.023  0.00  0.00    +0.000 A 
ATOM      6  C   UNL     1      47.198   5.338  14.241  0.00  0.00    +0.000 A 
ENDROOT
BRANCH   1   7
ATOM      7  C   UNL     1      48.438   6.922  15.776  0.00  0.00    +0.000 C 
BRANCH   7  10
ATOM      8  C   UNL     1      50.248   6.164  17.251  0.00  0.00    +0.000 C 
ATOM      9  O   UNL     1      50.112   7.167  17.949  0.00  0.00    +0.000 OA
ATOM     10  N   UNL     1      49.462   5.970  16.145  0.00  0.00    +0.000 N 
ATOM     11  H   UNL     1      49.560   5.133  15.584  0.00  0.00    +0.000 HD
BRANCH   8  19
ATOM     12  C   UNL     1      50.306   2.714  17.092  0.00  0.00    +0.000 A 
ATOM     13  N   UNL     1      50.590   1.397  17.166  0.00  0.00    +0.000 NA
ATOM     14  C   UNL     1      51.791   1.034  17.624  0.00  0.00    +0.000 A 
ATOM     15  N   UNL     1      52.768   1.841  18.024  0.00  0.00    +0.000 NA
ATOM     16  C   UNL     1      52.441   3.143  17.944  0.00  0.00    +0.000 A 
ATOM     17  S   UNL     1      53.577   4.315  18.411  0.00  0.00    +0.000 S 
ATOM     18  C   UNL     1      52.491   5.572  18.057  0.00  0.00    +0.000 A 
ATOM     19  C   UNL     1      51.258   5.142  17.579  0.00  0.00    +0.000 A 
ATOM     20  C   UNL     1      51.236   3.683  17.506  0.00  0.00    +0.000 A 
BRANCH  12  22
ATOM     21  C   UNL     1      48.058   3.024  17.626  0.00  0.00    +0.000 C 
ATOM     22  O   UNL     1      49.065   3.086  16.618  0.00  0.00    +0.000 OA
ENDBRANCH  12  22
ENDBRANCH   8  19
ENDBRANCH   7  10
ENDBRANCH   1   7
BRANCH   4  23
ATOM     23  C   UNL     1      45.792   5.713  10.701  0.00  0.00    +0.000 C 
BRANCH  23  24
ATOM     24  N   UNL     1      45.142   4.405  10.731  0.00  0.00    +0.000 NA
ATOM     25  H   UNL     1      44.438   4.404  11.468  0.00  0.00    +0.000 HD
BRANCH  24  26
ATOM     26  C   UNL     1      44.466   4.118   9.456  0.00  0.00    +0.000 C 
BRANCH  26  27
ATOM     27  C   UNL     1      45.263   3.149   8.600  0.00  0.00    +0.000 A 
ATOM     28  C   UNL     1      45.843   3.588   7.409  0.00  0.00    +0.000 A 
ATOM     29  C   UNL     1      46.599   2.698   6.645  0.00  0.00    +0.000 A 
ATOM     30  C   UNL     1      47.258   3.136   5.371  0.00  0.00    +0.000 C 
ATOM     31  C   UNL     1      46.733   1.385   7.094  0.00  0.00    +0.000 A 
ATOM     32  C   UNL     1      46.118   1.026   8.284  0.00  0.00    +0.000 A 
ATOM     33  N   UNL     1      45.392   1.874   9.047  0.00  0.00    +0.000 NA
ENDBRANCH  26  27
ENDBRANCH  24  26
ENDBRANCH  23  24
ENDBRANCH   4  23
TORSDOF 8
ENDMDL
MODEL 4
REMARK VINA RESULT:    -6.956      1.655      2.053
REMARK INTER + INTRA:         -11.563
REMARK INTER:                 -10.412
REMARK INTRA:                  -1.151
REMARK UNBOUND:                -1.354
REMARK  Name = 
REMARK  10 active torsions:
REMARK  status: ('A' for Active; 'I' for Inactive)
REMARK    1  A    between atoms: C_1  and  O_2
REMARK    2  A    between atoms: O_2  and  C_3
REMARK    3  A    between atoms: C_10  and  C_11
REMARK    4  A    between atoms: N_13  and  C_14
REMARK    5  A    between atoms: C_14  and  C_15
REMARK    6  A    between atoms: C_18  and  C_19
REMARK    7  A    between atoms: C_19  and  N_20
REMARK    8  A    between atoms: N_20  and  C_21
REMARK    9  A    between atoms: C_21  and  C_22
REMARK   10  A    between atoms: C_24  and  C_25
REMARK                            x       y       z     vdW  Elec       q    Type
REMARK                         _______ _______ _______ _____ _____    ______ ____
ROOT
ATOM      1  C   UNL     1      47.197   8.221  13.325  0.00  0.00    +0.000 A 
ATOM      2  C   UNL     1      47.531   6.912  12.953  0.00  0.00    +0.000 A 
ATOM      3  C   UNL     1      46.634   6.129  12.219  0.00  0.00    +0.000 A 
ATOM      4  C   UNL     1      45.383   6.635  11.836  0.00  0.00    +0.000 A 
ATOM      5  C   UNL     1      45.042   7.937  12.229  0.00  0.00    +0.000 A 
ATOM      6  C   UNL     1      45.941   8.723  12.961  0.00  0.00    +0.000 A 
ENDROOT
BRANCH   1   7
ATOM      7  C   UNL     1      48.192   9.082  14.060  0.00  0.00    +0.000 C 
BRANCH   7  10
ATOM      8  C   UNL     1      48.701   8.493  16.387  0.00  0.00    +0.000 C 
ATOM      9  O   UNL     1      47.876   9.312  16.786  0.00  0.00    +0.000 OA
ATOM     10  N   UNL     1      48.928   8.323  15.046  0.00  0.00    +0.000 N 
ATOM     11  H   UNL     1      49.592   7.633  14.719  0.00  0.00    +0.000 HD
BRANCH   8  19
ATOM     12  C   UNL     1      49.172   5.093  16.779  0.00  0.00    +0.000 A 
ATOM     13  N   UNL     1      49.499   3.846  17.178  0.00  0.00    +0.000 NA
ATOM     14  C   UNL     1      50.297   3.712  18.241  0.00  0.00    +0.000 A 
ATOM     15  N   UNL     1      50.824   4.689  18.970  0.00  0.00    +0.000 NA
ATOM     16  C   UNL     1      50.465   5.914  18.546  0.00  0.00    +0.000 A 
ATOM     17  S   UNL     1      51.053   7.282  19.362  0.00  0.00    +0.000 S 
ATOM     18  C   UNL     1      50.210   8.322  18.318  0.00  0.00    +0.000 A 
ATOM     19  C   UNL     1      49.472   7.669  17.336  0.00  0.00    +0.000 A 
ATOM     20  C   UNL     1      49.636   6.224  17.472  0.00  0.00    +0.000 A 
BRANCH  12  22
ATOM     21  C   UNL     1      47.223   4.355  15.735  0.00  0.00    +0.000 C 
ATOM     22  O   UNL     1      48.349   5.229  15.680  0.00  0.00    +0.000 OA
ENDBRANCH  12  22
ENDBRANCH   8  19
ENDBRANCH   7  10
ENDBRANCH   1   7
BRANCH   4  23
ATOM     23  C   UNL     1      44.447   5.810  10.979  0.00  0.00    +0.000 C 
BRANCH  23  24
ATOM     24  N   UNL     1      45.132   4.664  10.388  0.00  0.00    +0.000 NA
ATOM     25  H   UNL     1      45.061   3.873  11.027  0.00  0.00    +0.000 HD
BRANCH  24  26
ATOM     26  C   UNL     1      44.513   4.275   9.111  0.00  0.00    +0.000 C 
BRANCH  26  27
ATOM     27  C   UNL     1      45.335   3.226   8.382  0.00  0.00    +0.000 A 
ATOM     28  C   UNL     1      45.941   3.539   7.164  0.00  0.00    +0.000 A 
ATOM     29  C   UNL     1      46.719   2.578   6.518  0.00  0.00    +0.000 A 
ATOM     30  C   UNL     1      47.405   2.881   5.219  0.00  0.00    +0.000 C 
ATOM     31  C   UNL     1      46.849   1.322   7.108  0.00  0.00    +0.000 A 
ATOM     32  C   UNL     1      46.209   1.088   8.316  0.00  0.00    +0.000 A 
ATOM     33  N   UNL     1      45.460   2.007   8.966  0.00  0.00    +0.000 NA
ENDBRANCH  26  27
ENDBRANCH  24  26
ENDBRANCH  23  24
ENDBRANCH   4  23
TORSDOF 8
ENDMDL
MODEL 5
REMARK VINA RESULT:    -6.912      3.186      4.501
REMARK INTER + INTRA:         -11.498
REMARK INTER:                 -10.264
REMARK INTRA:                  -1.234
REMARK UNBOUND:                -1.354
REMARK  Name = 
REMARK  10 active torsions:
REMARK  status: ('A' for Active; 'I' for Inactive)
REMARK    1  A    between atoms: C_1  and  O_2
REMARK    2  A    between atoms: O_2  and  C_3
REMARK    3  A    between atoms: C_10  and  C_11
REMARK    4  A    between atoms: N_13  and  C_14
REMARK    5  A    between atoms: C_14  and  C_15
REMARK    6  A    between atoms: C_18  and  C_19
REMARK    7  A    between atoms: C_19  and  N_20
REMARK    8  A    between atoms: N_20  and  C_21
REMARK    9  A    between atoms: C_21  and  C_22
REMARK   10  A    between atoms: C_24  and  C_25
REMARK                            x       y       z     vdW  Elec       q    Type
REMARK                         _______ _______ _______ _____ _____    ______ ____
ROOT
ATOM      1  C   UNL     1      47.676   4.145  16.113  0.00  0.00    +0.000 A 
ATOM      2  C   UNL     1      48.208   5.437  16.013  0.00  0.00    +0.000 A 
ATOM      3  C   UNL     1      48.013   6.201  14.857  0.00  0.00    +0.000 A 
ATOM      4  C   UNL     1      47.279   5.693  13.775  0.00  0.00    +0.000 A 
ATOM      5  C   UNL     1      46.767   4.392  13.868  0.00  0.00    +0.000 A 
ATOM      6  C   UNL     1      46.959   3.628  15.026  0.00  0.00    +0.000 A 
ENDROOT
BRANCH   1   7
ATOM      7  C   UNL     1      47.834   3.352  17.384  0.00  0.00    +0.000 C 
BRANCH   7  10
ATOM      8  C   UNL     1      50.029   2.304  17.053  0.00  0.00    +0.000 C 
ATOM      9  O   UNL     1      49.577   1.625  16.133  0.00  0.00    +0.000 OA
ATOM     10  N   UNL     1      49.226   3.181  17.736  0.00  0.00    +0.000 N 
ATOM     11  H   UNL     1      49.606   3.754  18.478  0.00  0.00    +0.000 HD
BRANCH   8  19
ATOM     12  C   UNL     1      52.501   4.610  17.765  0.00  0.00    +0.000 A 
ATOM     13  N   UNL     1      53.641   5.272  18.055  0.00  0.00    +0.000 NA
ATOM     14  C   UNL     1      54.733   4.556  18.336  0.00  0.00    +0.000 A 
ATOM     15  N   UNL     1      54.831   3.232  18.368  0.00  0.00    +0.000 NA
ATOM     16  C   UNL     1      53.678   2.611  18.061  0.00  0.00    +0.000 A 
ATOM     17  S   UNL     1      53.622   0.914  18.058  0.00  0.00    +0.000 S 
ATOM     18  C   UNL     1      51.985   0.925  17.607  0.00  0.00    +0.000 A 
ATOM     19  C   UNL     1      51.444   2.197  17.451  0.00  0.00    +0.000 A 
ATOM     20  C   UNL     1      52.463   3.206  17.734  0.00  0.00    +0.000 A 
BRANCH  12  22
ATOM     21  C   UNL     1      50.944   6.139  18.584  0.00  0.00    +0.000 C 
ATOM     22  O   UNL     1      51.374   5.352  17.475  0.00  0.00    +0.000 OA
ENDBRANCH  12  22
ENDBRANCH   8  19
ENDBRANCH   7  10
ENDBRANCH   1   7
BRANCH   4  23
ATOM     23  C   UNL     1      47.008   6.551  12.557  0.00  0.00    +0.000 C 
BRANCH  23  24
ATOM     24  N   UNL     1      45.627   6.417  12.103  0.00  0.00    +0.000 NA
ATOM     25  H   UNL     1      45.081   7.192  12.478  0.00  0.00    +0.000 HD
BRANCH  24  26
ATOM     26  C   UNL     1      45.542   6.468  10.636  0.00  0.00    +0.000 C 
BRANCH  26  27
ATOM     27  C   UNL     1      45.317   5.091  10.035  0.00  0.00    +0.000 A 
ATOM     28  C   UNL     1      45.776   4.809   8.748  0.00  0.00    +0.000 A 
ATOM     29  C   UNL     1      45.592   3.532   8.217  0.00  0.00    +0.000 A 
ATOM     30  C   UNL     1      46.091   3.183   6.847  0.00  0.00    +0.000 C 
ATOM     31  C   UNL     1      44.932   2.580   8.993  0.00  0.00    +0.000 A 
ATOM     32  C   UNL     1      44.500   2.941  10.260  0.00  0.00    +0.000 A 
ATOM     33  N   UNL     1      44.678   4.168  10.799  0.00  0.00    +0.000 NA
ENDBRANCH  26  27
ENDBRANCH  24  26
ENDBRANCH  23  24
ENDBRANCH   4  23
TORSDOF 8
ENDMDL
MODEL 6
REMARK VINA RESULT:    -6.787      2.057      3.077
REMARK INTER + INTRA:         -11.314
REMARK INTER:                 -10.420
REMARK INTRA:                  -0.894
REMARK UNBOUND:                -1.354
REMARK  Name = 
REMARK  10 active torsions:
REMARK  status: ('A' for Active; 'I' for Inactive)
REMARK    1  A    between atoms: C_1  and  O_2
REMARK    2  A    between atoms: O_2  and  C_3
REMARK    3  A    between atoms: C_10  and  C_11
REMARK    4  A    between atoms: N_13  and  C_14
REMARK    5  A    between atoms: C_14  and  C_15
REMARK    6  A    between atoms: C_18  and  C_19
REMARK    7  A    between atoms: C_19  and  N_20
REMARK    8  A    between atoms: N_20  and  C_21
REMARK    9  A    between atoms: C_21  and  C_22
REMARK   10  A    between atoms: C_24  and  C_25
REMARK                            x       y       z     vdW  Elec       q    Type
REMARK                         _______ _______ _______ _____ _____    ______ ____
ROOT
ATOM      1  C   UNL     1      46.866   6.628  12.610  0.00  0.00    +0.000 A 
ATOM      2  C   UNL     1      46.694   5.276  12.934  0.00  0.00    +0.000 A 
ATOM      3  C   UNL     1      45.575   4.571  12.477  0.00  0.00    +0.000 A 
ATOM      4  C   UNL     1      44.604   5.198  11.683  0.00  0.00    +0.000 A 
ATOM      5  C   UNL     1      44.767   6.557  11.379  0.00  0.00    +0.000 A 
ATOM      6  C   UNL     1      45.888   7.263  11.833  0.00  0.00    +0.000 A 
ENDROOT
BRANCH   1   7
ATOM      7  C   UNL     1      48.104   7.366  13.051  0.00  0.00    +0.000 C 
BRANCH   7  10
ATOM      8  C   UNL     1      48.860   7.170  15.378  0.00  0.00    +0.000 C 
ATOM      9  O   UNL     1      48.343   8.253  15.647  0.00  0.00    +0.000 OA
ATOM     10  N   UNL     1      48.797   6.661  14.106  0.00  0.00    +0.000 N 
ATOM     11  H   UNL     1      49.204   5.760  13.892  0.00  0.00    +0.000 HD
BRANCH   8  19
ATOM     12  C   UNL     1      52.189   6.697  16.172  0.00  0.00    +0.000 A 
ATOM     13  N   UNL     1      53.381   6.313  16.674  0.00  0.00    +0.000 NA
ATOM     14  C   UNL     1      53.389   5.468  17.709  0.00  0.00    +0.000 A 
ATOM     15  N   UNL     1      52.331   4.949  18.322  0.00  0.00    +0.000 NA
ATOM     16  C   UNL     1      51.164   5.348  17.785  0.00  0.00    +0.000 A 
ATOM     17  S   UNL     1      49.707   4.784  18.450  0.00  0.00    +0.000 S 
ATOM     18  C   UNL     1      48.798   5.655  17.309  0.00  0.00    +0.000 A 
ATOM     19  C   UNL     1      49.564   6.388  16.409  0.00  0.00    +0.000 A 
ATOM     20  C   UNL     1      50.984   6.206  16.705  0.00  0.00    +0.000 A 
BRANCH  12  22
ATOM     21  C   UNL     1      53.249   8.515  15.171  0.00  0.00    +0.000 C 
ATOM     22  O   UNL     1      52.183   7.569  15.104  0.00  0.00    +0.000 OA
ENDBRANCH  12  22
ENDBRANCH   8  19
ENDBRANCH   7  10
ENDBRANCH   1   7
BRANCH   4  23
ATOM     23  C   UNL     1      43.435   4.411  11.130  0.00  0.00    +0.000 C 
BRANCH  23  24
ATOM     24  N   UNL     1      43.878   3.369  10.208  0.00  0.00    +0.000 NA
ATOM     25  H   UNL     1      43.072   2.810   9.932  0.00  0.00    +0.000 HD
BRANCH  24  26
ATOM     26  C   UNL     1      44.467   3.950   8.991  0.00  0.00    +0.000 C 
BRANCH  26  27
ATOM     27  C   UNL     1      45.362   2.958   8.269  0.00  0.00    +0.000 A 
ATOM     28  C   UNL     1      46.018   3.338   7.096  0.00  0.00    +0.000 A 
ATOM     29  C   UNL     1      46.862   2.430   6.457  0.00  0.00    +0.000 A 
ATOM     30  C   UNL     1      47.603   2.806   5.208  0.00  0.00    +0.000 C 
ATOM     31  C   UNL     1      47.006   1.157   7.007  0.00  0.00    +0.000 A 
ATOM     32  C   UNL     1      46.314   0.855   8.170  0.00  0.00    +0.000 A 
ATOM     33  N   UNL     1      45.501   1.723   8.813  0.00  0.00    +0.000 NA
ENDBRANCH  26  27
ENDBRANCH  24  26
ENDBRANCH  23  24
ENDBRANCH   4  23
TORSDOF 8
ENDMDL
MODEL 7
REMARK VINA RESULT:    -6.777      4.905      9.756
REMARK INTER + INTRA:         -11.301
REMARK INTER:                 -10.406
REMARK INTRA:                  -0.895
REMARK UNBOUND:                -1.354
REMARK  Name = 
REMARK  10 active torsions:
REMARK  status: ('A' for Active; 'I' for Inactive)
REMARK    1  A    between atoms: C_1  and  O_2
REMARK    2  A    between atoms: O_2  and  C_3
REMARK    3  A    between atoms: C_10  and  C_11
REMARK    4  A    between atoms: N_13  and  C_14
REMARK    5  A    between atoms: C_14  and  C_15
REMARK    6  A    between atoms: C_18  and  C_19
REMARK    7  A    between atoms: C_19  and  N_20
REMARK    8  A    between atoms: N_20  and  C_21
REMARK    9  A    between atoms: C_21  and  C_22
REMARK   10  A    between atoms: C_24  and  C_25
REMARK                            x       y       z     vdW  Elec       q    Type
REMARK                         _______ _______ _______ _____ _____    ______ ____
ROOT
ATOM      1  C   UNL     1      48.812   3.257  17.392  0.00  0.00    +0.000 A 
ATOM      2  C   UNL     1      49.478   4.327  18.003  0.00  0.00    +0.000 A 
ATOM      3  C   UNL     1      50.853   4.264  18.251  0.00  0.00    +0.000 A 
ATOM      4  C   UNL     1      51.597   3.130  17.891  0.00  0.00    +0.000 A 
ATOM      5  C   UNL     1      50.925   2.051  17.299  0.00  0.00    +0.000 A 
ATOM      6  C   UNL     1      49.548   2.116  17.048  0.00  0.00    +0.000 A 
ENDROOT
BRANCH   1   7
ATOM      7  C   UNL     1      47.343   3.357  17.069  0.00  0.00    +0.000 C 
BRANCH   7  10
ATOM      8  C   UNL     1      47.127   4.253  14.794  0.00  0.00    +0.000 C 
ATOM      9  O   UNL     1      47.426   3.157  14.323  0.00  0.00    +0.000 OA
ATOM     10  N   UNL     1      47.073   4.441  16.151  0.00  0.00    +0.000 N 
ATOM     11  H   UNL     1      46.806   5.337  16.536  0.00  0.00    +0.000 HD
BRANCH   8  19
ATOM     12  C   UNL     1      44.508   5.008  12.672  0.00  0.00    +0.000 A 
ATOM     13  N   UNL     1      43.655   5.535  11.768  0.00  0.00    +0.000 NA
ATOM     14  C   UNL     1      43.956   6.719  11.230  0.00  0.00    +0.000 A 
ATOM     15  N   UNL     1      45.027   7.462  11.488  0.00  0.00    +0.000 NA
ATOM     16  C   UNL     1      45.856   6.897  12.383  0.00  0.00    +0.000 A 
ATOM     17  S   UNL     1      47.275   7.715  12.834  0.00  0.00    +0.000 S 
ATOM     18  C   UNL     1      47.721   6.454  13.881  0.00  0.00    +0.000 A 
ATOM     19  C   UNL     1      46.818   5.396  13.917  0.00  0.00    +0.000 A 
ATOM     20  C   UNL     1      45.696   5.672  13.022  0.00  0.00    +0.000 A 
BRANCH  12  22
ATOM     21  C   UNL     1      43.501   2.936  12.314  0.00  0.00    +0.000 C 
ATOM     22  O   UNL     1      44.194   3.785  13.227  0.00  0.00    +0.000 OA
ENDBRANCH  12  22
ENDBRANCH   8  19
ENDBRANCH   7  10
ENDBRANCH   1   7
BRANCH   4  23
ATOM     23  C   UNL     1      53.097   3.097  18.093  0.00  0.00    +0.000 C 
BRANCH  23  24
ATOM     24  N   UNL     1      53.471   2.207  19.189  0.00  0.00    +0.000 NA
ATOM     25  H   UNL     1      52.802   1.439  19.231  0.00  0.00    +0.000 HD
BRANCH  24  26
ATOM     26  C   UNL     1      54.809   1.635  18.978  0.00  0.00    +0.000 C 
BRANCH  26  27
ATOM     27  C   UNL     1      54.747   0.144  18.693  0.00  0.00    +0.000 A 
ATOM     28  C   UNL     1      54.893  -0.321  17.385  0.00  0.00    +0.000 A 
ATOM     29  C   UNL     1      54.865  -1.694  17.138  0.00  0.00    +0.000 A 
ATOM     30  C   UNL     1      55.042  -2.236  15.751  0.00  0.00    +0.000 C 
ATOM     31  C   UNL     1      54.670  -2.559  18.214  0.00  0.00    +0.000 A 
ATOM     32  C   UNL     1      54.525  -2.016  19.482  0.00  0.00    +0.000 A 
ATOM     33  N   UNL     1      54.561  -0.690  19.747  0.00  0.00    +0.000 NA
ENDBRANCH  26  27
ENDBRANCH  24  26
ENDBRANCH  23  24
ENDBRANCH   4  23
TORSDOF 8
ENDMDL
MODEL 8
REMARK VINA RESULT:    -6.530      3.320      5.302
REMARK INTER + INTRA:         -10.937
REMARK INTER:                  -9.697
REMARK INTRA:                  -1.240
REMARK UNBOUND:                -1.354
REMARK  Name = 
REMARK  10 active torsions:
REMARK  status: ('A' for Active; 'I' for Inactive)
REMARK    1  A    between atoms: C_1  and  O_2
REMARK    2  A    between atoms: O_2  and  C_3
REMARK    3  A    between atoms: C_10  and  C_11
REMARK    4  A    between atoms: N_13  and  C_14
REMARK    5  A    between atoms: C_14  and  C_15
REMARK    6  A    between atoms: C_18  and  C_19
REMARK    7  A    between atoms: C_19  and  N_20
REMARK    8  A    between atoms: N_20  and  C_21
REMARK    9  A    between atoms: C_21  and  C_22
REMARK   10  A    between atoms: C_24  and  C_25
REMARK                            x       y       z     vdW  Elec       q    Type
REMARK                         _______ _______ _______ _____ _____    ______ ____
ROOT
ATOM      1  C   UNL     1      48.011   6.318  14.335  0.00  0.00    +0.000 A 
ATOM      2  C   UNL     1      47.520   5.128  14.884  0.00  0.00    +0.000 A 
ATOM      3  C   UNL     1      46.624   4.327  14.166  0.00  0.00    +0.000 A 
ATOM      4  C   UNL     1      46.201   4.696  12.881  0.00  0.00    +0.000 A 
ATOM      5  C   UNL     1      46.677   5.899  12.341  0.00  0.00    +0.000 A 
ATOM      6  C   UNL     1      47.576   6.699  13.058  0.00  0.00    +0.000 A 
ENDROOT
BRANCH   1   7
ATOM      7  C   UNL     1      49.024   7.144  15.085  0.00  0.00    +0.000 C 
BRANCH   7  10
ATOM      8  C   UNL     1      51.226   8.176  14.755  0.00  0.00    +0.000 C 
ATOM      9  O   UNL     1      51.144   8.726  15.851  0.00  0.00    +0.000 OA
ATOM     10  N   UNL     1      50.210   7.379  14.293  0.00  0.00    +0.000 N 
ATOM     11  H   UNL     1      50.289   6.911  13.400  0.00  0.00    +0.000 HD
BRANCH   8  19
ATOM     12  C   UNL     1      51.702   8.605  11.360  0.00  0.00    +0.000 A 
ATOM     13  N   UNL     1      52.175   8.750  10.104  0.00  0.00    +0.000 NA
ATOM     14  C   UNL     1      53.497   8.837   9.933  0.00  0.00    +0.000 A 
ATOM     15  N   UNL     1      54.427   8.800  10.880  0.00  0.00    +0.000 NA
ATOM     16  C   UNL     1      53.915   8.643  12.114  0.00  0.00    +0.000 A 
ATOM     17  S   UNL     1      54.965   8.580  13.448  0.00  0.00    +0.000 S 
ATOM     18  C   UNL     1      53.663   8.377  14.519  0.00  0.00    +0.000 A 
ATOM     19  C   UNL     1      52.416   8.355  13.903  0.00  0.00    +0.000 A 
ATOM     20  C   UNL     1      52.573   8.524  12.460  0.00  0.00    +0.000 A 
BRANCH  12  22
ATOM     21  C   UNL     1      49.693   9.786  11.432  0.00  0.00    +0.000 C 
ATOM     22  O   UNL     1      50.337   8.517  11.534  0.00  0.00    +0.000 OA
ENDBRANCH  12  22
ENDBRANCH   8  19
ENDBRANCH   7  10
ENDBRANCH   1   7
BRANCH   4  23
ATOM     23  C   UNL     1      45.292   3.789  12.079  0.00  0.00    +0.000 C 
BRANCH  23  24
ATOM     24  N   UNL     1      44.497   4.543  11.115  0.00  0.00    +0.000 NA
ATOM     25  H   UNL     1      45.087   5.256  10.687  0.00  0.00    +0.000 HD
BRANCH  24  26
ATOM     26  C   UNL     1      43.989   3.671  10.045  0.00  0.00    +0.000 C 
BRANCH  26  27
ATOM     27  C   UNL     1      45.067   3.337   9.029  0.00  0.00    +0.000 A 
ATOM     28  C   UNL     1      45.449   2.010   8.831  0.00  0.00    +0.000 A 
ATOM     29  C   UNL     1      46.419   1.711   7.873  0.00  0.00    +0.000 A 
ATOM     30  C   UNL     1      46.841   0.295   7.613  0.00  0.00    +0.000 C 
ATOM     31  C   UNL     1      46.990   2.761   7.156  0.00  0.00    +0.000 A 
ATOM     32  C   UNL     1      46.561   4.053   7.419  0.00  0.00    +0.000 A 
ATOM     33  N   UNL     1      45.614   4.365   8.332  0.00  0.00    +0.000 NA
ENDBRANCH  26  27
ENDBRANCH  24  26
ENDBRANCH  23  24
ENDBRANCH   4  23
TORSDOF 8
ENDMDL
MODEL 9
REMARK VINA RESULT:    -5.999      1.863      2.372
REMARK INTER + INTRA:         -10.158
REMARK INTER:                  -9.119
REMARK INTRA:                  -1.039
REMARK UNBOUND:                -1.354
REMARK  Name = 
REMARK  10 active torsions:
REMARK  status: ('A' for Active; 'I' for Inactive)
REMARK    1  A    between atoms: C_1  and  O_2
REMARK    2  A    between atoms: O_2  and  C_3
REMARK    3  A    between atoms: C_10  and  C_11
REMARK    4  A    between atoms: N_13  and  C_14
REMARK    5  A    between atoms: C_14  and  C_15
REMARK    6  A    between atoms: C_18  and  C_19
REMARK    7  A    between atoms: C_19  and  N_20
REMARK    8  A    between atoms: N_20  and  C_21
REMARK    9  A    between atoms: C_21  and  C_22
REMARK   10  A    between atoms: C_24  and  C_25
REMARK                            x       y       z     vdW  Elec       q    Type
REMARK                         _______ _______ _______ _____ _____    ______ ____
ROOT
ATOM      1  C   UNL     1      48.105   8.606  12.923  0.00  0.00    +0.000 A 
ATOM      2  C   UNL     1      46.745   8.754  13.225  0.00  0.00    +0.000 A 
ATOM      3  C   UNL     1      45.784   7.951  12.601  0.00  0.00    +0.000 A 
ATOM      4  C   UNL     1      46.160   6.979  11.662  0.00  0.00    +0.000 A 
ATOM      5  C   UNL     1      47.518   6.847  11.345  0.00  0.00    +0.000 A 
ATOM      6  C   UNL     1      48.481   7.649  11.972  0.00  0.00    +0.000 A 
ENDROOT
BRANCH   1   7
ATOM      7  C   UNL     1      49.140   9.428  13.645  0.00  0.00    +0.000 C 
BRANCH   7  10
ATOM      8  C   UNL     1      49.882   9.940  15.929  0.00  0.00    +0.000 C 
ATOM      9  O   UNL     1      50.816  10.606  15.487  0.00  0.00    +0.000 OA
ATOM     10  N   UNL     1      49.007   9.312  15.080  0.00  0.00    +0.000 N 
ATOM     11  H   UNL     1      48.226   8.782  15.446  0.00  0.00    +0.000 HD
BRANCH   8  19
ATOM     12  C   UNL     1      49.303   7.244  18.011  0.00  0.00    +0.000 A 
ATOM     13  N   UNL     1      49.039   6.401  19.030  0.00  0.00    +0.000 NA
ATOM     14  C   UNL     1      48.912   6.912  20.257  0.00  0.00    +0.000 A 
ATOM     15  N   UNL     1      49.021   8.191  20.603  0.00  0.00    +0.000 NA
ATOM     16  C   UNL     1      49.273   8.998  19.557  0.00  0.00    +0.000 A 
ATOM     17  S   UNL     1      49.448  10.667  19.819  0.00  0.00    +0.000 S 
ATOM     18  C   UNL     1      49.708  10.944  18.164  0.00  0.00    +0.000 A 
ATOM     19  C   UNL     1      49.673   9.795  17.380  0.00  0.00    +0.000 A 
ATOM     20  C   UNL     1      49.419   8.628  18.224  0.00  0.00    +0.000 A 
BRANCH  12  22
ATOM     21  C   UNL     1      50.787   6.387  16.431  0.00  0.00    +0.000 C 
ATOM     22  O   UNL     1      49.435   6.713  16.745  0.00  0.00    +0.000 OA
ENDBRANCH  12  22
ENDBRANCH   8  19
ENDBRANCH   7  10
ENDBRANCH   1   7
BRANCH   4  23
ATOM     23  C   UNL     1      45.124   6.063  11.045  0.00  0.00    +0.000 C 
BRANCH  23  24
ATOM     24  N   UNL     1      45.536   5.600   9.724  0.00  0.00    +0.000 NA
ATOM     25  H   UNL     1      46.542   5.437   9.732  0.00  0.00    +0.000 HD
BRANCH  24  26
ATOM     26  C   UNL     1      44.873   4.335   9.371  0.00  0.00    +0.000 C 
BRANCH  26  27
ATOM     27  C   UNL     1      45.675   3.540   8.356  0.00  0.00    +0.000 A 
ATOM     28  C   UNL     1      45.837   2.164   8.520  0.00  0.00    +0.000 A 
ATOM     29  C   UNL     1      46.550   1.438   7.565  0.00  0.00    +0.000 A 
ATOM     30  C   UNL     1      46.726  -0.046   7.692  0.00  0.00    +0.000 C 
ATOM     31  C   UNL     1      47.097   2.124   6.482  0.00  0.00    +0.000 A 
ATOM     32  C   UNL     1      46.899   3.494   6.397  0.00  0.00    +0.000 A 
ATOM     33  N   UNL     1      46.201   4.215   7.302  0.00  0.00    +0.000 NA
ENDBRANCH  26  27
ENDBRANCH  24  26
ENDBRANCH  23  24
ENDBRANCH   4  23
TORSDOF 8
ENDMDL
