MODEL 1
REMARK VINA RESULT:    -7.441      0.000      0.000
REMARK INTER + INTRA:         -10.096
REMARK INTER:                  -9.616
REMARK INTRA:                  -0.480
REMARK UNBOUND:                -0.480
REMARK  Name = 
REMARK  5 active torsions:
REMARK  status: ('A' for Active; 'I' for Inactive)
REMARK    1  A    between atoms: C_2  and  C_3
REMARK    2  A    between atoms: C_6  and  N_7
REMARK    3  A    between atoms: N_7  and  C_8
REMARK    4  A    between atoms: C_8  and  C_9
REMARK    5  A    between atoms: C_9  and  C_12
REMARK                            x       y       z     vdW  Elec       q    Type
REMARK                         _______ _______ _______ _____ _____    ______ ____
ROOT
ATOM      1  N   UNL     1      43.747   4.630  10.082  0.00  0.00    +0.000 N 
ATOM      2  H   UNL     1      43.958   5.614  10.236  0.00  0.00    +0.000 HD
ENDROOT
BRANCH   1   6
ATOM      3  C   UNL     1      46.448   2.668   7.674  0.00  0.00    +0.000 A 
ATOM      4  C   UNL     1      46.309   4.048   7.611  0.00  0.00    +0.000 A 
ATOM      5  N   UNL     1      45.416   4.739   8.375  0.00  0.00    +0.000 NA
ATOM      6  C   UNL     1      44.626   4.013   9.194  0.00  0.00    +0.000 A 
ATOM      7  C   UNL     1      44.753   2.617   9.207  0.00  0.00    +0.000 A 
ATOM      8  N   UNL     1      45.658   1.916   8.472  0.00  0.00    +0.000 NA
BRANCH   3  10
ATOM      9  N   UNL     1      48.280   1.462   6.273  0.00  0.00    +0.000 NA
ATOM     10  C   UNL     1      47.469   1.991   6.923  0.00  0.00    +0.000 C 
ENDBRANCH   3  10
ENDBRANCH   1   6
BRANCH   1  11
ATOM     11  C   UNL     1      43.391   3.880  11.308  0.00  0.00    +0.000 C 
BRANCH  11  12
ATOM     12  C   UNL     1      43.374   4.767  12.587  0.00  0.00    +0.000 C 
ATOM     13  F   UNL     1      42.397   5.716  12.419  0.00  0.00    +0.000 F 
ATOM     14  F   UNL     1      42.943   4.010  13.643  0.00  0.00    +0.000 F 
BRANCH  12  15
ATOM     15  C   UNL     1      44.732   5.392  12.858  0.00  0.00    +0.000 A 
ATOM     16  C   UNL     1      44.947   6.757  12.614  0.00  0.00    +0.000 A 
ATOM     17  C   UNL     1      46.203   7.331  12.829  0.00  0.00    +0.000 A 
ATOM     18  C   UNL     1      47.259   6.550  13.293  0.00  0.00    +0.000 A 
ATOM     19  C   UNL     1      47.057   5.198  13.557  0.00  0.00    +0.000 A 
ATOM     20  C   UNL     1      45.803   4.620  13.343  0.00  0.00    +0.000 A 
ENDBRANCH  12  15
ENDBRANCH  11  12
ENDBRANCH   1  11
TORSDOF 5
ENDMDL
MODEL 2
REMARK VINA RESULT:    -7.254      2.812      6.309
REMARK INTER + INTRA:          -9.854
REMARK INTER:                  -9.419
REMARK INTRA:                  -0.435
REMARK UNBOUND:                -0.480
REMARK  Name = 
REMARK  5 active torsions:
REMARK  status: ('A' for Active; 'I' for Inactive)
REMARK    1  A    between atoms: C_2  and  C_3
REMARK    2  A    between atoms: C_6  and  N_7
REMARK    3  A    between atoms: N_7  and  C_8
REMARK    4  A    between atoms: C_8  and  C_9
REMARK    5  A    between atoms: C_9  and  C_12
REMARK                            x       y       z     vdW  Elec       q    Type
REMARK                         _______ _______ _______ _____ _____    ______ ____
ROOT
ATOM      1  N   UNL     1      44.087   4.241  11.259  0.00  0.00    +0.000 N 
ATOM      2  H   UNL     1      43.165   4.064  11.655  0.00  0.00    +0.000 HD
ENDROOT
BRANCH   1   6
ATOM      3  C   UNL     1      47.009   5.452  13.893  0.00  0.00    +0.000 A 
ATOM      4  C   UNL     1      46.703   4.107  13.738  0.00  0.00    +0.000 A 
ATOM      5  N   UNL     1      45.732   3.659  12.892  0.00  0.00    +0.000 NA
ATOM      6  C   UNL     1      45.036   4.597  12.216  0.00  0.00    +0.000 A 
ATOM      7  C   UNL     1      45.332   5.951  12.422  0.00  0.00    +0.000 A 
ATOM      8  N   UNL     1      46.316   6.412  13.241  0.00  0.00    +0.000 NA
BRANCH   3  10
ATOM      9  N   UNL     1      48.989   6.256  15.378  0.00  0.00    +0.000 NA
ATOM     10  C   UNL     1      48.106   5.871  14.721  0.00  0.00    +0.000 C 
ENDBRANCH   3  10
ENDBRANCH   1   6
BRANCH   1  11
ATOM     11  C   UNL     1      44.506   3.270  10.223  0.00  0.00    +0.000 C 
BRANCH  11  12
ATOM     12  C   UNL     1      44.949   3.945   8.892  0.00  0.00    +0.000 C 
ATOM     13  F   UNL     1      43.815   4.338   8.230  0.00  0.00    +0.000 F 
ATOM     14  F   UNL     1      45.600   5.112   9.186  0.00  0.00    +0.000 F 
BRANCH  12  15
ATOM     15  C   UNL     1      45.808   3.017   8.048  0.00  0.00    +0.000 A 
ATOM     16  C   UNL     1      45.973   1.673   8.416  0.00  0.00    +0.000 A 
ATOM     17  C   UNL     1      46.789   0.823   7.664  0.00  0.00    +0.000 A 
ATOM     18  C   UNL     1      47.447   1.304   6.535  0.00  0.00    +0.000 A 
ATOM     19  C   UNL     1      47.279   2.630   6.146  0.00  0.00    +0.000 A 
ATOM     20  C   UNL     1      46.464   3.484   6.896  0.00  0.00    +0.000 A 
ENDBRANCH  12  15
ENDBRANCH  11  12
ENDBRANCH   1  11
TORSDOF 5
ENDMDL
MODEL 3
REMARK VINA RESULT:    -6.784      2.988      6.260
REMARK INTER + INTRA:          -9.247
REMARK INTER:                  -8.868
REMARK INTRA:                  -0.379
REMARK UNBOUND:                -0.480
REMARK  Name = 
REMARK  5 active torsions:
REMARK  status: ('A' for Active; 'I' for Inactive)
REMARK    1  A    between atoms: C_2  and  C_3
REMARK    2  A    between atoms: C_6  and  N_7
REMARK    3  A    between atoms: N_7  and  C_8
REMARK    4  A    between atoms: C_8  and  C_9
REMARK    5  A    between atoms: C_9  and  C_12
REMARK                            x       y       z     vdW  Elec       q    Type
REMARK                         _______ _______ _______ _____ _____    ______ ____
ROOT
ATOM      1  N   UNL     1      44.605   4.645  11.657  0.00  0.00    +0.000 N 
ATOM      2  H   UNL     1      43.800   4.431  12.245  0.00  0.00    +0.000 HD
ENDROOT
BRANCH   1   6
ATOM      3  C   UNL     1      47.651   6.150  13.981  0.00  0.00    +0.000 A 
ATOM      4  C   UNL     1      46.951   6.969  13.107  0.00  0.00    +0.000 A 
ATOM      5  N   UNL     1      45.947   6.513  12.304  0.00  0.00    +0.000 NA
ATOM      6  C   UNL     1      45.672   5.194  12.367  0.00  0.00    +0.000 A 
ATOM      7  C   UNL     1      46.422   4.377  13.223  0.00  0.00    +0.000 A 
ATOM      8  N   UNL     1      47.407   4.822  14.050  0.00  0.00    +0.000 NA
BRANCH   3  10
ATOM      9  N   UNL     1      49.465   7.104  15.584  0.00  0.00    +0.000 NA
ATOM     10  C   UNL     1      48.634   6.691  14.878  0.00  0.00    +0.000 C 
ENDBRANCH   3  10
ENDBRANCH   1   6
BRANCH   1  11
ATOM     11  C   UNL     1      44.926   3.603  10.655  0.00  0.00    +0.000 C 
BRANCH  11  12
ATOM     12  C   UNL     1      45.080   4.166   9.212  0.00  0.00    +0.000 C 
ATOM     13  F   UNL     1      43.821   4.394   8.720  0.00  0.00    +0.000 F 
ATOM     14  F   UNL     1      45.655   5.406   9.282  0.00  0.00    +0.000 F 
BRANCH  12  15
ATOM     15  C   UNL     1      45.876   3.226   8.322  0.00  0.00    +0.000 A 
ATOM     16  C   UNL     1      46.584   3.723   7.218  0.00  0.00    +0.000 A 
ATOM     17  C   UNL     1      47.290   2.861   6.375  0.00  0.00    +0.000 A 
ATOM     18  C   UNL     1      47.301   1.491   6.627  0.00  0.00    +0.000 A 
ATOM     19  C   UNL     1      46.618   0.983   7.729  0.00  0.00    +0.000 A 
ATOM     20  C   UNL     1      45.910   1.843   8.574  0.00  0.00    +0.000 A 
ENDBRANCH  12  15
ENDBRANCH  11  12
ENDBRANCH   1  11
TORSDOF 5
ENDMDL
MODEL 4
REMARK VINA RESULT:    -6.520      3.407      6.557
REMARK INTER + INTRA:          -8.906
REMARK INTER:                  -8.511
REMARK INTRA:                  -0.395
REMARK UNBOUND:                -0.480
REMARK  Name = 
REMARK  5 active torsions:
REMARK  status: ('A' for Active; 'I' for Inactive)
REMARK    1  A    between atoms: C_2  and  C_3
REMARK    2  A    between atoms: C_6  and  N_7
REMARK    3  A    between atoms: N_7  and  C_8
REMARK    4  A    between atoms: C_8  and  C_9
REMARK    5  A    between atoms: C_9  and  C_12
REMARK                            x       y       z     vdW  Elec       q    Type
REMARK                         _______ _______ _______ _____ _____    ______ ____
ROOT
ATOM      1  N   UNL     1      45.561   3.862  12.872  0.00  0.00    +0.000 N 
ATOM      2  H   UNL     1      45.827   2.903  12.655  0.00  0.00    +0.000 HD
ENDROOT
BRANCH   1   6
ATOM      3  C   UNL     1      48.248   5.641  15.432  0.00  0.00    +0.000 A 
ATOM      4  C   UNL     1      47.481   4.560  15.844  0.00  0.00    +0.000 A 
ATOM      5  N   UNL     1      46.566   3.950  15.038  0.00  0.00    +0.000 NA
ATOM      6  C   UNL     1      46.403   4.468  13.803  0.00  0.00    +0.000 A 
ATOM      7  C   UNL     1      47.155   5.588  13.425  0.00  0.00    +0.000 A 
ATOM      8  N   UNL     1      48.091   6.190  14.207  0.00  0.00    +0.000 NA
BRANCH   3  10
ATOM      9  N   UNL     1      50.066   6.667  16.987  0.00  0.00    +0.000 NA
ATOM     10  C   UNL     1      49.269   6.191  16.280  0.00  0.00    +0.000 C 
ENDBRANCH   3  10
ENDBRANCH   1   6
BRANCH   1  11
ATOM     11  C   UNL     1      45.165   4.669  11.695  0.00  0.00    +0.000 C 
BRANCH  11  12
ATOM     12  C   UNL     1      44.280   3.885  10.683  0.00  0.00    +0.000 C 
ATOM     13  F   UNL     1      43.721   2.828  11.354  0.00  0.00    +0.000 F 
ATOM     14  F   UNL     1      43.216   4.670  10.328  0.00  0.00    +0.000 F 
BRANCH  12  15
ATOM     15  C   UNL     1      45.076   3.432   9.470  0.00  0.00    +0.000 A 
ATOM     16  C   UNL     1      45.300   2.067   9.238  0.00  0.00    +0.000 A 
ATOM     17  C   UNL     1      46.060   1.644   8.144  0.00  0.00    +0.000 A 
ATOM     18  C   UNL     1      46.603   2.580   7.266  0.00  0.00    +0.000 A 
ATOM     19  C   UNL     1      46.374   3.938   7.472  0.00  0.00    +0.000 A 
ATOM     20  C   UNL     1      45.615   4.365   8.566  0.00  0.00    +0.000 A 
ENDBRANCH  12  15
ENDBRANCH  11  12
ENDBRANCH   1  11
TORSDOF 5
ENDMDL
MODEL 5
REMARK VINA RESULT:    -6.446      2.849      5.694
REMARK INTER + INTRA:          -8.810
REMARK INTER:                  -8.215
REMARK INTRA:                  -0.595
REMARK UNBOUND:                -0.480
REMARK  Name = 
REMARK  5 active torsions:
REMARK  status: ('A' for Active; 'I' for Inactive)
REMARK    1  A    between atoms: C_2  and  C_3
REMARK    2  A    between atoms: C_6  and  N_7
REMARK    3  A    between atoms: N_7  and  C_8
REMARK    4  A    between atoms: C_8  and  C_9
REMARK    5  A    between atoms: C_9  and  C_12
REMARK                            x       y       z     vdW  Elec       q    Type
REMARK                         _______ _______ _______ _____ _____    ______ ____
ROOT
ATOM      1  N   UNL     1      44.972   4.481  13.182  0.00  0.00    +0.000 N 
ATOM      2  H   UNL     1      44.649   4.378  14.143  0.00  0.00    +0.000 HD
ENDROOT
BRANCH   1   6
ATOM      3  C   UNL     1      48.370   6.802  13.121  0.00  0.00    +0.000 A 
ATOM      4  C   UNL     1      47.400   6.934  12.138  0.00  0.00    +0.000 A 
ATOM      5  N   UNL     1      46.268   6.176  12.105  0.00  0.00    +0.000 NA
ATOM      6  C   UNL     1      46.133   5.243  13.072  0.00  0.00    +0.000 A 
ATOM      7  C   UNL     1      47.147   5.097  14.028  0.00  0.00    +0.000 A 
ATOM      8  N   UNL     1      48.268   5.865  14.090  0.00  0.00    +0.000 NA
BRANCH   3  10
ATOM      9  N   UNL     1      50.395   8.433  13.247  0.00  0.00    +0.000 NA
ATOM     10  C   UNL     1      49.500   7.689  13.172  0.00  0.00    +0.000 C 
ENDBRANCH   3  10
ENDBRANCH   1   6
BRANCH   1  11
ATOM     11  C   UNL     1      44.900   3.241  12.375  0.00  0.00    +0.000 C 
BRANCH  11  12
ATOM     12  C   UNL     1      43.999   3.381  11.113  0.00  0.00    +0.000 C 
ATOM     13  F   UNL     1      43.036   2.408  11.183  0.00  0.00    +0.000 F 
ATOM     14  F   UNL     1      43.308   4.559  11.194  0.00  0.00    +0.000 F 
BRANCH  12  15
ATOM     15  C   UNL     1      44.809   3.288   9.830  0.00  0.00    +0.000 A 
ATOM     16  C   UNL     1      45.144   2.037   9.292  0.00  0.00    +0.000 A 
ATOM     17  C   UNL     1      45.917   1.943   8.131  0.00  0.00    +0.000 A 
ATOM     18  C   UNL     1      46.362   3.098   7.492  0.00  0.00    +0.000 A 
ATOM     19  C   UNL     1      46.022   4.348   8.004  0.00  0.00    +0.000 A 
ATOM     20  C   UNL     1      45.250   4.446   9.165  0.00  0.00    +0.000 A 
ENDBRANCH  12  15
ENDBRANCH  11  12
ENDBRANCH   1  11
TORSDOF 5
ENDMDL
MODEL 6
REMARK VINA RESULT:    -6.264      1.633      2.285
REMARK INTER + INTRA:          -8.575
REMARK INTER:                  -8.192
REMARK INTRA:                  -0.383
REMARK UNBOUND:                -0.480
REMARK  Name = 
REMARK  5 active torsions:
REMARK  status: ('A' for Active; 'I' for Inactive)
REMARK    1  A    between atoms: C_2  and  C_3
REMARK    2  A    between atoms: C_6  and  N_7
REMARK    3  A    between atoms: N_7  and  C_8
REMARK    4  A    between atoms: C_8  and  C_9
REMARK    5  A    between atoms: C_9  and  C_12
REMARK                            x       y       z     vdW  Elec       q    Type
REMARK                         _______ _______ _______ _____ _____    ______ ____
ROOT
ATOM      1  N   UNL     1      44.480   4.388  10.403  0.00  0.00    +0.000 N 
ATOM      2  H   UNL     1      43.510   4.601  10.180  0.00  0.00    +0.000 HD
ENDROOT
BRANCH   1   6
ATOM      3  C   UNL     1      46.704   2.646   7.409  0.00  0.00    +0.000 A 
ATOM      4  C   UNL     1      46.550   4.024   7.472  0.00  0.00    +0.000 A 
ATOM      5  N   UNL     1      45.809   4.645   8.433  0.00  0.00    +0.000 NA
ATOM      6  C   UNL     1      45.185   3.850   9.328  0.00  0.00    +0.000 A 
ATOM      7  C   UNL     1      45.318   2.459   9.218  0.00  0.00    +0.000 A 
ATOM      8  N   UNL     1      46.076   1.827   8.281  0.00  0.00    +0.000 NA
BRANCH   3  10
ATOM      9  N   UNL     1      48.286   1.594   5.631  0.00  0.00    +0.000 NA
ATOM     10  C   UNL     1      47.573   2.042   6.437  0.00  0.00    +0.000 C 
ENDBRANCH   3  10
ENDBRANCH   1   6
BRANCH   1  11
ATOM     11  C   UNL     1      45.166   5.424  11.209  0.00  0.00    +0.000 C 
BRANCH  11  12
ATOM     12  C   UNL     1      44.188   6.452  11.848  0.00  0.00    +0.000 C 
ATOM     13  F   UNL     1      43.010   6.391  11.149  0.00  0.00    +0.000 F 
ATOM     14  F   UNL     1      43.865   6.028  13.108  0.00  0.00    +0.000 F 
BRANCH  12  15
ATOM     15  C   UNL     1      44.772   7.855  11.857  0.00  0.00    +0.000 A 
ATOM     16  C   UNL     1      44.158   8.884  11.126  0.00  0.00    +0.000 A 
ATOM     17  C   UNL     1      44.709  10.168  11.102  0.00  0.00    +0.000 A 
ATOM     18  C   UNL     1      45.876  10.442  11.810  0.00  0.00    +0.000 A 
ATOM     19  C   UNL     1      46.487   9.437  12.555  0.00  0.00    +0.000 A 
ATOM     20  C   UNL     1      45.940   8.151  12.581  0.00  0.00    +0.000 A 
ENDBRANCH  12  15
ENDBRANCH  11  12
ENDBRANCH   1  11
TORSDOF 5
ENDMDL
MODEL 7
REMARK VINA RESULT:    -5.721      4.647      7.359
REMARK INTER + INTRA:          -7.873
REMARK INTER:                  -7.476
REMARK INTRA:                  -0.397
REMARK UNBOUND:                -0.480
REMARK  Name = 
REMARK  5 active torsions:
REMARK  status: ('A' for Active; 'I' for Inactive)
REMARK    1  A    between atoms: C_2  and  C_3
REMARK    2  A    between atoms: C_6  and  N_7
REMARK    3  A    between atoms: N_7  and  C_8
REMARK    4  A    between atoms: C_8  and  C_9
REMARK    5  A    between atoms: C_9  and  C_12
REMARK                            x       y       z     vdW  Elec       q    Type
REMARK                         _______ _______ _______ _____ _____    ______ ____
ROOT
ATOM      1  N   UNL     1      46.426   4.315  14.459  0.00  0.00    +0.000 N 
ATOM      2  H   UNL     1      46.160   3.348  14.281  0.00  0.00    +0.000 HD
ENDROOT
BRANCH   1   6
ATOM      3  C   UNL     1      48.727   4.745  17.844  0.00  0.00    +0.000 A 
ATOM      4  C   UNL     1      48.953   5.534  16.725  0.00  0.00    +0.000 A 
ATOM      5  N   UNL     1      48.230   5.416  15.576  0.00  0.00    +0.000 NA
ATOM      6  C   UNL     1      47.281   4.456  15.550  0.00  0.00    +0.000 A 
ATOM      7  C   UNL     1      47.102   3.641  16.676  0.00  0.00    +0.000 A 
ATOM      8  N   UNL     1      47.796   3.765  17.839  0.00  0.00    +0.000 NA
BRANCH   3  10
ATOM      9  N   UNL     1      50.073   5.142  20.036  0.00  0.00    +0.000 NA
ATOM     10  C   UNL     1      49.448   4.970  19.067  0.00  0.00    +0.000 C 
ENDBRANCH   3  10
ENDBRANCH   1   6
BRANCH   1  11
ATOM     11  C   UNL     1      46.750   5.095  13.243  0.00  0.00    +0.000 C 
BRANCH  11  12
ATOM     12  C   UNL     1      45.491   5.630  12.502  0.00  0.00    +0.000 C 
ATOM     13  F   UNL     1      44.450   5.618  13.394  0.00  0.00    +0.000 F 
ATOM     14  F   UNL     1      45.680   6.953  12.209  0.00  0.00    +0.000 F 
BRANCH  12  15
ATOM     15  C   UNL     1      45.181   4.815  11.256  0.00  0.00    +0.000 A 
ATOM     16  C   UNL     1      44.516   3.584  11.361  0.00  0.00    +0.000 A 
ATOM     17  C   UNL     1      44.258   2.814  10.224  0.00  0.00    +0.000 A 
ATOM     18  C   UNL     1      44.658   3.265   8.968  0.00  0.00    +0.000 A 
ATOM     19  C   UNL     1      45.303   4.493   8.845  0.00  0.00    +0.000 A 
ATOM     20  C   UNL     1      45.564   5.266   9.981  0.00  0.00    +0.000 A 
ENDBRANCH  12  15
ENDBRANCH  11  12
ENDBRANCH   1  11
TORSDOF 5
ENDMDL
MODEL 8
REMARK VINA RESULT:    -4.890      5.187      7.547
REMARK INTER + INTRA:          -6.800
REMARK INTER:                  -6.435
REMARK INTRA:                  -0.365
REMARK UNBOUND:                -0.480
REMARK  Name = 
REMARK  5 active torsions:
REMARK  status: ('A' for Active; 'I' for Inactive)
REMARK    1  A    between atoms: C_2  and  C_3
REMARK    2  A    between atoms: C_6  and  N_7
REMARK    3  A    between atoms: N_7  and  C_8
REMARK    4  A    between atoms: C_8  and  C_9
REMARK    5  A    between atoms: C_9  and  C_12
REMARK                            x       y       z     vdW  Elec       q    Type
REMARK                         _______ _______ _______ _____ _____    ______ ____
ROOT
ATOM      1  N   UNL     1      47.593   6.410  14.668  0.00  0.00    +0.000 N 
ATOM      2  H   UNL     1      46.673   6.572  15.072  0.00  0.00    +0.000 HD
ENDROOT
BRANCH   1   6
ATOM      3  C   UNL     1      50.186   5.192  17.624  0.00  0.00    +0.000 A 
ATOM      4  C   UNL     1      50.588   6.100  16.654  0.00  0.00    +0.000 A 
ATOM      5  N   UNL     1      49.771   6.519  15.646  0.00  0.00    +0.000 NA
ATOM      6  C   UNL     1      48.534   5.981  15.602  0.00  0.00    +0.000 A 
ATOM      7  C   UNL     1      48.166   5.032  16.566  0.00  0.00    +0.000 A 
ATOM      8  N   UNL     1      48.959   4.626  17.593  0.00  0.00    +0.000 NA
BRANCH   3  10
ATOM      9  N   UNL     1      51.776   4.562  19.586  0.00  0.00    +0.000 NA
ATOM     10  C   UNL     1      51.046   4.854  18.724  0.00  0.00    +0.000 C 
ENDBRANCH   3  10
ENDBRANCH   1   6
BRANCH   1  11
ATOM     11  C   UNL     1      47.575   5.714  13.361  0.00  0.00    +0.000 C 
BRANCH  11  12
ATOM     12  C   UNL     1      46.559   6.327  12.353  0.00  0.00    +0.000 C 
ATOM     13  F   UNL     1      46.045   7.463  12.923  0.00  0.00    +0.000 F 
ATOM     14  F   UNL     1      47.242   6.769  11.253  0.00  0.00    +0.000 F 
BRANCH  12  15
ATOM     15  C   UNL     1      45.469   5.336  11.979  0.00  0.00    +0.000 A 
ATOM     16  C   UNL     1      44.556   5.638  10.957  0.00  0.00    +0.000 A 
ATOM     17  C   UNL     1      43.530   4.748  10.630  0.00  0.00    +0.000 A 
ATOM     18  C   UNL     1      43.405   3.543  11.318  0.00  0.00    +0.000 A 
ATOM     19  C   UNL     1      44.313   3.220  12.323  0.00  0.00    +0.000 A 
ATOM     20  C   UNL     1      45.340   4.109  12.653  0.00  0.00    +0.000 A 
ENDBRANCH  12  15
ENDBRANCH  11  12
ENDBRANCH   1  11
TORSDOF 5
ENDMDL
MODEL 9
REMARK VINA RESULT:    -4.816      4.921      6.507
REMARK INTER + INTRA:          -6.704
REMARK INTER:                  -6.327
REMARK INTRA:                  -0.377
REMARK UNBOUND:                -0.480
REMARK  Name = 
REMARK  5 active torsions:
REMARK  status: ('A' for Active; 'I' for Inactive)
REMARK    1  A    between atoms: C_2  and  C_3
REMARK    2  A    between atoms: C_6  and  N_7
REMARK    3  A    between atoms: N_7  and  C_8
REMARK    4  A    between atoms: C_8  and  C_9
REMARK    5  A    between atoms: C_9  and  C_12
REMARK                            x       y       z     vdW  Elec       q    Type
REMARK                         _______ _______ _______ _____ _____    ______ ____
ROOT
ATOM      1  N   UNL     1      47.617   5.596  15.039  0.00  0.00    +0.000 N 
ATOM      2  H   UNL     1      48.412   6.077  14.622  0.00  0.00    +0.000 HD
ENDROOT
BRANCH   1   6
ATOM      3  C   UNL     1      45.274   3.841  12.145  0.00  0.00    +0.000 A 
ATOM      4  C   UNL     1      45.217   5.208  12.375  0.00  0.00    +0.000 A 
ATOM      5  N   UNL     1      45.959   5.832  13.334  0.00  0.00    +0.000 NA
ATOM      6  C   UNL     1      46.750   5.047  14.095  0.00  0.00    +0.000 A 
ATOM      7  C   UNL     1      46.758   3.663  13.875  0.00  0.00    +0.000 A 
ATOM      8  N   UNL     1      46.045   3.031  12.905  0.00  0.00    +0.000 NA
BRANCH   3  10
ATOM      9  N   UNL     1      43.919   2.767  10.200  0.00  0.00    +0.000 NA
ATOM     10  C   UNL     1      44.548   3.241  11.060  0.00  0.00    +0.000 C 
ENDBRANCH   3  10
ENDBRANCH   1   6
BRANCH   1  11
ATOM     11  C   UNL     1      47.955   4.758  16.212  0.00  0.00    +0.000 C 
BRANCH  11  12
ATOM     12  C   UNL     1      48.291   5.588  17.484  0.00  0.00    +0.000 C 
ATOM     13  F   UNL     1      48.358   6.906  17.112  0.00  0.00    +0.000 F 
ATOM     14  F   UNL     1      47.229   5.526  18.345  0.00  0.00    +0.000 F 
BRANCH  12  15
ATOM     15  C   UNL     1      49.578   5.117  18.142  0.00  0.00    +0.000 A 
ATOM     16  C   UNL     1      49.819   5.380  19.499  0.00  0.00    +0.000 A 
ATOM     17  C   UNL     1      51.014   4.981  20.102  0.00  0.00    +0.000 A 
ATOM     18  C   UNL     1      51.983   4.311  19.358  0.00  0.00    +0.000 A 
ATOM     19  C   UNL     1      51.752   4.026  18.015  0.00  0.00    +0.000 A 
ATOM     20  C   UNL     1      50.557   4.425  17.408  0.00  0.00    +0.000 A 
ENDBRANCH  12  15
ENDBRANCH  11  12
ENDBRANCH   1  11
TORSDOF 5
ENDMDL
