MODEL 1
REMARK VINA RESULT:    -6.463      0.000      0.000
REMARK INTER + INTRA:          -9.611
REMARK INTER:                  -9.108
REMARK INTRA:                  -0.504
REMARK UNBOUND:                -0.504
REMARK  Name = 
REMARK  10 active torsions:
REMARK  status: ('A' for Active; 'I' for Inactive)
REMARK    1  A    between atoms: C_1  and  C_2
REMARK    2  A    between atoms: C_2  and  O_3
REMARK    3  A    between atoms: O_3  and  C_4
REMARK    4  A    between atoms: C_4  and  C_6
REMARK    5  A    between atoms: C_9  and  N_10
REMARK    6  A    between atoms: N_10  and  C_11
REMARK    7  A    between atoms: C_11  and  C_12
REMARK    8  A    between atoms: C_12  and  C_13
REMARK    9  A    between atoms: C_12  and  C_14
REMARK   10  A    between atoms: C_12  and  C_15
REMARK                            x       y       z     vdW  Elec       q    Type
REMARK                         _______ _______ _______ _____ _____    ______ ____
ROOT
ATOM      1  N   UNL     1      47.259   5.332  14.982  0.00  0.00    +0.000 N 
ATOM      2  H   UNL     1      46.916   6.236  15.295  0.00  0.00    +0.000 HD
ENDROOT
BRANCH   1   6
ATOM      3  C   UNL     1      44.770   3.785  12.108  0.00  0.00    +0.000 A 
ATOM      4  C   UNL     1      44.660   5.114  12.488  0.00  0.00    +0.000 A 
ATOM      5  N   UNL     1      45.455   5.674  13.442  0.00  0.00    +0.000 NA
ATOM      6  C   UNL     1      46.375   4.862  14.003  0.00  0.00    +0.000 A 
ATOM      7  C   UNL     1      46.503   3.537  13.573  0.00  0.00    +0.000 A 
ATOM      8  N   UNL     1      45.716   2.966  12.635  0.00  0.00    +0.000 NA
BRANCH   3   9
ATOM      9  C   UNL     1      43.736   3.199  11.221  0.00  0.00    +0.000 C 
ATOM     10  O   UNL     1      42.955   2.327  11.568  0.00  0.00    +0.000 OA
BRANCH   9  11
ATOM     11  O   UNL     1      43.910   3.674   9.961  0.00  0.00    +0.000 OA
BRANCH  11  13
ATOM     12  C   UNL     1      45.351   3.788   8.058  0.00  0.00    +0.000 C 
ATOM     13  C   UNL     1      44.717   2.872   9.091  0.00  0.00    +0.000 C 
ENDBRANCH  11  13
ENDBRANCH   9  11
ENDBRANCH   3   9
ENDBRANCH   1   6
BRANCH   1  14
ATOM     14  C   UNL     1      47.544   4.412  16.085  0.00  0.00    +0.000 C 
BRANCH  14  15
ATOM     15  C   UNL     1      48.548   5.051  17.107  0.00  0.00    +0.000 C 
ATOM     16  C   UNL     1      48.981   6.446  16.591  0.00  0.00    +0.000 C 
ATOM     17  C   UNL     1      47.846   5.267  18.470  0.00  0.00    +0.000 C 
BRANCH  15  18
ATOM     18  C   UNL     1      49.743   4.097  17.316  0.00  0.00    +0.000 A 
ATOM     19  C   UNL     1      51.009   4.545  17.724  0.00  0.00    +0.000 A 
ATOM     20  C   UNL     1      52.036   3.627  17.905  0.00  0.00    +0.000 A 
ATOM     21  N   UNL     1      51.903   2.302  17.709  0.00  0.00    +0.000 NA
ATOM     22  C   UNL     1      50.686   1.875  17.317  0.00  0.00    +0.000 A 
ATOM     23  C   UNL     1      49.597   2.715  17.114  0.00  0.00    +0.000 A 
ENDBRANCH  15  18
ENDBRANCH  14  15
ENDBRANCH   1  14
TORSDOF 7
ENDMDL
MODEL 2
REMARK VINA RESULT:    -6.384      3.310      8.083
REMARK INTER + INTRA:          -9.500
REMARK INTER:                  -8.900
REMARK INTRA:                  -0.600
REMARK UNBOUND:                -0.504
REMARK  Name = 
REMARK  10 active torsions:
REMARK  status: ('A' for Active; 'I' for Inactive)
REMARK    1  A    between atoms: C_1  and  C_2
REMARK    2  A    between atoms: C_2  and  O_3
REMARK    3  A    between atoms: O_3  and  C_4
REMARK    4  A    between atoms: C_4  and  C_6
REMARK    5  A    between atoms: C_9  and  N_10
REMARK    6  A    between atoms: N_10  and  C_11
REMARK    7  A    between atoms: C_11  and  C_12
REMARK    8  A    between atoms: C_12  and  C_13
REMARK    9  A    between atoms: C_12  and  C_14
REMARK   10  A    between atoms: C_12  and  C_15
REMARK                            x       y       z     vdW  Elec       q    Type
REMARK                         _______ _______ _______ _____ _____    ______ ____
ROOT
ATOM      1  N   UNL     1      46.328   4.956  12.894  0.00  0.00    +0.000 N 
ATOM      2  H   UNL     1      46.892   4.400  12.258  0.00  0.00    +0.000 HD
ENDROOT
BRANCH   1   6
ATOM      3  C   UNL     1      48.303   5.055  16.491  0.00  0.00    +0.000 A 
ATOM      4  C   UNL     1      47.383   4.052  16.224  0.00  0.00    +0.000 A 
ATOM      5  N   UNL     1      46.696   3.979  15.050  0.00  0.00    +0.000 NA
ATOM      6  C   UNL     1      46.961   4.941  14.143  0.00  0.00    +0.000 A 
ATOM      7  C   UNL     1      47.926   5.917  14.410  0.00  0.00    +0.000 A 
ATOM      8  N   UNL     1      48.609   6.008  15.573  0.00  0.00    +0.000 NA
BRANCH   3   9
ATOM      9  C   UNL     1      48.851   5.188  17.862  0.00  0.00    +0.000 C 
ATOM     10  O   UNL     1      48.927   6.246  18.468  0.00  0.00    +0.000 OA
BRANCH   9  11
ATOM     11  O   UNL     1      49.375   3.997  18.248  0.00  0.00    +0.000 OA
BRANCH  11  13
ATOM     12  C   UNL     1      50.688   2.249  17.281  0.00  0.00    +0.000 C 
ATOM     13  C   UNL     1      50.684   3.694  17.751  0.00  0.00    +0.000 C 
ENDBRANCH  11  13
ENDBRANCH   9  11
ENDBRANCH   3   9
ENDBRANCH   1   6
BRANCH   1  14
ATOM     14  C   UNL     1      44.913   4.579  12.886  0.00  0.00    +0.000 C 
BRANCH  14  15
ATOM     15  C   UNL     1      44.192   5.117  11.601  0.00  0.00    +0.000 C 
ATOM     16  C   UNL     1      42.661   5.116  11.840  0.00  0.00    +0.000 C 
ATOM     17  C   UNL     1      44.612   6.583  11.337  0.00  0.00    +0.000 C 
BRANCH  15  18
ATOM     18  C   UNL     1      44.605   4.261  10.385  0.00  0.00    +0.000 A 
ATOM     19  C   UNL     1      44.273   2.902  10.266  0.00  0.00    +0.000 A 
ATOM     20  C   UNL     1      44.667   2.196   9.137  0.00  0.00    +0.000 A 
ATOM     21  N   UNL     1      45.368   2.734   8.120  0.00  0.00    +0.000 NA
ATOM     22  C   UNL     1      45.684   4.038   8.238  0.00  0.00    +0.000 A 
ATOM     23  C   UNL     1      45.332   4.828   9.326  0.00  0.00    +0.000 A 
ENDBRANCH  15  18
ENDBRANCH  14  15
ENDBRANCH   1  14
TORSDOF 7
ENDMDL
MODEL 3
REMARK VINA RESULT:    -6.222      3.548      8.219
REMARK INTER + INTRA:          -9.272
REMARK INTER:                  -8.691
REMARK INTRA:                  -0.580
REMARK UNBOUND:                -0.504
REMARK  Name = 
REMARK  10 active torsions:
REMARK  status: ('A' for Active; 'I' for Inactive)
REMARK    1  A    between atoms: C_1  and  C_2
REMARK    2  A    between atoms: C_2  and  O_3
REMARK    3  A    between atoms: O_3  and  C_4
REMARK    4  A    between atoms: C_4  and  C_6
REMARK    5  A    between atoms: C_9  and  N_10
REMARK    6  A    between atoms: N_10  and  C_11
REMARK    7  A    between atoms: C_11  and  C_12
REMARK    8  A    between atoms: C_12  and  C_13
REMARK    9  A    between atoms: C_12  and  C_14
REMARK   10  A    between atoms: C_12  and  C_15
REMARK                            x       y       z     vdW  Elec       q    Type
REMARK                         _______ _______ _______ _____ _____    ______ ____
ROOT
ATOM      1  N   UNL     1      46.320   4.917  12.886  0.00  0.00    +0.000 N 
ATOM      2  H   UNL     1      46.863   4.344  12.246  0.00  0.00    +0.000 HD
ENDROOT
BRANCH   1   6
ATOM      3  C   UNL     1      48.284   4.927  16.490  0.00  0.00    +0.000 A 
ATOM      4  C   UNL     1      47.414   3.896  16.169  0.00  0.00    +0.000 A 
ATOM      5  N   UNL     1      46.732   3.849  14.991  0.00  0.00    +0.000 NA
ATOM      6  C   UNL     1      46.952   4.868  14.135  0.00  0.00    +0.000 A 
ATOM      7  C   UNL     1      47.868   5.875  14.455  0.00  0.00    +0.000 A 
ATOM      8  N   UNL     1      48.545   5.939  15.623  0.00  0.00    +0.000 NA
BRANCH   3   9
ATOM      9  C   UNL     1      48.823   5.015  17.869  0.00  0.00    +0.000 C 
ATOM     10  O   UNL     1      49.481   4.135  18.402  0.00  0.00    +0.000 OA
BRANCH   9  11
ATOM     11  O   UNL     1      48.343   6.137  18.463  0.00  0.00    +0.000 OA
BRANCH  11  13
ATOM     12  C   UNL     1      47.410   6.368  20.652  0.00  0.00    +0.000 C 
ATOM     13  C   UNL     1      47.129   5.985  19.208  0.00  0.00    +0.000 C 
ENDBRANCH  11  13
ENDBRANCH   9  11
ENDBRANCH   3   9
ENDBRANCH   1   6
BRANCH   1  14
ATOM     14  C   UNL     1      44.892   4.594  12.876  0.00  0.00    +0.000 C 
BRANCH  14  15
ATOM     15  C   UNL     1      44.203   5.121  11.569  0.00  0.00    +0.000 C 
ATOM     16  C   UNL     1      42.668   5.135  11.773  0.00  0.00    +0.000 C 
ATOM     17  C   UNL     1      44.640   6.581  11.296  0.00  0.00    +0.000 C 
BRANCH  15  18
ATOM     18  C   UNL     1      44.637   4.248  10.373  0.00  0.00    +0.000 A 
ATOM     19  C   UNL     1      44.324   2.883  10.277  0.00  0.00    +0.000 A 
ATOM     20  C   UNL     1      44.735   2.160   9.165  0.00  0.00    +0.000 A 
ATOM     21  N   UNL     1      45.436   2.688   8.143  0.00  0.00    +0.000 NA
ATOM     22  C   UNL     1      45.734   3.998   8.237  0.00  0.00    +0.000 A 
ATOM     23  C   UNL     1      45.363   4.804   9.308  0.00  0.00    +0.000 A 
ENDBRANCH  15  18
ENDBRANCH  14  15
ENDBRANCH   1  14
TORSDOF 7
ENDMDL
MODEL 4
REMARK VINA RESULT:    -5.827      3.480      8.173
REMARK INTER + INTRA:          -8.716
REMARK INTER:                  -8.107
REMARK INTRA:                  -0.609
REMARK UNBOUND:                -0.504
REMARK  Name = 
REMARK  10 active torsions:
REMARK  status: ('A' for Active; 'I' for Inactive)
REMARK    1  A    between atoms: C_1  and  C_2
REMARK    2  A    between atoms: C_2  and  O_3
REMARK    3  A    between atoms: O_3  and  C_4
REMARK    4  A    between atoms: C_4  and  C_6
REMARK    5  A    between atoms: C_9  and  N_10
REMARK    6  A    between atoms: N_10  and  C_11
REMARK    7  A    between atoms: C_11  and  C_12
REMARK    8  A    between atoms: C_12  and  C_13
REMARK    9  A    between atoms: C_12  and  C_14
REMARK   10  A    between atoms: C_12  and  C_15
REMARK                            x       y       z     vdW  Elec       q    Type
REMARK                         _______ _______ _______ _____ _____    ______ ____
ROOT
ATOM      1  N   UNL     1      45.793   4.146  13.414  0.00  0.00    +0.000 N 
ATOM      2  H   UNL     1      45.203   3.608  14.042  0.00  0.00    +0.000 HD
ENDROOT
BRANCH   1   6
ATOM      3  C   UNL     1      48.682   5.792  15.820  0.00  0.00    +0.000 A 
ATOM      4  C   UNL     1      48.277   6.444  14.665  0.00  0.00    +0.000 A 
ATOM      5  N   UNL     1      47.329   5.937  13.829  0.00  0.00    +0.000 NA
ATOM      6  C   UNL     1      46.789   4.754  14.187  0.00  0.00    +0.000 A 
ATOM      7  C   UNL     1      47.175   4.134  15.379  0.00  0.00    +0.000 A 
ATOM      8  N   UNL     1      48.121   4.620  16.214  0.00  0.00    +0.000 NA
BRANCH   3   9
ATOM      9  C   UNL     1      49.861   6.301  16.562  0.00  0.00    +0.000 C 
ATOM     10  O   UNL     1      50.090   7.485  16.748  0.00  0.00    +0.000 OA
BRANCH   9  11
ATOM     11  O   UNL     1      50.686   5.262  16.852  0.00  0.00    +0.000 OA
BRANCH  11  13
ATOM     12  C   UNL     1      50.268   4.830  19.165  0.00  0.00    +0.000 C 
ATOM     13  C   UNL     1      51.298   5.286  18.146  0.00  0.00    +0.000 C 
ENDBRANCH  11  13
ENDBRANCH   9  11
ENDBRANCH   3   9
ENDBRANCH   1   6
BRANCH   1  14
ATOM     14  C   UNL     1      45.033   5.033  12.531  0.00  0.00    +0.000 C 
BRANCH  14  15
ATOM     15  C   UNL     1      44.014   4.223  11.656  0.00  0.00    +0.000 C 
ATOM     16  C   UNL     1      43.533   2.984  12.452  0.00  0.00    +0.000 C 
ATOM     17  C   UNL     1      42.765   5.090  11.365  0.00  0.00    +0.000 C 
BRANCH  15  18
ATOM     18  C   UNL     1      44.676   3.848  10.314  0.00  0.00    +0.000 A 
ATOM     19  C   UNL     1      45.265   4.800   9.467  0.00  0.00    +0.000 A 
ATOM     20  C   UNL     1      45.855   4.389   8.278  0.00  0.00    +0.000 A 
ATOM     21  N   UNL     1      45.900   3.108   7.865  0.00  0.00    +0.000 NA
ATOM     22  C   UNL     1      45.334   2.197   8.681  0.00  0.00    +0.000 A 
ATOM     23  C   UNL     1      44.725   2.510   9.890  0.00  0.00    +0.000 A 
ENDBRANCH  15  18
ENDBRANCH  14  15
ENDBRANCH   1  14
TORSDOF 7
ENDMDL
MODEL 5
REMARK VINA RESULT:    -5.723      4.329      7.802
REMARK INTER + INTRA:          -8.569
REMARK INTER:                  -7.845
REMARK INTRA:                  -0.725
REMARK UNBOUND:                -0.504
REMARK  Name = 
REMARK  10 active torsions:
REMARK  status: ('A' for Active; 'I' for Inactive)
REMARK    1  A    between atoms: C_1  and  C_2
REMARK    2  A    between atoms: C_2  and  O_3
REMARK    3  A    between atoms: O_3  and  C_4
REMARK    4  A    between atoms: C_4  and  C_6
REMARK    5  A    between atoms: C_9  and  N_10
REMARK    6  A    between atoms: N_10  and  C_11
REMARK    7  A    between atoms: C_11  and  C_12
REMARK    8  A    between atoms: C_12  and  C_13
REMARK    9  A    between atoms: C_12  and  C_14
REMARK   10  A    between atoms: C_12  and  C_15
REMARK                            x       y       z     vdW  Elec       q    Type
REMARK                         _______ _______ _______ _____ _____    ______ ____
ROOT
ATOM      1  N   UNL     1      45.169   5.157  13.023  0.00  0.00    +0.000 N 
ATOM      2  H   UNL     1      44.413   5.724  12.650  0.00  0.00    +0.000 HD
ENDROOT
BRANCH   1   6
ATOM      3  C   UNL     1      48.696   7.248  12.847  0.00  0.00    +0.000 A 
ATOM      4  C   UNL     1      47.674   7.520  11.950  0.00  0.00    +0.000 A 
ATOM      5  N   UNL     1      46.488   6.850  11.960  0.00  0.00    +0.000 NA
ATOM      6  C   UNL     1      46.351   5.898  12.905  0.00  0.00    +0.000 A 
ATOM      7  C   UNL     1      47.373   5.670  13.832  0.00  0.00    +0.000 A 
ATOM      8  N   UNL     1      48.557   6.320  13.828  0.00  0.00    +0.000 NA
BRANCH   3   9
ATOM      9  C   UNL     1      50.026   7.870  12.639  0.00  0.00    +0.000 C 
ATOM     10  O   UNL     1      50.637   8.479  13.504  0.00  0.00    +0.000 OA
BRANCH   9  11
ATOM     11  O   UNL     1      50.358   7.780  11.326  0.00  0.00    +0.000 OA
BRANCH  11  13
ATOM     12  C   UNL     1      52.110   8.798  10.058  0.00  0.00    +0.000 C 
ATOM     13  C   UNL     1      51.757   7.690  11.035  0.00  0.00    +0.000 C 
ENDBRANCH  11  13
ENDBRANCH   9  11
ENDBRANCH   3   9
ENDBRANCH   1   6
BRANCH   1  14
ATOM     14  C   UNL     1      45.201   3.803  12.465  0.00  0.00    +0.000 C 
BRANCH  14  15
ATOM     15  C   UNL     1      44.155   3.645  11.307  0.00  0.00    +0.000 C 
ATOM     16  C   UNL     1      43.215   2.456  11.630  0.00  0.00    +0.000 C 
ATOM     17  C   UNL     1      43.271   4.913  11.218  0.00  0.00    +0.000 C 
BRANCH  15  18
ATOM     18  C   UNL     1      44.898   3.469   9.966  0.00  0.00    +0.000 A 
ATOM     19  C   UNL     1      45.154   2.210   9.400  0.00  0.00    +0.000 A 
ATOM     20  C   UNL     1      45.817   2.127   8.183  0.00  0.00    +0.000 A 
ATOM     21  N   UNL     1      46.248   3.197   7.487  0.00  0.00    +0.000 NA
ATOM     22  C   UNL     1      46.000   4.403   8.033  0.00  0.00    +0.000 A 
ATOM     23  C   UNL     1      45.341   4.588   9.243  0.00  0.00    +0.000 A 
ENDBRANCH  15  18
ENDBRANCH  14  15
ENDBRANCH   1  14
TORSDOF 7
ENDMDL
MODEL 6
REMARK VINA RESULT:    -5.721      1.644      2.883
REMARK INTER + INTRA:          -8.566
REMARK INTER:                  -8.070
REMARK INTRA:                  -0.496
REMARK UNBOUND:                -0.504
REMARK  Name = 
REMARK  10 active torsions:
REMARK  status: ('A' for Active; 'I' for Inactive)
REMARK    1  A    between atoms: C_1  and  C_2
REMARK    2  A    between atoms: C_2  and  O_3
REMARK    3  A    between atoms: O_3  and  C_4
REMARK    4  A    between atoms: C_4  and  C_6
REMARK    5  A    between atoms: C_9  and  N_10
REMARK    6  A    between atoms: N_10  and  C_11
REMARK    7  A    between atoms: C_11  and  C_12
REMARK    8  A    between atoms: C_12  and  C_13
REMARK    9  A    between atoms: C_12  and  C_14
REMARK   10  A    between atoms: C_12  and  C_15
REMARK                            x       y       z     vdW  Elec       q    Type
REMARK                         _______ _______ _______ _____ _____    ______ ____
ROOT
ATOM      1  N   UNL     1      47.525   5.576  15.048  0.00  0.00    +0.000 N 
ATOM      2  H   UNL     1      47.215   6.518  15.271  0.00  0.00    +0.000 HD
ENDROOT
BRANCH   1   6
ATOM      3  C   UNL     1      45.164   3.961  12.106  0.00  0.00    +0.000 A 
ATOM      4  C   UNL     1      45.204   5.334  12.297  0.00  0.00    +0.000 A 
ATOM      5  N   UNL     1      45.964   5.919  13.264  0.00  0.00    +0.000 NA
ATOM      6  C   UNL     1      46.693   5.086  14.035  0.00  0.00    +0.000 A 
ATOM      7  C   UNL     1      46.676   3.708  13.797  0.00  0.00    +0.000 A 
ATOM      8  N   UNL     1      45.921   3.113  12.848  0.00  0.00    +0.000 NA
BRANCH   3   9
ATOM      9  C   UNL     1      44.157   3.389  11.178  0.00  0.00    +0.000 C 
ATOM     10  O   UNL     1      43.249   2.652  11.527  0.00  0.00    +0.000 OA
BRANCH   9  11
ATOM     11  O   UNL     1      44.506   3.694   9.902  0.00  0.00    +0.000 OA
BRANCH  11  13
ATOM     12  C   UNL     1      45.555   3.091   7.841  0.00  0.00    +0.000 C 
ATOM     13  C   UNL     1      44.772   2.582   9.039  0.00  0.00    +0.000 C 
ENDBRANCH  11  13
ENDBRANCH   9  11
ENDBRANCH   3   9
ENDBRANCH   1   6
BRANCH   1  14
ATOM     14  C   UNL     1      47.667   4.724  16.231  0.00  0.00    +0.000 C 
BRANCH  14  15
ATOM     15  C   UNL     1      48.902   5.158  17.095  0.00  0.00    +0.000 C 
ATOM     16  C   UNL     1      49.774   3.914  17.397  0.00  0.00    +0.000 C 
ATOM     17  C   UNL     1      49.782   6.149  16.295  0.00  0.00    +0.000 C 
BRANCH  15  18
ATOM     18  C   UNL     1      48.409   5.864  18.376  0.00  0.00    +0.000 A 
ATOM     19  C   UNL     1      48.086   7.230  18.413  0.00  0.00    +0.000 A 
ATOM     20  C   UNL     1      47.635   7.796  19.598  0.00  0.00    +0.000 A 
ATOM     21  N   UNL     1      47.485   7.113  20.749  0.00  0.00    +0.000 NA
ATOM     22  C   UNL     1      47.794   5.802  20.709  0.00  0.00    +0.000 A 
ATOM     23  C   UNL     1      48.249   5.145  19.571  0.00  0.00    +0.000 A 
ENDBRANCH  15  18
ENDBRANCH  14  15
ENDBRANCH   1  14
TORSDOF 7
ENDMDL
MODEL 7
REMARK VINA RESULT:    -5.691      1.760      2.703
REMARK INTER + INTRA:          -8.524
REMARK INTER:                  -7.908
REMARK INTRA:                  -0.616
REMARK UNBOUND:                -0.504
REMARK  Name = 
REMARK  10 active torsions:
REMARK  status: ('A' for Active; 'I' for Inactive)
REMARK    1  A    between atoms: C_1  and  C_2
REMARK    2  A    between atoms: C_2  and  O_3
REMARK    3  A    between atoms: O_3  and  C_4
REMARK    4  A    between atoms: C_4  and  C_6
REMARK    5  A    between atoms: C_9  and  N_10
REMARK    6  A    between atoms: N_10  and  C_11
REMARK    7  A    between atoms: C_11  and  C_12
REMARK    8  A    between atoms: C_12  and  C_13
REMARK    9  A    between atoms: C_12  and  C_14
REMARK   10  A    between atoms: C_12  and  C_15
REMARK                            x       y       z     vdW  Elec       q    Type
REMARK                         _______ _______ _______ _____ _____    ______ ____
ROOT
ATOM      1  N   UNL     1      47.352   3.609  15.042  0.00  0.00    +0.000 N 
ATOM      2  H   UNL     1      48.322   3.601  14.740  0.00  0.00    +0.000 HD
ENDROOT
BRANCH   1   6
ATOM      3  C   UNL     1      45.045   4.654  11.812  0.00  0.00    +0.000 A 
ATOM      4  C   UNL     1      45.265   3.319  12.113  0.00  0.00    +0.000 A 
ATOM      5  N   UNL     1      46.029   2.919  13.168  0.00  0.00    +0.000 NA
ATOM      6  C   UNL     1      46.564   3.901  13.922  0.00  0.00    +0.000 A 
ATOM      7  C   UNL     1      46.293   5.242  13.632  0.00  0.00    +0.000 A 
ATOM      8  N   UNL     1      45.545   5.653  12.584  0.00  0.00    +0.000 NA
BRANCH   3   9
ATOM      9  C   UNL     1      44.382   5.008  10.534  0.00  0.00    +0.000 C 
ATOM     10  O   UNL     1      43.200   5.300  10.437  0.00  0.00    +0.000 OA
BRANCH   9  11
ATOM     11  O   UNL     1      45.250   4.804   9.511  0.00  0.00    +0.000 OA
BRANCH  11  13
ATOM     12  C   UNL     1      45.706   2.875   8.175  0.00  0.00    +0.000 C 
ATOM     13  C   UNL     1      44.756   4.037   8.407  0.00  0.00    +0.000 C 
ENDBRANCH  11  13
ENDBRANCH   9  11
ENDBRANCH   3   9
ENDBRANCH   1   6
BRANCH   1  14
ATOM     14  C   UNL     1      47.125   4.446  16.222  0.00  0.00    +0.000 C 
BRANCH  14  15
ATOM     15  C   UNL     1      48.363   4.412  17.185  0.00  0.00    +0.000 C 
ATOM     16  C   UNL     1      47.883   4.652  18.639  0.00  0.00    +0.000 C 
ATOM     17  C   UNL     1      49.020   3.010  17.148  0.00  0.00    +0.000 C 
BRANCH  15  18
ATOM     18  C   UNL     1      49.402   5.454  16.722  0.00  0.00    +0.000 A 
ATOM     19  C   UNL     1      49.073   6.533  15.886  0.00  0.00    +0.000 A 
ATOM     20  C   UNL     1      50.058   7.441  15.519  0.00  0.00    +0.000 A 
ATOM     21  N   UNL     1      51.343   7.358  15.915  0.00  0.00    +0.000 NA
ATOM     22  C   UNL     1      51.654   6.322  16.718  0.00  0.00    +0.000 A 
ATOM     23  C   UNL     1      50.739   5.365  17.142  0.00  0.00    +0.000 A 
ENDBRANCH  15  18
ENDBRANCH  14  15
ENDBRANCH   1  14
TORSDOF 7
ENDMDL
MODEL 8
REMARK VINA RESULT:    -5.518      2.114      2.679
REMARK INTER + INTRA:          -8.280
REMARK INTER:                  -7.687
REMARK INTRA:                  -0.593
REMARK UNBOUND:                -0.504
REMARK  Name = 
REMARK  10 active torsions:
REMARK  status: ('A' for Active; 'I' for Inactive)
REMARK    1  A    between atoms: C_1  and  C_2
REMARK    2  A    between atoms: C_2  and  O_3
REMARK    3  A    between atoms: O_3  and  C_4
REMARK    4  A    between atoms: C_4  and  C_6
REMARK    5  A    between atoms: C_9  and  N_10
REMARK    6  A    between atoms: N_10  and  C_11
REMARK    7  A    between atoms: C_11  and  C_12
REMARK    8  A    between atoms: C_12  and  C_13
REMARK    9  A    between atoms: C_12  and  C_14
REMARK   10  A    between atoms: C_12  and  C_15
REMARK                            x       y       z     vdW  Elec       q    Type
REMARK                         _______ _______ _______ _____ _____    ______ ____
ROOT
ATOM      1  N   UNL     1      47.136   7.304  13.865  0.00  0.00    +0.000 N 
ATOM      2  H   UNL     1      46.615   7.550  14.702  0.00  0.00    +0.000 HD
ENDROOT
BRANCH   1   6
ATOM      3  C   UNL     1      44.738   4.932  11.527  0.00  0.00    +0.000 A 
ATOM      4  C   UNL     1      44.698   6.312  11.398  0.00  0.00    +0.000 A 
ATOM      5  N   UNL     1      45.466   7.144  12.154  0.00  0.00    +0.000 NA
ATOM      6  C   UNL     1      46.287   6.551  13.046  0.00  0.00    +0.000 A 
ATOM      7  C   UNL     1      46.349   5.156  13.129  0.00  0.00    +0.000 A 
ATOM      8  N   UNL     1      45.586   4.319  12.391  0.00  0.00    +0.000 NA
BRANCH   3   9
ATOM      9  C   UNL     1      43.725   4.110  10.820  0.00  0.00    +0.000 C 
ATOM     10  O   UNL     1      42.954   3.347  11.382  0.00  0.00    +0.000 OA
BRANCH   9  11
ATOM     11  O   UNL     1      43.905   4.236   9.481  0.00  0.00    +0.000 OA
BRANCH  11  13
ATOM     12  C   UNL     1      44.980   2.161   8.980  0.00  0.00    +0.000 C 
ATOM     13  C   UNL     1      45.112   3.674   8.953  0.00  0.00    +0.000 C 
ENDBRANCH  11  13
ENDBRANCH   9  11
ENDBRANCH   3   9
ENDBRANCH   1   6
BRANCH   1  14
ATOM     14  C   UNL     1      48.442   6.709  14.155  0.00  0.00    +0.000 C 
BRANCH  14  15
ATOM     15  C   UNL     1      49.053   7.303  15.473  0.00  0.00    +0.000 C 
ATOM     16  C   UNL     1      50.591   7.411  15.316  0.00  0.00    +0.000 C 
ATOM     17  C   UNL     1      48.516   8.737  15.703  0.00  0.00    +0.000 C 
BRANCH  15  18
ATOM     18  C   UNL     1      48.637   6.424  16.671  0.00  0.00    +0.000 A 
ATOM     19  C   UNL     1      48.626   6.900  17.992  0.00  0.00    +0.000 A 
ATOM     20  C   UNL     1      48.228   6.057  19.022  0.00  0.00    +0.000 A 
ATOM     21  N   UNL     1      47.844   4.778  18.840  0.00  0.00    +0.000 NA
ATOM     22  C   UNL     1      47.855   4.326  17.571  0.00  0.00    +0.000 A 
ATOM     23  C   UNL     1      48.234   5.094  16.476  0.00  0.00    +0.000 A 
ENDBRANCH  15  18
ENDBRANCH  14  15
ENDBRANCH   1  14
TORSDOF 7
ENDMDL
MODEL 9
REMARK VINA RESULT:    -5.463      3.378      8.157
REMARK INTER + INTRA:          -8.202
REMARK INTER:                  -7.719
REMARK INTRA:                  -0.483
REMARK UNBOUND:                -0.504
REMARK  Name = 
REMARK  10 active torsions:
REMARK  status: ('A' for Active; 'I' for Inactive)
REMARK    1  A    between atoms: C_1  and  C_2
REMARK    2  A    between atoms: C_2  and  O_3
REMARK    3  A    between atoms: O_3  and  C_4
REMARK    4  A    between atoms: C_4  and  C_6
REMARK    5  A    between atoms: C_9  and  N_10
REMARK    6  A    between atoms: N_10  and  C_11
REMARK    7  A    between atoms: C_11  and  C_12
REMARK    8  A    between atoms: C_12  and  C_13
REMARK    9  A    between atoms: C_12  and  C_14
REMARK   10  A    between atoms: C_12  and  C_15
REMARK                            x       y       z     vdW  Elec       q    Type
REMARK                         _______ _______ _______ _____ _____    ______ ____
ROOT
ATOM      1  N   UNL     1      46.590   5.969  13.637  0.00  0.00    +0.000 N 
ATOM      2  H   UNL     1      47.223   6.548  13.093  0.00  0.00    +0.000 HD
ENDROOT
BRANCH   1   6
ATOM      3  C   UNL     1      48.635   4.169  16.707  0.00  0.00    +0.000 A 
ATOM      4  C   UNL     1      48.898   5.488  16.368  0.00  0.00    +0.000 A 
ATOM      5  N   UNL     1      48.254   6.129  15.353  0.00  0.00    +0.000 NA
ATOM      6  C   UNL     1      47.328   5.409  14.687  0.00  0.00    +0.000 A 
ATOM      7  C   UNL     1      47.042   4.096  15.073  0.00  0.00    +0.000 A 
ATOM      8  N   UNL     1      47.679   3.444  16.071  0.00  0.00    +0.000 NA
BRANCH   3   9
ATOM      9  C   UNL     1      49.521   3.481  17.678  0.00  0.00    +0.000 C 
ATOM     10  O   UNL     1      49.916   2.333  17.546  0.00  0.00    +0.000 OA
BRANCH   9  11
ATOM     11  O   UNL     1      49.680   4.270  18.770  0.00  0.00    +0.000 OA
BRANCH  11  13
ATOM     12  C   UNL     1      49.178   4.859  21.032  0.00  0.00    +0.000 C 
ATOM     13  C   UNL     1      48.677   4.150  19.786  0.00  0.00    +0.000 C 
ENDBRANCH  11  13
ENDBRANCH   9  11
ENDBRANCH   3   9
ENDBRANCH   1   6
BRANCH   1  14
ATOM     14  C   UNL     1      45.824   5.029  12.817  0.00  0.00    +0.000 C 
BRANCH  14  15
ATOM     15  C   UNL     1      45.359   5.697  11.476  0.00  0.00    +0.000 C 
ATOM     16  C   UNL     1      44.048   6.484  11.728  0.00  0.00    +0.000 C 
ATOM     17  C   UNL     1      46.421   6.719  11.002  0.00  0.00    +0.000 C 
BRANCH  15  18
ATOM     18  C   UNL     1      45.202   4.612  10.390  0.00  0.00    +0.000 A 
ATOM     19  C   UNL     1      45.592   4.812   9.057  0.00  0.00    +0.000 A 
ATOM     20  C   UNL     1      45.433   3.785   8.134  0.00  0.00    +0.000 A 
ATOM     21  N   UNL     1      44.915   2.579   8.434  0.00  0.00    +0.000 NA
ATOM     22  C   UNL     1      44.543   2.390   9.715  0.00  0.00    +0.000 A 
ATOM     23  C   UNL     1      44.665   3.354  10.710  0.00  0.00    +0.000 A 
ENDBRANCH  15  18
ENDBRANCH  14  15
ENDBRANCH   1  14
TORSDOF 7
ENDMDL
