MODEL 1
REMARK VINA RESULT:    -8.633      0.000      0.000
REMARK INTER + INTRA:         -11.160
REMARK INTER:                 -10.651
REMARK INTRA:                  -0.509
REMARK UNBOUND:                -0.509
REMARK  Name = 
REMARK  4 active torsions:
REMARK  status: ('A' for Active; 'I' for Inactive)
REMARK    1  A    between atoms: C_2  and  C_4
REMARK    2  A    between atoms: C_7  and  C_8
REMARK    3  A    between atoms: C_8  and  N_9
REMARK    4  A    between atoms: C_14  and  C_15
REMARK                            x       y       z     vdW  Elec       q    Type
REMARK                         _______ _______ _______ _____ _____    ______ ____
ROOT
ATOM      1  C   UNL     1      43.713   3.844  10.590  0.00  0.00    +0.000 C 
ENDROOT
BRANCH   1   2
ATOM      2  N   UNL     1      44.155   3.312  11.858  0.00  0.00    +0.000 N 
ATOM      3  C   UNL     1      45.176   4.017  12.469  0.00  0.00    +0.000 A 
ATOM      4  N   UNL     1      46.033   3.291  13.194  0.00  0.00    +0.000 NA
ATOM      5  C   UNL     1      47.004   3.954  13.846  0.00  0.00    +0.000 A 
ATOM      6  C   UNL     1      47.157   5.317  13.796  0.00  0.00    +0.000 A 
ATOM      7  C   UNL     1      46.240   5.999  13.018  0.00  0.00    +0.000 A 
ATOM      8  N   UNL     1      45.253   5.348  12.344  0.00  0.00    +0.000 NA
ATOM      9  H   UNL     1      44.431   2.336  11.849  0.00  0.00    +0.000 HD
BRANCH   7  10
ATOM     10  C   UNL     1      46.317   7.512  12.909  0.00  0.00    +0.000 C 
ATOM     11  F   UNL     1      45.090   8.116  12.938  0.00  0.00    +0.000 F 
ATOM     12  F   UNL     1      47.026   8.086  13.923  0.00  0.00    +0.000 F 
ATOM     13  F   UNL     1      46.900   7.937  11.752  0.00  0.00    +0.000 F 
ENDBRANCH   7  10
ENDBRANCH   1   2
BRANCH   1  17
ATOM     14  C   UNL     1      46.501   2.658   7.497  0.00  0.00    +0.000 A 
ATOM     15  C   UNL     1      45.897   1.691   8.309  0.00  0.00    +0.000 A 
ATOM     16  C   UNL     1      45.001   2.080   9.309  0.00  0.00    +0.000 A 
ATOM     17  C   UNL     1      44.689   3.434   9.507  0.00  0.00    +0.000 A 
ATOM     18  C   UNL     1      45.322   4.398   8.709  0.00  0.00    +0.000 A 
ATOM     19  C   UNL     1      46.224   4.013   7.713  0.00  0.00    +0.000 A 
BRANCH  14  21
ATOM     20  N   UNL     1      47.403   3.026   5.263  0.00  0.00    +0.000 N 
ATOM     21  C   UNL     1      47.457   2.295   6.418  0.00  0.00    +0.000 C 
ATOM     22  O   UNL     1      48.290   1.410   6.565  0.00  0.00    +0.000 OA
ATOM     23  H   UNL     1      48.131   2.842   4.584  0.00  0.00    +0.000 HD
ATOM     24  H   UNL     1      46.919   3.910   5.205  0.00  0.00    +0.000 HD
ENDBRANCH  14  21
ENDBRANCH   1  17
TORSDOF 4
ENDMDL
MODEL 2
REMARK VINA RESULT:    -7.956      1.815      2.559
REMARK INTER + INTRA:         -10.325
REMARK INTER:                  -9.862
REMARK INTRA:                  -0.462
REMARK UNBOUND:                -0.509
REMARK  Name = 
REMARK  4 active torsions:
REMARK  status: ('A' for Active; 'I' for Inactive)
REMARK    1  A    between atoms: C_2  and  C_4
REMARK    2  A    between atoms: C_7  and  C_8
REMARK    3  A    between atoms: C_8  and  N_9
REMARK    4  A    between atoms: C_14  and  C_15
REMARK                            x       y       z     vdW  Elec       q    Type
REMARK                         _______ _______ _______ _____ _____    ______ ____
ROOT
ATOM      1  C   UNL     1      43.771   4.640  10.305  0.00  0.00    +0.000 C 
ENDROOT
BRANCH   1   2
ATOM      2  N   UNL     1      44.343   4.720  11.628  0.00  0.00    +0.000 N 
ATOM      3  C   UNL     1      44.938   5.928  11.941  0.00  0.00    +0.000 A 
ATOM      4  N   UNL     1      45.990   5.864  12.763  0.00  0.00    +0.000 NA
ATOM      5  C   UNL     1      46.558   7.027  13.130  0.00  0.00    +0.000 A 
ATOM      6  C   UNL     1      46.117   8.254  12.701  0.00  0.00    +0.000 A 
ATOM      7  C   UNL     1      45.031   8.240  11.846  0.00  0.00    +0.000 A 
ATOM      8  N   UNL     1      44.446   7.075  11.455  0.00  0.00    +0.000 NA
ATOM      9  H   UNL     1      45.008   3.991  11.861  0.00  0.00    +0.000 HD
BRANCH   7  10
ATOM     10  C   UNL     1      44.461   9.549  11.325  0.00  0.00    +0.000 C 
ATOM     11  F   UNL     1      45.392  10.325  10.691  0.00  0.00    +0.000 F 
ATOM     12  F   UNL     1      43.459   9.372  10.418  0.00  0.00    +0.000 F 
ATOM     13  F   UNL     1      43.945  10.338  12.310  0.00  0.00    +0.000 F 
ENDBRANCH   7  10
ENDBRANCH   1   2
BRANCH   1  17
ATOM     14  C   UNL     1      46.477   2.488   7.698  0.00  0.00    +0.000 A 
ATOM     15  C   UNL     1      46.371   3.880   7.608  0.00  0.00    +0.000 A 
ATOM     16  C   UNL     1      45.492   4.570   8.449  0.00  0.00    +0.000 A 
ATOM     17  C   UNL     1      44.716   3.883   9.395  0.00  0.00    +0.000 A 
ATOM     18  C   UNL     1      44.807   2.485   9.459  0.00  0.00    +0.000 A 
ATOM     19  C   UNL     1      45.679   1.792   8.614  0.00  0.00    +0.000 A 
BRANCH  14  21
ATOM     20  N   UNL     1      48.525   2.348   6.385  0.00  0.00    +0.000 N 
ATOM     21  C   UNL     1      47.399   1.711   6.829  0.00  0.00    +0.000 C 
ATOM     22  O   UNL     1      47.191   0.536   6.554  0.00  0.00    +0.000 OA
ATOM     23  H   UNL     1      49.196   1.776   5.889  0.00  0.00    +0.000 HD
ATOM     24  H   UNL     1      48.855   3.211   6.793  0.00  0.00    +0.000 HD
ENDBRANCH  14  21
ENDBRANCH   1  17
TORSDOF 4
ENDMDL
MODEL 3
REMARK VINA RESULT:    -7.833      1.775      2.513
REMARK INTER + INTRA:         -10.174
REMARK INTER:                  -9.812
REMARK INTRA:                  -0.361
REMARK UNBOUND:                -0.509
REMARK  Name = 
REMARK  4 active torsions:
REMARK  status: ('A' for Active; 'I' for Inactive)
REMARK    1  A    between atoms: C_2  and  C_4
REMARK    2  A    between atoms: C_7  and  C_8
REMARK    3  A    between atoms: C_8  and  N_9
REMARK    4  A    between atoms: C_14  and  C_15
REMARK                            x       y       z     vdW  Elec       q    Type
REMARK                         _______ _______ _______ _____ _____    ______ ____
ROOT
ATOM      1  C   UNL     1      43.965   4.636  10.521  0.00  0.00    +0.000 C 
ENDROOT
BRANCH   1   2
ATOM      2  N   UNL     1      44.137   6.054  10.311  0.00  0.00    +0.000 N 
ATOM      3  C   UNL     1      44.865   6.710  11.286  0.00  0.00    +0.000 A 
ATOM      4  N   UNL     1      44.510   7.976  11.526  0.00  0.00    +0.000 NA
ATOM      5  C   UNL     1      45.234   8.659  12.430  0.00  0.00    +0.000 A 
ATOM      6  C   UNL     1      46.299   8.122  13.111  0.00  0.00    +0.000 A 
ATOM      7  C   UNL     1      46.600   6.805  12.817  0.00  0.00    +0.000 A 
ATOM      8  N   UNL     1      45.876   6.093  11.912  0.00  0.00    +0.000 NA
ATOM      9  H   UNL     1      43.282   6.582  10.172  0.00  0.00    +0.000 HD
BRANCH   7  10
ATOM     10  C   UNL     1      47.768   6.124  13.509  0.00  0.00    +0.000 C 
ATOM     11  F   UNL     1      47.564   4.788  13.717  0.00  0.00    +0.000 F 
ATOM     12  F   UNL     1      48.930   6.205  12.800  0.00  0.00    +0.000 F 
ATOM     13  F   UNL     1      48.039   6.643  14.740  0.00  0.00    +0.000 F 
ENDBRANCH   7  10
ENDBRANCH   1   2
BRANCH   1  17
ATOM     14  C   UNL     1      46.438   2.449   7.719  0.00  0.00    +0.000 A 
ATOM     15  C   UNL     1      45.684   1.763   8.677  0.00  0.00    +0.000 A 
ATOM     16  C   UNL     1      44.890   2.473   9.582  0.00  0.00    +0.000 A 
ATOM     17  C   UNL     1      44.831   3.876   9.538  0.00  0.00    +0.000 A 
ATOM     18  C   UNL     1      45.614   4.557   8.595  0.00  0.00    +0.000 A 
ATOM     19  C   UNL     1      46.414   3.849   7.694  0.00  0.00    +0.000 A 
BRANCH  14  21
ATOM     20  N   UNL     1      48.315   2.450   6.164  0.00  0.00    +0.000 N 
ATOM     21  C   UNL     1      47.294   1.739   6.733  0.00  0.00    +0.000 C 
ATOM     22  O   UNL     1      47.127   0.555   6.468  0.00  0.00    +0.000 OA
ATOM     23  H   UNL     1      48.955   1.925   5.582  0.00  0.00    +0.000 HD
ATOM     24  H   UNL     1      48.637   3.329   6.542  0.00  0.00    +0.000 HD
ENDBRANCH  14  21
ENDBRANCH   1  17
TORSDOF 4
ENDMDL
MODEL 4
REMARK VINA RESULT:    -6.670      4.599      7.919
REMARK INTER + INTRA:          -8.738
REMARK INTER:                  -8.424
REMARK INTRA:                  -0.314
REMARK UNBOUND:                -0.509
REMARK  Name = 
REMARK  4 active torsions:
REMARK  status: ('A' for Active; 'I' for Inactive)
REMARK    1  A    between atoms: C_2  and  C_4
REMARK    2  A    between atoms: C_7  and  C_8
REMARK    3  A    between atoms: C_8  and  N_9
REMARK    4  A    between atoms: C_14  and  C_15
REMARK                            x       y       z     vdW  Elec       q    Type
REMARK                         _______ _______ _______ _____ _____    ______ ____
ROOT
ATOM      1  C   UNL     1      46.867   4.823  14.085  0.00  0.00    +0.000 C 
ENDROOT
BRANCH   1   2
ATOM      2  N   UNL     1      45.443   4.616  14.204  0.00  0.00    +0.000 N 
ATOM      3  C   UNL     1      44.718   4.819  13.044  0.00  0.00    +0.000 A 
ATOM      4  N   UNL     1      43.480   5.296  13.206  0.00  0.00    +0.000 NA
ATOM      5  C   UNL     1      42.731   5.453  12.100  0.00  0.00    +0.000 A 
ATOM      6  C   UNL     1      43.174   5.157  10.835  0.00  0.00    +0.000 A 
ATOM      7  C   UNL     1      44.468   4.678  10.746  0.00  0.00    +0.000 A 
ATOM      8  N   UNL     1      45.247   4.519  11.851  0.00  0.00    +0.000 NA
ATOM      9  H   UNL     1      44.985   5.146  14.938  0.00  0.00    +0.000 HD
BRANCH   7  10
ATOM     10  C   UNL     1      45.047   4.310   9.391  0.00  0.00    +0.000 C 
ATOM     11  F   UNL     1      44.125   4.363   8.381  0.00  0.00    +0.000 F 
ATOM     12  F   UNL     1      46.058   5.136   9.000  0.00  0.00    +0.000 F 
ATOM     13  F   UNL     1      45.554   3.045   9.349  0.00  0.00    +0.000 F 
ENDBRANCH   7  10
ENDBRANCH   1   2
BRANCH   1  17
ATOM     14  C   UNL     1      48.691   4.586  18.006  0.00  0.00    +0.000 A 
ATOM     15  C   UNL     1      48.932   5.691  17.182  0.00  0.00    +0.000 A 
ATOM     16  C   UNL     1      48.344   5.761  15.916  0.00  0.00    +0.000 A 
ATOM     17  C   UNL     1      47.502   4.735  15.457  0.00  0.00    +0.000 A 
ATOM     18  C   UNL     1      47.290   3.617  16.277  0.00  0.00    +0.000 A 
ATOM     19  C   UNL     1      47.882   3.542  17.540  0.00  0.00    +0.000 A 
BRANCH  14  21
ATOM     20  N   UNL     1      48.563   3.800  20.309  0.00  0.00    +0.000 N 
ATOM     21  C   UNL     1      49.289   4.468  19.361  0.00  0.00    +0.000 C 
ATOM     22  O   UNL     1      50.403   4.907  19.615  0.00  0.00    +0.000 OA
ATOM     23  H   UNL     1      49.028   3.631  21.191  0.00  0.00    +0.000 HD
ATOM     24  H   UNL     1      47.776   3.212  20.073  0.00  0.00    +0.000 HD
ENDBRANCH  14  21
ENDBRANCH   1  17
TORSDOF 4
ENDMDL
MODEL 5
REMARK VINA RESULT:    -6.511      4.026      5.548
REMARK INTER + INTRA:          -8.542
REMARK INTER:                  -8.162
REMARK INTRA:                  -0.380
REMARK UNBOUND:                -0.509
REMARK  Name = 
REMARK  4 active torsions:
REMARK  status: ('A' for Active; 'I' for Inactive)
REMARK    1  A    between atoms: C_2  and  C_4
REMARK    2  A    between atoms: C_7  and  C_8
REMARK    3  A    between atoms: C_8  and  N_9
REMARK    4  A    between atoms: C_14  and  C_15
REMARK                            x       y       z     vdW  Elec       q    Type
REMARK                         _______ _______ _______ _____ _____    ______ ____
ROOT
ATOM      1  C   UNL     1      47.365   5.470  14.227  0.00  0.00    +0.000 C 
ENDROOT
BRANCH   1   2
ATOM      2  N   UNL     1      46.706   5.059  15.445  0.00  0.00    +0.000 N 
ATOM      3  C   UNL     1      47.501   4.369  16.342  0.00  0.00    +0.000 A 
ATOM      4  N   UNL     1      46.881   3.440  17.076  0.00  0.00    +0.000 NA
ATOM      5  C   UNL     1      47.614   2.790  17.996  0.00  0.00    +0.000 A 
ATOM      6  C   UNL     1      48.950   3.027  18.206  0.00  0.00    +0.000 A 
ATOM      7  C   UNL     1      49.525   3.994  17.402  0.00  0.00    +0.000 A 
ATOM      8  N   UNL     1      48.803   4.659  16.460  0.00  0.00    +0.000 NA
ATOM      9  H   UNL     1      45.857   4.518  15.321  0.00  0.00    +0.000 HD
BRANCH   7  10
ATOM     10  C   UNL     1      50.995   4.338  17.567  0.00  0.00    +0.000 C 
ATOM     11  F   UNL     1      51.827   3.293  17.274  0.00  0.00    +0.000 F 
ATOM     12  F   UNL     1      51.399   5.358  16.758  0.00  0.00    +0.000 F 
ATOM     13  F   UNL     1      51.320   4.711  18.838  0.00  0.00    +0.000 F 
ENDBRANCH   7  10
ENDBRANCH   1   2
BRANCH   1  17
ATOM     14  C   UNL     1      45.075   4.101  10.816  0.00  0.00    +0.000 A 
ATOM     15  C   UNL     1      45.603   5.397  10.836  0.00  0.00    +0.000 A 
ATOM     16  C   UNL     1      46.338   5.836  11.942  0.00  0.00    +0.000 A 
ATOM     17  C   UNL     1      46.564   4.986  13.036  0.00  0.00    +0.000 A 
ATOM     18  C   UNL     1      46.006   3.700  13.021  0.00  0.00    +0.000 A 
ATOM     19  C   UNL     1      45.264   3.261  11.921  0.00  0.00    +0.000 A 
BRANCH  14  21
ATOM     20  N   UNL     1      43.987   4.476   8.669  0.00  0.00    +0.000 N 
ATOM     21  C   UNL     1      44.291   3.587   9.663  0.00  0.00    +0.000 C 
ATOM     22  O   UNL     1      43.965   2.411   9.577  0.00  0.00    +0.000 OA
ATOM     23  H   UNL     1      43.551   4.089   7.841  0.00  0.00    +0.000 HD
ATOM     24  H   UNL     1      44.451   5.369   8.581  0.00  0.00    +0.000 HD
ENDBRANCH  14  21
ENDBRANCH   1  17
TORSDOF 4
ENDMDL
MODEL 6
REMARK VINA RESULT:    -6.445      4.718      7.695
REMARK INTER + INTRA:          -8.461
REMARK INTER:                  -8.017
REMARK INTRA:                  -0.444
REMARK UNBOUND:                -0.509
REMARK  Name = 
REMARK  4 active torsions:
REMARK  status: ('A' for Active; 'I' for Inactive)
REMARK    1  A    between atoms: C_2  and  C_4
REMARK    2  A    between atoms: C_7  and  C_8
REMARK    3  A    between atoms: C_8  and  N_9
REMARK    4  A    between atoms: C_14  and  C_15
REMARK                            x       y       z     vdW  Elec       q    Type
REMARK                         _______ _______ _______ _____ _____    ______ ____
ROOT
ATOM      1  C   UNL     1      47.519   4.430  16.636  0.00  0.00    +0.000 C 
ENDROOT
BRANCH   1   2
ATOM      2  N   UNL     1      46.881   3.779  15.516  0.00  0.00    +0.000 N 
ATOM      3  C   UNL     1      46.709   4.568  14.394  0.00  0.00    +0.000 A 
ATOM      4  N   UNL     1      45.622   4.309  13.660  0.00  0.00    +0.000 NA
ATOM      5  C   UNL     1      45.454   5.022  12.533  0.00  0.00    +0.000 A 
ATOM      6  C   UNL     1      46.330   5.993  12.113  0.00  0.00    +0.000 A 
ATOM      7  C   UNL     1      47.424   6.212  12.929  0.00  0.00    +0.000 A 
ATOM      8  N   UNL     1      47.610   5.507  14.078  0.00  0.00    +0.000 NA
ATOM      9  H   UNL     1      45.987   3.345  15.716  0.00  0.00    +0.000 HD
BRANCH   7  10
ATOM     10  C   UNL     1      48.457   7.257  12.544  0.00  0.00    +0.000 C 
ATOM     11  F   UNL     1      48.598   7.400  11.191  0.00  0.00    +0.000 F 
ATOM     12  F   UNL     1      48.156   8.503  13.008  0.00  0.00    +0.000 F 
ATOM     13  F   UNL     1      49.707   6.972  13.008  0.00  0.00    +0.000 F 
ENDBRANCH   7  10
ENDBRANCH   1   2
BRANCH   1  17
ATOM     14  C   UNL     1      51.252   2.429  17.535  0.00  0.00    +0.000 A 
ATOM     15  C   UNL     1      51.113   3.800  17.777  0.00  0.00    +0.000 A 
ATOM     16  C   UNL     1      49.907   4.443  17.480  0.00  0.00    +0.000 A 
ATOM     17  C   UNL     1      48.823   3.726  16.949  0.00  0.00    +0.000 A 
ATOM     18  C   UNL     1      48.982   2.358  16.682  0.00  0.00    +0.000 A 
ATOM     19  C   UNL     1      50.189   1.715  16.970  0.00  0.00    +0.000 A 
BRANCH  14  21
ATOM     20  N   UNL     1      52.402   0.391  18.215  0.00  0.00    +0.000 N 
ATOM     21  C   UNL     1      52.513   1.701  17.836  0.00  0.00    +0.000 C 
ATOM     22  O   UNL     1      53.610   2.229  17.711  0.00  0.00    +0.000 OA
ATOM     23  H   UNL     1      53.270  -0.122  18.309  0.00  0.00    +0.000 HD
ATOM     24  H   UNL     1      51.554  -0.141  18.081  0.00  0.00    +0.000 HD
ENDBRANCH  14  21
ENDBRANCH   1  17
TORSDOF 4
ENDMDL
MODEL 7
REMARK VINA RESULT:    -6.364      3.817      6.201
REMARK INTER + INTRA:          -8.361
REMARK INTER:                  -8.005
REMARK INTRA:                  -0.356
REMARK UNBOUND:                -0.509
REMARK  Name = 
REMARK  4 active torsions:
REMARK  status: ('A' for Active; 'I' for Inactive)
REMARK    1  A    between atoms: C_2  and  C_4
REMARK    2  A    between atoms: C_7  and  C_8
REMARK    3  A    between atoms: C_8  and  N_9
REMARK    4  A    between atoms: C_14  and  C_15
REMARK                            x       y       z     vdW  Elec       q    Type
REMARK                         _______ _______ _______ _____ _____    ______ ____
ROOT
ATOM      1  C   UNL     1      45.366   7.261  12.759  0.00  0.00    +0.000 C 
ENDROOT
BRANCH   1   2
ATOM      2  N   UNL     1      45.229   5.945  13.337  0.00  0.00    +0.000 N 
ATOM      3  C   UNL     1      44.804   4.959  12.465  0.00  0.00    +0.000 A 
ATOM      4  N   UNL     1      44.050   3.993  13.001  0.00  0.00    +0.000 NA
ATOM      5  C   UNL     1      43.666   2.991  12.191  0.00  0.00    +0.000 A 
ATOM      6  C   UNL     1      44.001   2.919  10.861  0.00  0.00    +0.000 A 
ATOM      7  C   UNL     1      44.773   3.959  10.377  0.00  0.00    +0.000 A 
ATOM      8  N   UNL     1      45.166   4.988  11.177  0.00  0.00    +0.000 NA
ATOM      9  H   UNL     1      44.639   5.890  14.161  0.00  0.00    +0.000 HD
BRANCH   7  10
ATOM     10  C   UNL     1      45.206   3.965   8.921  0.00  0.00    +0.000 C 
ATOM     11  F   UNL     1      45.862   2.823   8.551  0.00  0.00    +0.000 F 
ATOM     12  F   UNL     1      44.161   4.078   8.053  0.00  0.00    +0.000 F 
ATOM     13  F   UNL     1      46.060   4.985   8.620  0.00  0.00    +0.000 F 
ENDBRANCH   7  10
ENDBRANCH   1   2
BRANCH   1  17
ATOM     14  C   UNL     1      49.574   8.183  12.317  0.00  0.00    +0.000 A 
ATOM     15  C   UNL     1      49.175   6.984  12.920  0.00  0.00    +0.000 A 
ATOM     16  C   UNL     1      47.815   6.693  13.064  0.00  0.00    +0.000 A 
ATOM     17  C   UNL     1      46.837   7.588  12.602  0.00  0.00    +0.000 A 
ATOM     18  C   UNL     1      47.245   8.800  12.027  0.00  0.00    +0.000 A 
ATOM     19  C   UNL     1      48.604   9.097  11.888  0.00  0.00    +0.000 A 
BRANCH  14  21
ATOM     20  N   UNL     1      51.884   8.086  13.086  0.00  0.00    +0.000 N 
ATOM     21  C   UNL     1      51.007   8.535  12.138  0.00  0.00    +0.000 C 
ATOM     22  O   UNL     1      51.400   9.163  11.163  0.00  0.00    +0.000 OA
ATOM     23  H   UNL     1      52.866   8.237  12.894  0.00  0.00    +0.000 HD
ATOM     24  H   UNL     1      51.642   7.363  13.748  0.00  0.00    +0.000 HD
ENDBRANCH  14  21
ENDBRANCH   1  17
TORSDOF 4
ENDMDL
MODEL 8
REMARK VINA RESULT:    -6.351      3.767      6.715
REMARK INTER + INTRA:          -8.344
REMARK INTER:                  -7.961
REMARK INTRA:                  -0.383
REMARK UNBOUND:                -0.509
REMARK  Name = 
REMARK  4 active torsions:
REMARK  status: ('A' for Active; 'I' for Inactive)
REMARK    1  A    between atoms: C_2  and  C_4
REMARK    2  A    between atoms: C_7  and  C_8
REMARK    3  A    between atoms: C_8  and  N_9
REMARK    4  A    between atoms: C_14  and  C_15
REMARK                            x       y       z     vdW  Elec       q    Type
REMARK                         _______ _______ _______ _____ _____    ______ ____
ROOT
ATOM      1  C   UNL     1      43.879   5.853  10.951  0.00  0.00    +0.000 C 
ENDROOT
BRANCH   1   2
ATOM      2  N   UNL     1      43.993   4.452  11.283  0.00  0.00    +0.000 N 
ATOM      3  C   UNL     1      44.420   3.635  10.252  0.00  0.00    +0.000 A 
ATOM      4  N   UNL     1      43.928   2.392  10.250  0.00  0.00    +0.000 NA
ATOM      5  C   UNL     1      44.366   1.556   9.293  0.00  0.00    +0.000 A 
ATOM      6  C   UNL     1      45.276   1.917   8.330  0.00  0.00    +0.000 A 
ATOM      7  C   UNL     1      45.732   3.221   8.389  0.00  0.00    +0.000 A 
ATOM      8  N   UNL     1      45.296   4.086   9.345  0.00  0.00    +0.000 NA
ATOM      9  H   UNL     1      43.159   4.027  11.674  0.00  0.00    +0.000 HD
BRANCH   7  10
ATOM     10  C   UNL     1      46.750   3.713   7.375  0.00  0.00    +0.000 C 
ATOM     11  F   UNL     1      47.225   4.965   7.655  0.00  0.00    +0.000 F 
ATOM     12  F   UNL     1      47.854   2.918   7.297  0.00  0.00    +0.000 F 
ATOM     13  F   UNL     1      46.250   3.792   6.109  0.00  0.00    +0.000 F 
ENDBRANCH   7  10
ENDBRANCH   1   2
BRANCH   1  17
ATOM     14  C   UNL     1      46.760   8.122  13.254  0.00  0.00    +0.000 A 
ATOM     15  C   UNL     1      45.785   8.783  12.498  0.00  0.00    +0.000 A 
ATOM     16  C   UNL     1      44.859   8.046  11.754  0.00  0.00    +0.000 A 
ATOM     17  C   UNL     1      44.889   6.642  11.759  0.00  0.00    +0.000 A 
ATOM     18  C   UNL     1      45.888   5.989  12.494  0.00  0.00    +0.000 A 
ATOM     19  C   UNL     1      46.819   6.723  13.233  0.00  0.00    +0.000 A 
BRANCH  14  21
ATOM     20  N   UNL     1      47.475   9.056  15.387  0.00  0.00    +0.000 N 
ATOM     21  C   UNL     1      47.763   8.861  14.064  0.00  0.00    +0.000 C 
ATOM     22  O   UNL     1      48.823   9.244  13.588  0.00  0.00    +0.000 OA
ATOM     23  H   UNL     1      48.213   9.460  15.950  0.00  0.00    +0.000 HD
ATOM     24  H   UNL     1      46.750   8.540  15.865  0.00  0.00    +0.000 HD
ENDBRANCH  14  21
ENDBRANCH   1  17
TORSDOF 4
ENDMDL
MODEL 9
REMARK VINA RESULT:    -6.022      3.795      5.346
REMARK INTER + INTRA:          -7.939
REMARK INTER:                  -7.712
REMARK INTRA:                  -0.226
REMARK UNBOUND:                -0.509
REMARK  Name = 
REMARK  4 active torsions:
REMARK  status: ('A' for Active; 'I' for Inactive)
REMARK    1  A    between atoms: C_2  and  C_4
REMARK    2  A    between atoms: C_7  and  C_8
REMARK    3  A    between atoms: C_8  and  N_9
REMARK    4  A    between atoms: C_14  and  C_15
REMARK                            x       y       z     vdW  Elec       q    Type
REMARK                         _______ _______ _______ _____ _____    ______ ____
ROOT
ATOM      1  C   UNL     1      46.957   7.364  13.303  0.00  0.00    +0.000 C 
ENDROOT
BRANCH   1   2
ATOM      2  N   UNL     1      48.366   7.055  13.363  0.00  0.00    +0.000 N 
ATOM      3  C   UNL     1      48.834   6.679  14.609  0.00  0.00    +0.000 A 
ATOM      4  N   UNL     1      50.093   7.029  14.889  0.00  0.00    +0.000 NA
ATOM      5  C   UNL     1      50.596   6.630  16.070  0.00  0.00    +0.000 A 
ATOM      6  C   UNL     1      49.885   5.899  16.989  0.00  0.00    +0.000 A 
ATOM      7  C   UNL     1      48.586   5.584  16.634  0.00  0.00    +0.000 A 
ATOM      8  N   UNL     1      48.054   5.983  15.447  0.00  0.00    +0.000 NA
ATOM      9  H   UNL     1      48.986   7.779  13.018  0.00  0.00    +0.000 HD
BRANCH   7  10
ATOM     10  C   UNL     1      47.721   4.767  17.579  0.00  0.00    +0.000 C 
ATOM     11  F   UNL     1      48.441   3.892  18.345  0.00  0.00    +0.000 F 
ATOM     12  F   UNL     1      47.025   5.534  18.465  0.00  0.00    +0.000 F 
ATOM     13  F   UNL     1      46.796   4.001  16.932  0.00  0.00    +0.000 F 
ENDBRANCH   7  10
ENDBRANCH   1   2
BRANCH   1  17
ATOM     14  C   UNL     1      44.853   4.085  11.411  0.00  0.00    +0.000 A 
ATOM     15  C   UNL     1      45.344   5.145  10.640  0.00  0.00    +0.000 A 
ATOM     16  C   UNL     1      46.019   6.203  11.256  0.00  0.00    +0.000 A 
ATOM     17  C   UNL     1      46.220   6.214  12.646  0.00  0.00    +0.000 A 
ATOM     18  C   UNL     1      45.699   5.164  13.414  0.00  0.00    +0.000 A 
ATOM     19  C   UNL     1      45.017   4.108  12.801  0.00  0.00    +0.000 A 
BRANCH  14  21
ATOM     20  N   UNL     1      44.754   2.284   9.774  0.00  0.00    +0.000 N 
ATOM     21  C   UNL     1      44.133   2.936  10.803  0.00  0.00    +0.000 C 
ATOM     22  O   UNL     1      43.050   2.555  11.227  0.00  0.00    +0.000 OA
ATOM     23  H   UNL     1      44.305   1.438   9.444  0.00  0.00    +0.000 HD
ATOM     24  H   UNL     1      45.738   2.401   9.574  0.00  0.00    +0.000 HD
ENDBRANCH  14  21
ENDBRANCH   1  17
TORSDOF 4
ENDMDL
