MODEL 1
REMARK VINA RESULT:    -8.033      0.000      0.000
REMARK INTER + INTRA:         -10.494
REMARK INTER:                 -10.146
REMARK INTRA:                  -0.348
REMARK UNBOUND:                -0.348
REMARK  Name = 
REMARK  5 active torsions:
REMARK  status: ('A' for Active; 'I' for Inactive)
REMARK    1  A    between atoms: N_1  and  C_2
REMARK    2  A    between atoms: C_2  and  C_3
REMARK    3  A    between atoms: C_6  and  C_7
REMARK    4  A    between atoms: C_7  and  N_8
REMARK    5  A    between atoms: C_13  and  C_14
REMARK                            x       y       z     vdW  Elec       q    Type
REMARK                         _______ _______ _______ _____ _____    ______ ____
ROOT
ATOM      1  N   UNL     1      44.532   4.491  11.211  0.00  0.00    +0.000 N 
ATOM      2  C   UNL     1      44.240   3.548  12.165  0.00  0.00    +0.000 A 
ATOM      3  C   UNL     1      45.175   3.653  13.166  0.00  0.00    +0.000 A 
ATOM      4  C   UNL     1      46.038   4.732  12.837  0.00  0.00    +0.000 A 
ATOM      5  C   UNL     1      47.183   5.277  13.458  0.00  0.00    +0.000 A 
ATOM      6  C   UNL     1      47.832   6.377  12.879  0.00  0.00    +0.000 A 
ATOM      7  C   UNL     1      47.307   6.950  11.714  0.00  0.00    +0.000 A 
ATOM      8  C   UNL     1      46.173   6.427  11.080  0.00  0.00    +0.000 A 
ATOM      9  C   UNL     1      45.573   5.289  11.642  0.00  0.00    +0.000 A 
ENDROOT
BRANCH   6  10
ATOM     10  C   UNL     1      49.090   6.953  13.434  0.00  0.00    +0.000 C 
ATOM     11  N   UNL     1      50.104   7.279  12.581  0.00  0.00    +0.000 N 
ATOM     12  O   UNL     1      49.230   7.142  14.637  0.00  0.00    +0.000 OA
ATOM     13  H   UNL     1      50.085   7.178  11.579  0.00  0.00    +0.000 HD
ATOM     14  H   UNL     1      50.936   7.686  12.996  0.00  0.00    +0.000 HD
ENDBRANCH   6  10
BRANCH   1  15
ATOM     15  C   UNL     1      43.860   4.564   9.922  0.00  0.00    +0.000 C 
BRANCH  15  19
ATOM     16  C   UNL     1      46.839   2.133   7.732  0.00  0.00    +0.000 C 
ATOM     17  C   UNL     1      45.647   1.442   8.414  0.00  0.00    +0.000 C 
ATOM     18  C   UNL     1      44.944   2.343   9.428  0.00  0.00    +0.000 C 
ATOM     19  C   UNL     1      44.508   3.687   8.824  0.00  0.00    +0.000 C 
ATOM     20  C   UNL     1      45.710   4.374   8.155  0.00  0.00    +0.000 C 
ATOM     21  C   UNL     1      46.403   3.475   7.130  0.00  0.00    +0.000 C 
BRANCH  16  22
ATOM     22  C   UNL     1      47.448   1.189   6.676  0.00  0.00    +0.000 C 
BRANCH  22  23
ATOM     23  N   UNL     1      48.414   1.861   5.813  0.00  0.00    +0.000 NA
ATOM     24  H   UNL     1      49.318   1.397   5.892  0.00  0.00    +0.000 HD
ATOM     25  H   UNL     1      48.552   2.819   6.126  0.00  0.00    +0.000 HD
ENDBRANCH  22  23
ENDBRANCH  16  22
ENDBRANCH  15  19
ENDBRANCH   1  15
TORSDOF 5
ENDMDL
MODEL 2
REMARK VINA RESULT:    -7.971      1.755      2.437
REMARK INTER + INTRA:         -10.416
REMARK INTER:                 -10.046
REMARK INTRA:                  -0.369
REMARK UNBOUND:                -0.348
REMARK  Name = 
REMARK  5 active torsions:
REMARK  status: ('A' for Active; 'I' for Inactive)
REMARK    1  A    between atoms: N_1  and  C_2
REMARK    2  A    between atoms: C_2  and  C_3
REMARK    3  A    between atoms: C_6  and  C_7
REMARK    4  A    between atoms: C_7  and  N_8
REMARK    5  A    between atoms: C_13  and  C_14
REMARK                            x       y       z     vdW  Elec       q    Type
REMARK                         _______ _______ _______ _____ _____    ______ ____
ROOT
ATOM      1  N   UNL     1      44.750   5.186  10.919  0.00  0.00    +0.000 N 
ATOM      2  C   UNL     1      44.963   6.532  10.755  0.00  0.00    +0.000 A 
ATOM      3  C   UNL     1      45.746   6.967  11.797  0.00  0.00    +0.000 A 
ATOM      4  C   UNL     1      46.066   5.838  12.596  0.00  0.00    +0.000 A 
ATOM      5  C   UNL     1      46.795   5.678  13.795  0.00  0.00    +0.000 A 
ATOM      6  C   UNL     1      46.945   4.400  14.353  0.00  0.00    +0.000 A 
ATOM      7  C   UNL     1      46.408   3.291  13.687  0.00  0.00    +0.000 A 
ATOM      8  C   UNL     1      45.680   3.425  12.498  0.00  0.00    +0.000 A 
ATOM      9  C   UNL     1      45.489   4.718  11.987  0.00  0.00    +0.000 A 
ENDROOT
BRANCH   6  10
ATOM     10  C   UNL     1      47.632   4.166  15.655  0.00  0.00    +0.000 C 
ATOM     11  N   UNL     1      47.584   5.135  16.615  0.00  0.00    +0.000 N 
ATOM     12  O   UNL     1      48.235   3.123  15.881  0.00  0.00    +0.000 OA
ATOM     13  H   UNL     1      47.106   6.017  16.536  0.00  0.00    +0.000 HD
ATOM     14  H   UNL     1      48.047   4.929  17.494  0.00  0.00    +0.000 HD
ENDBRANCH   6  10
BRANCH   1  15
ATOM     15  C   UNL     1      43.824   4.414  10.102  0.00  0.00    +0.000 C 
BRANCH  15  19
ATOM     16  C   UNL     1      46.860   2.272   7.697  0.00  0.00    +0.000 C 
ATOM     17  C   UNL     1      45.672   1.496   8.287  0.00  0.00    +0.000 C 
ATOM     18  C   UNL     1      44.946   2.274   9.384  0.00  0.00    +0.000 C 
ATOM     19  C   UNL     1      44.495   3.669   8.923  0.00  0.00    +0.000 C 
ATOM     20  C   UNL     1      45.693   4.439   8.345  0.00  0.00    +0.000 C 
ATOM     21  C   UNL     1      46.410   3.666   7.238  0.00  0.00    +0.000 C 
BRANCH  16  22
ATOM     22  C   UNL     1      47.492   1.456   6.553  0.00  0.00    +0.000 C 
BRANCH  22  23
ATOM     23  N   UNL     1      48.549   2.187   5.859  0.00  0.00    +0.000 NA
ATOM     24  H   UNL     1      49.275   1.535   5.566  0.00  0.00    +0.000 HD
ATOM     25  H   UNL     1      48.992   2.844   6.496  0.00  0.00    +0.000 HD
ENDBRANCH  22  23
ENDBRANCH  16  22
ENDBRANCH  15  19
ENDBRANCH   1  15
TORSDOF 5
ENDMDL
MODEL 3
REMARK VINA RESULT:    -7.632      2.670      6.449
REMARK INTER + INTRA:          -9.987
REMARK INTER:                  -9.547
REMARK INTRA:                  -0.441
REMARK UNBOUND:                -0.348
REMARK  Name = 
REMARK  5 active torsions:
REMARK  status: ('A' for Active; 'I' for Inactive)
REMARK    1  A    between atoms: N_1  and  C_2
REMARK    2  A    between atoms: C_2  and  C_3
REMARK    3  A    between atoms: C_6  and  C_7
REMARK    4  A    between atoms: C_7  and  N_8
REMARK    5  A    between atoms: C_13  and  C_14
REMARK                            x       y       z     vdW  Elec       q    Type
REMARK                         _______ _______ _______ _____ _____    ______ ____
ROOT
ATOM      1  N   UNL     1      43.961   4.125  10.595  0.00  0.00    +0.000 N 
ATOM      2  C   UNL     1      43.522   2.938  11.127  0.00  0.00    +0.000 A 
ATOM      3  C   UNL     1      44.076   1.915  10.394  0.00  0.00    +0.000 A 
ATOM      4  C   UNL     1      44.923   2.497   9.414  0.00  0.00    +0.000 A 
ATOM      5  C   UNL     1      45.710   1.957   8.374  0.00  0.00    +0.000 A 
ATOM      6  C   UNL     1      46.462   2.811   7.555  0.00  0.00    +0.000 A 
ATOM      7  C   UNL     1      46.457   4.189   7.809  0.00  0.00    +0.000 A 
ATOM      8  C   UNL     1      45.683   4.748   8.834  0.00  0.00    +0.000 A 
ATOM      9  C   UNL     1      44.891   3.883   9.604  0.00  0.00    +0.000 A 
ENDROOT
BRANCH   6  10
ATOM     10  C   UNL     1      47.252   2.320   6.390  0.00  0.00    +0.000 C 
ATOM     11  N   UNL     1      47.180   2.995   5.206  0.00  0.00    +0.000 N 
ATOM     12  O   UNL     1      47.965   1.326   6.475  0.00  0.00    +0.000 OA
ATOM     13  H   UNL     1      46.638   3.826   5.036  0.00  0.00    +0.000 HD
ATOM     14  H   UNL     1      47.747   2.639   4.444  0.00  0.00    +0.000 HD
ENDBRANCH   6  10
BRANCH   1  15
ATOM     15  C   UNL     1      43.448   5.426  11.003  0.00  0.00    +0.000 C 
BRANCH  15  19
ATOM     16  C   UNL     1      46.976   7.379  12.826  0.00  0.00    +0.000 C 
ATOM     17  C   UNL     1      45.792   8.237  12.351  0.00  0.00    +0.000 C 
ATOM     18  C   UNL     1      44.851   7.479  11.417  0.00  0.00    +0.000 C 
ATOM     19  C   UNL     1      44.345   6.162  12.028  0.00  0.00    +0.000 C 
ATOM     20  C   UNL     1      45.537   5.308  12.488  0.00  0.00    +0.000 C 
ATOM     21  C   UNL     1      46.470   6.064  13.434  0.00  0.00    +0.000 C 
BRANCH  16  22
ATOM     22  C   UNL     1      47.836   8.189  13.817  0.00  0.00    +0.000 C 
BRANCH  22  23
ATOM     23  N   UNL     1      47.036   9.060  14.674  0.00  0.00    +0.000 NA
ATOM     24  H   UNL     1      46.806   9.913  14.167  0.00  0.00    +0.000 HD
ATOM     25  H   UNL     1      47.579   9.343  15.485  0.00  0.00    +0.000 HD
ENDBRANCH  22  23
ENDBRANCH  16  22
ENDBRANCH  15  19
ENDBRANCH   1  15
TORSDOF 5
ENDMDL
MODEL 4
REMARK VINA RESULT:    -6.874      1.555      2.257
REMARK INTER + INTRA:          -9.030
REMARK INTER:                  -8.607
REMARK INTRA:                  -0.423
REMARK UNBOUND:                -0.348
REMARK  Name = 
REMARK  5 active torsions:
REMARK  status: ('A' for Active; 'I' for Inactive)
REMARK    1  A    between atoms: N_1  and  C_2
REMARK    2  A    between atoms: C_2  and  C_3
REMARK    3  A    between atoms: C_6  and  C_7
REMARK    4  A    between atoms: C_7  and  N_8
REMARK    5  A    between atoms: C_13  and  C_14
REMARK                            x       y       z     vdW  Elec       q    Type
REMARK                         _______ _______ _______ _____ _____    ______ ____
ROOT
ATOM      1  N   UNL     1      44.239   5.439  11.041  0.00  0.00    +0.000 N 
ATOM      2  C   UNL     1      43.314   6.431  10.826  0.00  0.00    +0.000 A 
ATOM      3  C   UNL     1      43.735   7.555  11.496  0.00  0.00    +0.000 A 
ATOM      4  C   UNL     1      44.987   7.255  12.096  0.00  0.00    +0.000 A 
ATOM      5  C   UNL     1      45.863   7.992  12.922  0.00  0.00    +0.000 A 
ATOM      6  C   UNL     1      47.060   7.409  13.362  0.00  0.00    +0.000 A 
ATOM      7  C   UNL     1      47.392   6.117  12.937  0.00  0.00    +0.000 A 
ATOM      8  C   UNL     1      46.539   5.366  12.119  0.00  0.00    +0.000 A 
ATOM      9  C   UNL     1      45.318   5.945  11.738  0.00  0.00    +0.000 A 
ENDROOT
BRANCH   6  10
ATOM     10  C   UNL     1      47.993   8.097  14.299  0.00  0.00    +0.000 C 
ATOM     11  N   UNL     1      47.509   9.069  15.126  0.00  0.00    +0.000 N 
ATOM     12  O   UNL     1      49.183   7.805  14.345  0.00  0.00    +0.000 OA
ATOM     13  H   UNL     1      46.550   9.372  15.177  0.00  0.00    +0.000 HD
ATOM     14  H   UNL     1      48.173   9.499  15.762  0.00  0.00    +0.000 HD
ENDBRANCH   6  10
BRANCH   1  15
ATOM     15  C   UNL     1      44.044   4.056  10.630  0.00  0.00    +0.000 C 
BRANCH  15  19
ATOM     16  C   UNL     1      46.219   2.460   7.122  0.00  0.00    +0.000 C 
ATOM     17  C   UNL     1      46.489   3.897   7.595  0.00  0.00    +0.000 C 
ATOM     18  C   UNL     1      45.412   4.419   8.543  0.00  0.00    +0.000 C 
ATOM     19  C   UNL     1      45.186   3.494   9.750  0.00  0.00    +0.000 C 
ATOM     20  C   UNL     1      44.906   2.062   9.265  0.00  0.00    +0.000 C 
ATOM     21  C   UNL     1      45.993   1.537   8.327  0.00  0.00    +0.000 C 
BRANCH  16  22
ATOM     22  C   UNL     1      47.382   1.982   6.230  0.00  0.00    +0.000 C 
BRANCH  22  23
ATOM     23  N   UNL     1      48.603   2.757   6.436  0.00  0.00    +0.000 NA
ATOM     24  H   UNL     1      48.414   3.518   7.087  0.00  0.00    +0.000 HD
ATOM     25  H   UNL     1      48.891   3.189   5.562  0.00  0.00    +0.000 HD
ENDBRANCH  22  23
ENDBRANCH  16  22
ENDBRANCH  15  19
ENDBRANCH   1  15
TORSDOF 5
ENDMDL
MODEL 5
REMARK VINA RESULT:    -6.223      3.394      4.722
REMARK INTER + INTRA:          -8.209
REMARK INTER:                  -7.825
REMARK INTRA:                  -0.384
REMARK UNBOUND:                -0.348
REMARK  Name = 
REMARK  5 active torsions:
REMARK  status: ('A' for Active; 'I' for Inactive)
REMARK    1  A    between atoms: N_1  and  C_2
REMARK    2  A    between atoms: C_2  and  C_3
REMARK    3  A    between atoms: C_6  and  C_7
REMARK    4  A    between atoms: C_7  and  N_8
REMARK    5  A    between atoms: C_13  and  C_14
REMARK                            x       y       z     vdW  Elec       q    Type
REMARK                         _______ _______ _______ _____ _____    ______ ____
ROOT
ATOM      1  N   UNL     1      46.878   5.633  14.093  0.00  0.00    +0.000 N 
ATOM      2  C   UNL     1      47.697   6.649  13.667  0.00  0.00    +0.000 A 
ATOM      3  C   UNL     1      48.675   6.832  14.615  0.00  0.00    +0.000 A 
ATOM      4  C   UNL     1      48.477   5.859  15.631  0.00  0.00    +0.000 A 
ATOM      5  C   UNL     1      49.135   5.589  16.850  0.00  0.00    +0.000 A 
ATOM      6  C   UNL     1      48.699   4.527  17.656  0.00  0.00    +0.000 A 
ATOM      7  C   UNL     1      47.643   3.718  17.216  0.00  0.00    +0.000 A 
ATOM      8  C   UNL     1      46.975   3.967  16.010  0.00  0.00    +0.000 A 
ATOM      9  C   UNL     1      47.387   5.071  15.247  0.00  0.00    +0.000 A 
ENDROOT
BRANCH   6  10
ATOM     10  C   UNL     1      49.292   4.233  18.991  0.00  0.00    +0.000 C 
ATOM     11  N   UNL     1      48.554   3.546  19.910  0.00  0.00    +0.000 N 
ATOM     12  O   UNL     1      50.428   4.593  19.278  0.00  0.00    +0.000 OA
ATOM     13  H   UNL     1      47.620   3.195  19.769  0.00  0.00    +0.000 HD
ATOM     14  H   UNL     1      49.000   3.350  20.800  0.00  0.00    +0.000 HD
ENDBRANCH   6  10
BRANCH   1  15
ATOM     15  C   UNL     1      45.633   5.273  13.430  0.00  0.00    +0.000 C 
BRANCH  15  19
ATOM     16  C   UNL     1      44.789   4.112   9.244  0.00  0.00    +0.000 C 
ATOM     17  C   UNL     1      45.730   5.292   9.531  0.00  0.00    +0.000 C 
ATOM     18  C   UNL     1      45.617   5.803  10.966  0.00  0.00    +0.000 C 
ATOM     19  C   UNL     1      45.822   4.692  12.008  0.00  0.00    +0.000 C 
ATOM     20  C   UNL     1      44.867   3.522  11.719  0.00  0.00    +0.000 C 
ATOM     21  C   UNL     1      44.993   3.003  10.286  0.00  0.00    +0.000 C 
BRANCH  16  22
ATOM     22  C   UNL     1      45.014   3.609   7.804  0.00  0.00    +0.000 C 
BRANCH  22  23
ATOM     23  N   UNL     1      46.240   4.136   7.211  0.00  0.00    +0.000 NA
ATOM     24  H   UNL     1      47.036   3.596   7.546  0.00  0.00    +0.000 HD
ATOM     25  H   UNL     1      46.390   5.094   7.517  0.00  0.00    +0.000 HD
ENDBRANCH  22  23
ENDBRANCH  16  22
ENDBRANCH  15  19
ENDBRANCH   1  15
TORSDOF 5
ENDMDL
MODEL 6
REMARK VINA RESULT:    -6.091      3.983      8.210
REMARK INTER + INTRA:          -8.041
REMARK INTER:                  -7.527
REMARK INTRA:                  -0.515
REMARK UNBOUND:                -0.348
REMARK  Name = 
REMARK  5 active torsions:
REMARK  status: ('A' for Active; 'I' for Inactive)
REMARK    1  A    between atoms: N_1  and  C_2
REMARK    2  A    between atoms: C_2  and  C_3
REMARK    3  A    between atoms: C_6  and  C_7
REMARK    4  A    between atoms: C_7  and  N_8
REMARK    5  A    between atoms: C_13  and  C_14
REMARK                            x       y       z     vdW  Elec       q    Type
REMARK                         _______ _______ _______ _____ _____    ______ ____
ROOT
ATOM      1  N   UNL     1      47.545   6.964  13.858  0.00  0.00    +0.000 N 
ATOM      2  C   UNL     1      47.156   8.259  13.625  0.00  0.00    +0.000 A 
ATOM      3  C   UNL     1      46.095   8.234  12.752  0.00  0.00    +0.000 A 
ATOM      4  C   UNL     1      45.791   6.873  12.483  0.00  0.00    +0.000 A 
ATOM      5  C   UNL     1      44.844   6.242  11.649  0.00  0.00    +0.000 A 
ATOM      6  C   UNL     1      44.782   4.842  11.601  0.00  0.00    +0.000 A 
ATOM      7  C   UNL     1      45.632   4.087  12.419  0.00  0.00    +0.000 A 
ATOM      8  C   UNL     1      46.580   4.691  13.255  0.00  0.00    +0.000 A 
ATOM      9  C   UNL     1      46.667   6.092  13.243  0.00  0.00    +0.000 A 
ENDROOT
BRANCH   6  10
ATOM     10  C   UNL     1      43.864   4.108  10.685  0.00  0.00    +0.000 C 
ATOM     11  N   UNL     1      43.847   4.433   9.360  0.00  0.00    +0.000 N 
ATOM     12  O   UNL     1      43.127   3.218  11.096  0.00  0.00    +0.000 OA
ATOM     13  H   UNL     1      44.419   5.135   8.920  0.00  0.00    +0.000 HD
ATOM     14  H   UNL     1      43.222   3.897   8.766  0.00  0.00    +0.000 HD
ENDBRANCH   6  10
BRANCH   1  15
ATOM     15  C   UNL     1      48.746   6.606  14.597  0.00  0.00    +0.000 C 
BRANCH  15  19
ATOM     16  C   UNL     1      49.256   5.096  18.726  0.00  0.00    +0.000 C 
ATOM     17  C   UNL     1      49.624   6.552  18.398  0.00  0.00    +0.000 C 
ATOM     18  C   UNL     1      49.760   6.801  16.897  0.00  0.00    +0.000 C 
ATOM     19  C   UNL     1      48.510   6.378  16.110  0.00  0.00    +0.000 C 
ATOM     20  C   UNL     1      48.157   4.918  16.438  0.00  0.00    +0.000 C 
ATOM     21  C   UNL     1      48.007   4.673  17.940  0.00  0.00    +0.000 C 
BRANCH  16  22
ATOM     22  C   UNL     1      49.066   4.942  20.249  0.00  0.00    +0.000 C 
BRANCH  22  23
ATOM     23  N   UNL     1      48.400   3.693  20.608  0.00  0.00    +0.000 NA
ATOM     24  H   UNL     1      48.724   2.949  19.992  0.00  0.00    +0.000 HD
ATOM     25  H   UNL     1      47.398   3.779  20.458  0.00  0.00    +0.000 HD
ENDBRANCH  22  23
ENDBRANCH  16  22
ENDBRANCH  15  19
ENDBRANCH   1  15
TORSDOF 5
ENDMDL
MODEL 7
REMARK VINA RESULT:    -6.017      4.341      8.341
REMARK INTER + INTRA:          -7.948
REMARK INTER:                  -7.523
REMARK INTRA:                  -0.424
REMARK UNBOUND:                -0.348
REMARK  Name = 
REMARK  5 active torsions:
REMARK  status: ('A' for Active; 'I' for Inactive)
REMARK    1  A    between atoms: N_1  and  C_2
REMARK    2  A    between atoms: C_2  and  C_3
REMARK    3  A    between atoms: C_6  and  C_7
REMARK    4  A    between atoms: C_7  and  N_8
REMARK    5  A    between atoms: C_13  and  C_14
REMARK                            x       y       z     vdW  Elec       q    Type
REMARK                         _______ _______ _______ _____ _____    ______ ____
ROOT
ATOM      1  N   UNL     1      47.134   5.121  14.559  0.00  0.00    +0.000 N 
ATOM      2  C   UNL     1      47.809   6.316  14.526  0.00  0.00    +0.000 A 
ATOM      3  C   UNL     1      47.677   6.843  13.263  0.00  0.00    +0.000 A 
ATOM      4  C   UNL     1      46.850   5.965  12.514  0.00  0.00    +0.000 A 
ATOM      5  C   UNL     1      46.404   5.965  11.175  0.00  0.00    +0.000 A 
ATOM      6  C   UNL     1      45.567   4.937  10.719  0.00  0.00    +0.000 A 
ATOM      7  C   UNL     1      45.146   3.945  11.615  0.00  0.00    +0.000 A 
ATOM      8  C   UNL     1      45.576   3.923  12.948  0.00  0.00    +0.000 A 
ATOM      9  C   UNL     1      46.461   4.927  13.368  0.00  0.00    +0.000 A 
ENDROOT
BRANCH   6  10
ATOM     10  C   UNL     1      45.123   4.829   9.301  0.00  0.00    +0.000 C 
ATOM     11  N   UNL     1      43.849   4.420   9.032  0.00  0.00    +0.000 N 
ATOM     12  O   UNL     1      45.877   5.102   8.373  0.00  0.00    +0.000 OA
ATOM     13  H   UNL     1      43.150   4.186   9.718  0.00  0.00    +0.000 HD
ATOM     14  H   UNL     1      43.580   4.378   8.054  0.00  0.00    +0.000 HD
ENDBRANCH   6  10
BRANCH   1  15
ATOM     15  C   UNL     1      47.194   4.195  15.680  0.00  0.00    +0.000 C 
BRANCH  15  19
ATOM     16  C   UNL     1      48.970   4.466  19.725  0.00  0.00    +0.000 C 
ATOM     17  C   UNL     1      49.857   4.086  18.529  0.00  0.00    +0.000 C 
ATOM     18  C   UNL     1      49.048   3.664  17.304  0.00  0.00    +0.000 C 
ATOM     19  C   UNL     1      48.012   4.719  16.885  0.00  0.00    +0.000 C 
ATOM     20  C   UNL     1      47.123   5.083  18.086  0.00  0.00    +0.000 C 
ATOM     21  C   UNL     1      47.935   5.520  19.306  0.00  0.00    +0.000 C 
BRANCH  16  22
ATOM     22  C   UNL     1      49.855   4.948  20.892  0.00  0.00    +0.000 C 
BRANCH  22  23
ATOM     23  N   UNL     1      51.249   4.540  20.745  0.00  0.00    +0.000 NA
ATOM     24  H   UNL     1      51.307   3.766  20.085  0.00  0.00    +0.000 HD
ATOM     25  H   UNL     1      51.604   4.191  21.632  0.00  0.00    +0.000 HD
ENDBRANCH  22  23
ENDBRANCH  16  22
ENDBRANCH  15  19
ENDBRANCH   1  15
TORSDOF 5
ENDMDL
MODEL 8
REMARK VINA RESULT:    -5.841      3.272      6.524
REMARK INTER + INTRA:          -7.726
REMARK INTER:                  -7.405
REMARK INTRA:                  -0.320
REMARK UNBOUND:                -0.348
REMARK  Name = 
REMARK  5 active torsions:
REMARK  status: ('A' for Active; 'I' for Inactive)
REMARK    1  A    between atoms: N_1  and  C_2
REMARK    2  A    between atoms: C_2  and  C_3
REMARK    3  A    between atoms: C_6  and  C_7
REMARK    4  A    between atoms: C_7  and  N_8
REMARK    5  A    between atoms: C_13  and  C_14
REMARK                            x       y       z     vdW  Elec       q    Type
REMARK                         _______ _______ _______ _____ _____    ______ ____
ROOT
ATOM      1  N   UNL     1      47.236   6.989  13.074  0.00  0.00    +0.000 N 
ATOM      2  C   UNL     1      47.674   6.399  14.233  0.00  0.00    +0.000 A 
ATOM      3  C   UNL     1      47.127   5.140  14.301  0.00  0.00    +0.000 A 
ATOM      4  C   UNL     1      46.371   4.935  13.117  0.00  0.00    +0.000 A 
ATOM      5  C   UNL     1      45.571   3.868  12.654  0.00  0.00    +0.000 A 
ATOM      6  C   UNL     1      44.940   3.961  11.405  0.00  0.00    +0.000 A 
ATOM      7  C   UNL     1      45.149   5.097  10.612  0.00  0.00    +0.000 A 
ATOM      8  C   UNL     1      45.937   6.169  11.050  0.00  0.00    +0.000 A 
ATOM      9  C   UNL     1      46.511   6.081  12.328  0.00  0.00    +0.000 A 
ENDROOT
BRANCH   6  10
ATOM     10  C   UNL     1      44.018   2.910  10.888  0.00  0.00    +0.000 C 
ATOM     11  N   UNL     1      44.417   2.134   9.839  0.00  0.00    +0.000 N 
ATOM     12  O   UNL     1      42.913   2.727  11.388  0.00  0.00    +0.000 OA
ATOM     13  H   UNL     1      45.306   2.193   9.369  0.00  0.00    +0.000 HD
ATOM     14  H   UNL     1      43.769   1.417   9.530  0.00  0.00    +0.000 HD
ENDBRANCH   6  10
BRANCH   1  15
ATOM     15  C   UNL     1      47.471   8.389  12.746  0.00  0.00    +0.000 C 
BRANCH  15  19
ATOM     16  C   UNL     1      51.517   9.144  11.120  0.00  0.00    +0.000 C 
ATOM     17  C   UNL     1      50.908   7.737  11.019  0.00  0.00    +0.000 C 
ATOM     18  C   UNL     1      49.708   7.546  11.945  0.00  0.00    +0.000 C 
ATOM     19  C   UNL     1      48.622   8.614  11.736  0.00  0.00    +0.000 C 
ATOM     20  C   UNL     1      49.241  10.016  11.851  0.00  0.00    +0.000 C 
ATOM     21  C   UNL     1      50.433  10.211  10.913  0.00  0.00    +0.000 C 
BRANCH  16  22
ATOM     22  C   UNL     1      52.672   9.282  10.108  0.00  0.00    +0.000 C 
BRANCH  22  23
ATOM     23  N   UNL     1      53.747   8.322  10.349  0.00  0.00    +0.000 NA
ATOM     24  H   UNL     1      54.031   8.373  11.326  0.00  0.00    +0.000 HD
ATOM     25  H   UNL     1      54.563   8.570   9.796  0.00  0.00    +0.000 HD
ENDBRANCH  22  23
ENDBRANCH  16  22
ENDBRANCH  15  19
ENDBRANCH   1  15
TORSDOF 5
ENDMDL
MODEL 9
REMARK VINA RESULT:    -5.659      3.764      6.199
REMARK INTER + INTRA:          -7.496
REMARK INTER:                  -6.914
REMARK INTRA:                  -0.582
REMARK UNBOUND:                -0.348
REMARK  Name = 
REMARK  5 active torsions:
REMARK  status: ('A' for Active; 'I' for Inactive)
REMARK    1  A    between atoms: N_1  and  C_2
REMARK    2  A    between atoms: C_2  and  C_3
REMARK    3  A    between atoms: C_6  and  C_7
REMARK    4  A    between atoms: C_7  and  N_8
REMARK    5  A    between atoms: C_13  and  C_14
REMARK                            x       y       z     vdW  Elec       q    Type
REMARK                         _______ _______ _______ _____ _____    ______ ____
ROOT
ATOM      1  N   UNL     1      48.656   7.108  14.754  0.00  0.00    +0.000 N 
ATOM      2  C   UNL     1      48.838   8.455  14.943  0.00  0.00    +0.000 A 
ATOM      3  C   UNL     1      48.799   8.703  16.294  0.00  0.00    +0.000 A 
ATOM      4  C   UNL     1      48.639   7.457  16.956  0.00  0.00    +0.000 A 
ATOM      5  C   UNL     1      48.501   7.095  18.313  0.00  0.00    +0.000 A 
ATOM      6  C   UNL     1      48.364   5.744  18.663  0.00  0.00    +0.000 A 
ATOM      7  C   UNL     1      48.412   4.766  17.662  0.00  0.00    +0.000 A 
ATOM      8  C   UNL     1      48.548   5.100  16.308  0.00  0.00    +0.000 A 
ATOM      9  C   UNL     1      48.624   6.461  15.974  0.00  0.00    +0.000 A 
ENDROOT
BRANCH   6  10
ATOM     10  C   UNL     1      48.133   5.295  20.066  0.00  0.00    +0.000 C 
ATOM     11  N   UNL     1      48.564   4.058  20.447  0.00  0.00    +0.000 N 
ATOM     12  O   UNL     1      47.569   6.015  20.882  0.00  0.00    +0.000 OA
ATOM     13  H   UNL     1      49.049   3.398  19.861  0.00  0.00    +0.000 HD
ATOM     14  H   UNL     1      48.405   3.798  21.415  0.00  0.00    +0.000 HD
ENDBRANCH   6  10
BRANCH   1  15
ATOM     15  C   UNL     1      48.466   6.498  13.445  0.00  0.00    +0.000 C 
BRANCH  15  19
ATOM     16  C   UNL     1      44.845   4.929  11.443  0.00  0.00    +0.000 C 
ATOM     17  C   UNL     1      45.117   4.570  12.912  0.00  0.00    +0.000 C 
ATOM     18  C   UNL     1      46.559   4.854  13.332  0.00  0.00    +0.000 C 
ATOM     19  C   UNL     1      46.982   6.305  13.050  0.00  0.00    +0.000 C 
ATOM     20  C   UNL     1      46.715   6.649  11.576  0.00  0.00    +0.000 C 
ATOM     21  C   UNL     1      45.269   6.377  11.162  0.00  0.00    +0.000 C 
BRANCH  16  22
ATOM     22  C   UNL     1      43.358   4.682  11.118  0.00  0.00    +0.000 C 
BRANCH  22  23
ATOM     23  N   UNL     1      42.933   3.320  11.432  0.00  0.00    +0.000 NA
ATOM     24  H   UNL     1      43.048   3.152  12.430  0.00  0.00    +0.000 HD
ATOM     25  H   UNL     1      43.533   2.652  10.955  0.00  0.00    +0.000 HD
ENDBRANCH  22  23
ENDBRANCH  16  22
ENDBRANCH  15  19
ENDBRANCH   1  15
TORSDOF 5
ENDMDL
