MODEL 1
REMARK VINA RESULT:    -7.441      0.000      0.000
REMARK INTER + INTRA:         -10.189
REMARK INTER:                  -9.616
REMARK INTRA:                  -0.574
REMARK UNBOUND:                -0.574
REMARK  Name = 
REMARK  7 active torsions:
REMARK  status: ('A' for Active; 'I' for Inactive)
REMARK    1  A    between atoms: C_1  and  O_2
REMARK    2  A    between atoms: O_2  and  C_3
REMARK    3  A    between atoms: C_6  and  C_7
REMARK    4  A    between atoms: C_7  and  C_8
REMARK    5  A    between atoms: C_11  and  O_12
REMARK    6  A    between atoms: O_12  and  C_13
REMARK    7  A    between atoms: C_20  and  C_21
REMARK                            x       y       z     vdW  Elec       q    Type
REMARK                         _______ _______ _______ _____ _____    ______ ____
ROOT
ATOM      1  C   UNL     1      44.531   4.083  11.157  0.00  0.00    +0.000 C 
ATOM      2  C   UNL     1      43.526   3.187  11.897  0.00  0.00    +0.000 C 
ATOM      3  C   UNL     1      43.036   4.445  11.252  0.00  0.00    +0.000 C 
ATOM      4  C   UNL     1      42.511   5.548  12.111  0.00  0.00    +0.000 C 
ENDROOT
BRANCH   1   8
ATOM      5  C   UNL     1      46.095   2.866   7.404  0.00  0.00    +0.000 A 
ATOM      6  C   UNL     1      45.741   1.930   8.365  0.00  0.00    +0.000 A 
ATOM      7  N   UNL     1      45.223   2.274   9.572  0.00  0.00    +0.000 NA
ATOM      8  C   UNL     1      45.038   3.607   9.794  0.00  0.00    +0.000 A 
ATOM      9  C   UNL     1      45.362   4.521   8.786  0.00  0.00    +0.000 A 
ATOM     10  N   UNL     1      45.898   4.186   7.588  0.00  0.00    +0.000 NA
BRANCH   5  12
ATOM     11  C   UNL     1      48.060   2.158   6.387  0.00  0.00    +0.000 C 
ATOM     12  O   UNL     1      46.665   2.412   6.236  0.00  0.00    +0.000 OA
ENDBRANCH   5  12
ENDBRANCH   1   8
BRANCH   1  13
ATOM     13  C   UNL     1      45.518   4.872  12.014  0.00  0.00    +0.000 A 
ATOM     14  C   UNL     1      45.927   4.397  13.270  0.00  0.00    +0.000 A 
ATOM     15  C   UNL     1      47.016   4.958  13.941  0.00  0.00    +0.000 A 
ATOM     16  C   UNL     1      47.724   6.006  13.356  0.00  0.00    +0.000 A 
ATOM     17  C   UNL     1      47.233   6.596  12.194  0.00  0.00    +0.000 A 
ATOM     18  C   UNL     1      46.138   6.039  11.534  0.00  0.00    +0.000 A 
BRANCH  16  19
ATOM     19  O   UNL     1      48.862   6.551  13.870  0.00  0.00    +0.000 OA
BRANCH  19  20
ATOM     20  C   UNL     1      48.721   7.518  14.908  0.00  0.00    +0.000 C 
ATOM     21  F   UNL     1      47.692   8.380  14.745  0.00  0.00    +0.000 F 
ATOM     22  F   UNL     1      48.536   6.875  16.082  0.00  0.00    +0.000 F 
ATOM     23  F   UNL     1      49.865   8.230  14.995  0.00  0.00    +0.000 F 
ENDBRANCH  19  20
ENDBRANCH  16  19
ENDBRANCH   1  13
TORSDOF 5
ENDMDL
MODEL 2
REMARK VINA RESULT:    -7.400      4.292      6.930
REMARK INTER + INTRA:         -10.137
REMARK INTER:                  -9.776
REMARK INTRA:                  -0.361
REMARK UNBOUND:                -0.574
REMARK  Name = 
REMARK  7 active torsions:
REMARK  status: ('A' for Active; 'I' for Inactive)
REMARK    1  A    between atoms: C_1  and  O_2
REMARK    2  A    between atoms: O_2  and  C_3
REMARK    3  A    between atoms: C_6  and  C_7
REMARK    4  A    between atoms: C_7  and  C_8
REMARK    5  A    between atoms: C_11  and  O_12
REMARK    6  A    between atoms: O_12  and  C_13
REMARK    7  A    between atoms: C_20  and  C_21
REMARK                            x       y       z     vdW  Elec       q    Type
REMARK                         _______ _______ _______ _____ _____    ______ ____
ROOT
ATOM      1  C   UNL     1      44.941   5.548  11.882  0.00  0.00    +0.000 C 
ATOM      2  C   UNL     1      44.435   6.981  11.655  0.00  0.00    +0.000 C 
ATOM      3  C   UNL     1      43.554   6.008  12.373  0.00  0.00    +0.000 C 
ATOM      4  C   UNL     1      42.273   5.577  11.738  0.00  0.00    +0.000 C 
ENDROOT
BRANCH   1   8
ATOM      5  C   UNL     1      47.893   5.141  14.905  0.00  0.00    +0.000 A 
ATOM      6  C   UNL     1      46.788   4.302  14.870  0.00  0.00    +0.000 A 
ATOM      7  N   UNL     1      45.829   4.387  13.914  0.00  0.00    +0.000 NA
ATOM      8  C   UNL     1      46.014   5.336  12.952  0.00  0.00    +0.000 A 
ATOM      9  C   UNL     1      47.163   6.134  12.988  0.00  0.00    +0.000 A 
ATOM     10  N   UNL     1      48.113   6.069  13.952  0.00  0.00    +0.000 NA
BRANCH   5  12
ATOM     11  C   UNL     1      48.110   4.725  17.179  0.00  0.00    +0.000 C 
ATOM     12  O   UNL     1      48.777   5.008  15.951  0.00  0.00    +0.000 OA
ENDBRANCH   5  12
ENDBRANCH   1   8
BRANCH   1  13
ATOM     13  C   UNL     1      45.005   4.635  10.661  0.00  0.00    +0.000 A 
ATOM     14  C   UNL     1      45.380   5.131   9.403  0.00  0.00    +0.000 A 
ATOM     15  C   UNL     1      45.702   4.274   8.349  0.00  0.00    +0.000 A 
ATOM     16  C   UNL     1      45.660   2.895   8.540  0.00  0.00    +0.000 A 
ATOM     17  C   UNL     1      45.131   2.387   9.724  0.00  0.00    +0.000 A 
ATOM     18  C   UNL     1      44.801   3.247  10.771  0.00  0.00    +0.000 A 
BRANCH  16  19
ATOM     19  O   UNL     1      46.056   1.974   7.618  0.00  0.00    +0.000 OA
BRANCH  19  20
ATOM     20  C   UNL     1      47.089   2.351   6.709  0.00  0.00    +0.000 C 
ATOM     21  F   UNL     1      47.950   3.279   7.182  0.00  0.00    +0.000 F 
ATOM     22  F   UNL     1      47.805   1.252   6.384  0.00  0.00    +0.000 F 
ATOM     23  F   UNL     1      46.520   2.830   5.582  0.00  0.00    +0.000 F 
ENDBRANCH  19  20
ENDBRANCH  16  19
ENDBRANCH   1  13
TORSDOF 5
ENDMDL
MODEL 3
REMARK VINA RESULT:    -6.189      4.476      7.252
REMARK INTER + INTRA:          -8.572
REMARK INTER:                  -8.631
REMARK INTRA:                   0.059
REMARK UNBOUND:                -0.574
REMARK  Name = 
REMARK  7 active torsions:
REMARK  status: ('A' for Active; 'I' for Inactive)
REMARK    1  A    between atoms: C_1  and  O_2
REMARK    2  A    between atoms: O_2  and  C_3
REMARK    3  A    between atoms: C_6  and  C_7
REMARK    4  A    between atoms: C_7  and  C_8
REMARK    5  A    between atoms: C_11  and  O_12
REMARK    6  A    between atoms: O_12  and  C_13
REMARK    7  A    between atoms: C_20  and  C_21
REMARK                            x       y       z     vdW  Elec       q    Type
REMARK                         _______ _______ _______ _____ _____    ______ ____
ROOT
ATOM      1  C   UNL     1      46.788   6.830  12.975  0.00  0.00    +0.000 C 
ATOM      2  C   UNL     1      47.627   7.923  12.295  0.00  0.00    +0.000 C 
ATOM      3  C   UNL     1      46.491   8.329  13.179  0.00  0.00    +0.000 C 
ATOM      4  C   UNL     1      45.311   9.021  12.580  0.00  0.00    +0.000 C 
ENDROOT
BRANCH   1   8
ATOM      5  C   UNL     1      48.500   4.923  16.359  0.00  0.00    +0.000 A 
ATOM      6  C   UNL     1      47.409   4.369  15.705  0.00  0.00    +0.000 A 
ATOM      7  N   UNL     1      46.840   4.936  14.611  0.00  0.00    +0.000 NA
ATOM      8  C   UNL     1      47.415   6.086  14.156  0.00  0.00    +0.000 A 
ATOM      9  C   UNL     1      48.543   6.593  14.810  0.00  0.00    +0.000 A 
ATOM     10  N   UNL     1      49.103   6.043  15.914  0.00  0.00    +0.000 NA
BRANCH   5  12
ATOM     11  C   UNL     1      48.385   3.004  17.662  0.00  0.00    +0.000 C 
ATOM     12  O   UNL     1      48.964   4.296  17.493  0.00  0.00    +0.000 OA
ENDBRANCH   5  12
ENDBRANCH   1   8
BRANCH   1  13
ATOM     13  C   UNL     1      45.846   6.025  12.084  0.00  0.00    +0.000 A 
ATOM     14  C   UNL     1      46.029   5.977  10.693  0.00  0.00    +0.000 A 
ATOM     15  C   UNL     1      45.353   5.045   9.902  0.00  0.00    +0.000 A 
ATOM     16  C   UNL     1      44.484   4.133  10.496  0.00  0.00    +0.000 A 
ATOM     17  C   UNL     1      44.166   4.274  11.844  0.00  0.00    +0.000 A 
ATOM     18  C   UNL     1      44.835   5.214  12.629  0.00  0.00    +0.000 A 
BRANCH  16  19
ATOM     19  O   UNL     1      43.861   3.117   9.837  0.00  0.00    +0.000 OA
BRANCH  19  20
ATOM     20  C   UNL     1      44.650   2.316   8.960  0.00  0.00    +0.000 C 
ATOM     21  F   UNL     1      45.940   2.165   9.336  0.00  0.00    +0.000 F 
ATOM     22  F   UNL     1      44.099   1.085   8.880  0.00  0.00    +0.000 F 
ATOM     23  F   UNL     1      44.625   2.869   7.728  0.00  0.00    +0.000 F 
ENDBRANCH  19  20
ENDBRANCH  16  19
ENDBRANCH   1  13
TORSDOF 5
ENDMDL
MODEL 4
REMARK VINA RESULT:    -5.753      4.349      7.346
REMARK INTER + INTRA:          -8.009
REMARK INTER:                  -7.632
REMARK INTRA:                  -0.377
REMARK UNBOUND:                -0.574
REMARK  Name = 
REMARK  7 active torsions:
REMARK  status: ('A' for Active; 'I' for Inactive)
REMARK    1  A    between atoms: C_1  and  O_2
REMARK    2  A    between atoms: O_2  and  C_3
REMARK    3  A    between atoms: C_6  and  C_7
REMARK    4  A    between atoms: C_7  and  C_8
REMARK    5  A    between atoms: C_11  and  O_12
REMARK    6  A    between atoms: O_12  and  C_13
REMARK    7  A    between atoms: C_20  and  C_21
REMARK                            x       y       z     vdW  Elec       q    Type
REMARK                         _______ _______ _______ _____ _____    ______ ____
ROOT
ATOM      1  C   UNL     1      47.398   7.950  12.716  0.00  0.00    +0.000 C 
ATOM      2  C   UNL     1      48.385   8.657  11.774  0.00  0.00    +0.000 C 
ATOM      3  C   UNL     1      47.409   9.483  12.551  0.00  0.00    +0.000 C 
ATOM      4  C   UNL     1      46.348  10.238  11.821  0.00  0.00    +0.000 C 
ENDROOT
BRANCH   1   8
ATOM      5  C   UNL     1      49.035   6.298  16.267  0.00  0.00    +0.000 A 
ATOM      6  C   UNL     1      49.071   7.666  16.035  0.00  0.00    +0.000 A 
ATOM      7  N   UNL     1      48.546   8.238  14.921  0.00  0.00    +0.000 NA
ATOM      8  C   UNL     1      47.946   7.395  14.032  0.00  0.00    +0.000 A 
ATOM      9  C   UNL     1      47.886   6.027  14.318  0.00  0.00    +0.000 A 
ATOM     10  N   UNL     1      48.426   5.448  15.418  0.00  0.00    +0.000 NA
BRANCH   5  12
ATOM     11  C   UNL     1      49.506   4.403  17.525  0.00  0.00    +0.000 C 
ATOM     12  O   UNL     1      49.648   5.817  17.401  0.00  0.00    +0.000 OA
ENDBRANCH   5  12
ENDBRANCH   1   8
BRANCH   1  13
ATOM     13  C   UNL     1      46.262   7.165  12.066  0.00  0.00    +0.000 A 
ATOM     14  C   UNL     1      46.445   6.507  10.840  0.00  0.00    +0.000 A 
ATOM     15  C   UNL     1      45.517   5.575  10.369  0.00  0.00    +0.000 A 
ATOM     16  C   UNL     1      44.387   5.279  11.127  0.00  0.00    +0.000 A 
ATOM     17  C   UNL     1      44.107   6.040  12.259  0.00  0.00    +0.000 A 
ATOM     18  C   UNL     1      45.031   6.978  12.720  0.00  0.00    +0.000 A 
BRANCH  16  19
ATOM     19  O   UNL     1      43.478   4.312  10.816  0.00  0.00    +0.000 OA
BRANCH  19  20
ATOM     20  C   UNL     1      43.860   2.955  11.025  0.00  0.00    +0.000 C 
ATOM     21  F   UNL     1      42.950   2.204  11.684  0.00  0.00    +0.000 F 
ATOM     22  F   UNL     1      44.081   2.374   9.825  0.00  0.00    +0.000 F 
ATOM     23  F   UNL     1      45.017   2.933  11.721  0.00  0.00    +0.000 F 
ENDBRANCH  19  20
ENDBRANCH  16  19
ENDBRANCH   1  13
TORSDOF 5
ENDMDL
MODEL 5
REMARK VINA RESULT:    -5.698      3.823      5.586
REMARK INTER + INTRA:          -7.937
REMARK INTER:                  -7.304
REMARK INTRA:                  -0.633
REMARK UNBOUND:                -0.574
REMARK  Name = 
REMARK  7 active torsions:
REMARK  status: ('A' for Active; 'I' for Inactive)
REMARK    1  A    between atoms: C_1  and  O_2
REMARK    2  A    between atoms: O_2  and  C_3
REMARK    3  A    between atoms: C_6  and  C_7
REMARK    4  A    between atoms: C_7  and  C_8
REMARK    5  A    between atoms: C_11  and  O_12
REMARK    6  A    between atoms: O_12  and  C_13
REMARK    7  A    between atoms: C_20  and  C_21
REMARK                            x       y       z     vdW  Elec       q    Type
REMARK                         _______ _______ _______ _____ _____    ______ ____
ROOT
ATOM      1  C   UNL     1      47.642   7.348  13.094  0.00  0.00    +0.000 C 
ATOM      2  C   UNL     1      47.573   8.486  12.064  0.00  0.00    +0.000 C 
ATOM      3  C   UNL     1      48.616   7.427  11.901  0.00  0.00    +0.000 C 
ATOM      4  C   UNL     1      50.057   7.794  12.041  0.00  0.00    +0.000 C 
ENDROOT
BRANCH   1   8
ATOM      5  C   UNL     1      44.682   4.306  13.097  0.00  0.00    +0.000 A 
ATOM      6  C   UNL     1      44.361   5.612  12.756  0.00  0.00    +0.000 A 
ATOM      7  N   UNL     1      45.278   6.612  12.726  0.00  0.00    +0.000 NA
ATOM      8  C   UNL     1      46.562   6.266  13.029  0.00  0.00    +0.000 A 
ATOM      9  C   UNL     1      46.861   4.931  13.323  0.00  0.00    +0.000 A 
ATOM     10  N   UNL     1      45.947   3.933  13.374  0.00  0.00    +0.000 NA
BRANCH   5  12
ATOM     11  C   UNL     1      43.344   2.865  11.861  0.00  0.00    +0.000 C 
ATOM     12  O   UNL     1      43.664   3.380  13.151  0.00  0.00    +0.000 OA
ENDBRANCH   5  12
ENDBRANCH   1   8
BRANCH   1  13
ATOM     13  C   UNL     1      48.173   7.699  14.481  0.00  0.00    +0.000 A 
ATOM     14  C   UNL     1      47.998   8.984  15.019  0.00  0.00    +0.000 A 
ATOM     15  C   UNL     1      48.234   9.244  16.371  0.00  0.00    +0.000 A 
ATOM     16  C   UNL     1      48.642   8.213  17.214  0.00  0.00    +0.000 A 
ATOM     17  C   UNL     1      48.979   6.978  16.666  0.00  0.00    +0.000 A 
ATOM     18  C   UNL     1      48.754   6.726  15.313  0.00  0.00    +0.000 A 
BRANCH  16  19
ATOM     19  O   UNL     1      48.794   8.332  18.563  0.00  0.00    +0.000 OA
BRANCH  19  20
ATOM     20  C   UNL     1      47.651   8.091  19.380  0.00  0.00    +0.000 C 
ATOM     21  F   UNL     1      46.989   6.945  19.107  0.00  0.00    +0.000 F 
ATOM     22  F   UNL     1      48.041   8.043  20.672  0.00  0.00    +0.000 F 
ATOM     23  F   UNL     1      46.792   9.124  19.238  0.00  0.00    +0.000 F 
ENDBRANCH  19  20
ENDBRANCH  16  19
ENDBRANCH   1  13
TORSDOF 5
ENDMDL
MODEL 6
REMARK VINA RESULT:    -5.551      5.231      8.126
REMARK INTER + INTRA:          -7.748
REMARK INTER:                  -7.203
REMARK INTRA:                  -0.545
REMARK UNBOUND:                -0.574
REMARK  Name = 
REMARK  7 active torsions:
REMARK  status: ('A' for Active; 'I' for Inactive)
REMARK    1  A    between atoms: C_1  and  O_2
REMARK    2  A    between atoms: O_2  and  C_3
REMARK    3  A    between atoms: C_6  and  C_7
REMARK    4  A    between atoms: C_7  and  C_8
REMARK    5  A    between atoms: C_11  and  O_12
REMARK    6  A    between atoms: O_12  and  C_13
REMARK    7  A    between atoms: C_20  and  C_21
REMARK                            x       y       z     vdW  Elec       q    Type
REMARK                         _______ _______ _______ _____ _____    ______ ____
ROOT
ATOM      1  C   UNL     1      49.083   5.010  17.641  0.00  0.00    +0.000 C 
ATOM      2  C   UNL     1      49.488   6.238  18.470  0.00  0.00    +0.000 C 
ATOM      3  C   UNL     1      48.409   5.341  18.988  0.00  0.00    +0.000 C 
ATOM      4  C   UNL     1      47.015   5.866  19.101  0.00  0.00    +0.000 C 
ENDROOT
BRANCH   1   8
ATOM      5  C   UNL     1      51.701   1.676  17.417  0.00  0.00    +0.000 A 
ATOM      6  C   UNL     1      52.156   2.911  17.858  0.00  0.00    +0.000 A 
ATOM      7  N   UNL     1      51.351   3.998  17.960  0.00  0.00    +0.000 NA
ATOM      8  C   UNL     1      50.041   3.816  17.627  0.00  0.00    +0.000 A 
ATOM      9  C   UNL     1      49.604   2.547  17.232  0.00  0.00    +0.000 A 
ATOM     10  N   UNL     1      50.407   1.463  17.108  0.00  0.00    +0.000 NA
BRANCH   5  12
ATOM     11  C   UNL     1      53.845   0.958  17.949  0.00  0.00    +0.000 C 
ATOM     12  O   UNL     1      52.615   0.653  17.296  0.00  0.00    +0.000 OA
ENDBRANCH   5  12
ENDBRANCH   1   8
BRANCH   1  13
ATOM     13  C   UNL     1      48.296   5.267  16.360  0.00  0.00    +0.000 A 
ATOM     14  C   UNL     1      48.590   6.366  15.537  0.00  0.00    +0.000 A 
ATOM     15  C   UNL     1      48.071   6.466  14.244  0.00  0.00    +0.000 A 
ATOM     16  C   UNL     1      47.250   5.457  13.747  0.00  0.00    +0.000 A 
ATOM     17  C   UNL     1      46.815   4.448  14.603  0.00  0.00    +0.000 A 
ATOM     18  C   UNL     1      47.327   4.358  15.898  0.00  0.00    +0.000 A 
BRANCH  16  19
ATOM     19  O   UNL     1      46.781   5.401  12.469  0.00  0.00    +0.000 OA
BRANCH  19  20
ATOM     20  C   UNL     1      45.444   5.838  12.237  0.00  0.00    +0.000 C 
ATOM     21  F   UNL     1      44.962   6.704  13.155  0.00  0.00    +0.000 F 
ATOM     22  F   UNL     1      45.387   6.443  11.030  0.00  0.00    +0.000 F 
ATOM     23  F   UNL     1      44.635   4.757  12.203  0.00  0.00    +0.000 F 
ENDBRANCH  19  20
ENDBRANCH  16  19
ENDBRANCH   1  13
TORSDOF 5
ENDMDL
MODEL 7
REMARK VINA RESULT:    -4.780      4.489      6.987
REMARK INTER + INTRA:          -6.751
REMARK INTER:                  -6.169
REMARK INTRA:                  -0.582
REMARK UNBOUND:                -0.574
REMARK  Name = 
REMARK  7 active torsions:
REMARK  status: ('A' for Active; 'I' for Inactive)
REMARK    1  A    between atoms: C_1  and  O_2
REMARK    2  A    between atoms: O_2  and  C_3
REMARK    3  A    between atoms: C_6  and  C_7
REMARK    4  A    between atoms: C_7  and  C_8
REMARK    5  A    between atoms: C_11  and  O_12
REMARK    6  A    between atoms: O_12  and  C_13
REMARK    7  A    between atoms: C_20  and  C_21
REMARK                            x       y       z     vdW  Elec       q    Type
REMARK                         _______ _______ _______ _____ _____    ______ ____
ROOT
ATOM      1  C   UNL     1      48.668   7.914  13.711  0.00  0.00    +0.000 C 
ATOM      2  C   UNL     1      48.659   8.770  14.986  0.00  0.00    +0.000 C 
ATOM      3  C   UNL     1      49.295   7.417  15.029  0.00  0.00    +0.000 C 
ATOM      4  C   UNL     1      48.685   6.350  15.877  0.00  0.00    +0.000 C 
ENDROOT
BRANCH   1   8
ATOM      5  C   UNL     1      51.467   9.106  10.750  0.00  0.00    +0.000 A 
ATOM      6  C   UNL     1      51.137   7.769  10.921  0.00  0.00    +0.000 A 
ATOM      7  N   UNL     1      50.236   7.346  11.844  0.00  0.00    +0.000 NA
ATOM      8  C   UNL     1      49.638   8.313  12.596  0.00  0.00    +0.000 A 
ATOM      9  C   UNL     1      49.958   9.656  12.366  0.00  0.00    +0.000 A 
ATOM     10  N   UNL     1      50.871  10.083  11.460  0.00  0.00    +0.000 NA
BRANCH   5  12
ATOM     11  C   UNL     1      52.417  10.806   9.484  0.00  0.00    +0.000 C 
ATOM     12  O   UNL     1      52.435   9.421   9.823  0.00  0.00    +0.000 OA
ENDBRANCH   5  12
ENDBRANCH   1   8
BRANCH   1  13
ATOM     13  C   UNL     1      47.338   7.308  13.273  0.00  0.00    +0.000 A 
ATOM     14  C   UNL     1      46.185   8.100  13.154  0.00  0.00    +0.000 A 
ATOM     15  C   UNL     1      45.042   7.627  12.506  0.00  0.00    +0.000 A 
ATOM     16  C   UNL     1      45.036   6.348  11.956  0.00  0.00    +0.000 A 
ATOM     17  C   UNL     1      46.106   5.493  12.209  0.00  0.00    +0.000 A 
ATOM     18  C   UNL     1      47.242   5.965  12.867  0.00  0.00    +0.000 A 
BRANCH  16  19
ATOM     19  O   UNL     1      44.019   5.831  11.212  0.00  0.00    +0.000 OA
BRANCH  19  20
ATOM     20  C   UNL     1      42.902   5.285  11.910  0.00  0.00    +0.000 C 
ATOM     21  F   UNL     1      43.071   5.161  13.245  0.00  0.00    +0.000 F 
ATOM     22  F   UNL     1      41.828   6.079  11.704  0.00  0.00    +0.000 F 
ATOM     23  F   UNL     1      42.627   4.065  11.400  0.00  0.00    +0.000 F 
ENDBRANCH  19  20
ENDBRANCH  16  19
ENDBRANCH   1  13
TORSDOF 5
ENDMDL
MODEL 8
REMARK VINA RESULT:    -4.652      4.914      6.968
REMARK INTER + INTRA:          -6.585
REMARK INTER:                  -6.220
REMARK INTRA:                  -0.365
REMARK UNBOUND:                -0.574
REMARK  Name = 
REMARK  7 active torsions:
REMARK  status: ('A' for Active; 'I' for Inactive)
REMARK    1  A    between atoms: C_1  and  O_2
REMARK    2  A    between atoms: O_2  and  C_3
REMARK    3  A    between atoms: C_6  and  C_7
REMARK    4  A    between atoms: C_7  and  C_8
REMARK    5  A    between atoms: C_11  and  O_12
REMARK    6  A    between atoms: O_12  and  C_13
REMARK    7  A    between atoms: C_20  and  C_21
REMARK                            x       y       z     vdW  Elec       q    Type
REMARK                         _______ _______ _______ _____ _____    ______ ____
ROOT
ATOM      1  C   UNL     1      45.874  10.382  11.742  0.00  0.00    +0.000 C 
ATOM      2  C   UNL     1      46.626  11.515  12.457  0.00  0.00    +0.000 C 
ATOM      3  C   UNL     1      47.055  11.120  11.079  0.00  0.00    +0.000 C 
ATOM      4  C   UNL     1      48.401  10.505  10.882  0.00  0.00    +0.000 C 
ENDROOT
BRANCH   1   8
ATOM      5  C   UNL     1      41.980  11.051  10.190  0.00  0.00    +0.000 A 
ATOM      6  C   UNL     1      42.303  11.422  11.488  0.00  0.00    +0.000 A 
ATOM      7  N   UNL     1      43.539  11.241  12.019  0.00  0.00    +0.000 NA
ATOM      8  C   UNL     1      44.478  10.691  11.197  0.00  0.00    +0.000 A 
ATOM      9  C   UNL     1      44.133  10.372   9.879  0.00  0.00    +0.000 A 
ATOM     10  N   UNL     1      42.895  10.531   9.349  0.00  0.00    +0.000 NA
BRANCH   5  12
ATOM     11  C   UNL     1      39.747  10.611  10.654  0.00  0.00    +0.000 C 
ATOM     12  O   UNL     1      40.681  11.227   9.770  0.00  0.00    +0.000 OA
ENDBRANCH   5  12
ENDBRANCH   1   8
BRANCH   1  13
ATOM     13  C   UNL     1      46.108   8.964  12.254  0.00  0.00    +0.000 A 
ATOM     14  C   UNL     1      45.527   7.858  11.614  0.00  0.00    +0.000 A 
ATOM     15  C   UNL     1      45.940   6.554  11.898  0.00  0.00    +0.000 A 
ATOM     16  C   UNL     1      46.953   6.335  12.828  0.00  0.00    +0.000 A 
ATOM     17  C   UNL     1      47.422   7.402  13.590  0.00  0.00    +0.000 A 
ATOM     18  C   UNL     1      46.999   8.702  13.311  0.00  0.00    +0.000 A 
BRANCH  16  19
ATOM     19  O   UNL     1      47.504   5.119  13.099  0.00  0.00    +0.000 OA
BRANCH  19  20
ATOM     20  C   UNL     1      46.653   4.115  13.648  0.00  0.00    +0.000 C 
ATOM     21  F   UNL     1      45.959   3.398  12.736  0.00  0.00    +0.000 F 
ATOM     22  F   UNL     1      47.404   3.251  14.365  0.00  0.00    +0.000 F 
ATOM     23  F   UNL     1      45.774   4.705  14.486  0.00  0.00    +0.000 F 
ENDBRANCH  19  20
ENDBRANCH  16  19
ENDBRANCH   1  13
TORSDOF 5
ENDMDL
MODEL 9
REMARK VINA RESULT:    -4.521      4.754      6.285
REMARK INTER + INTRA:          -6.416
REMARK INTER:                  -6.361
REMARK INTRA:                  -0.055
REMARK UNBOUND:                -0.574
REMARK  Name = 
REMARK  7 active torsions:
REMARK  status: ('A' for Active; 'I' for Inactive)
REMARK    1  A    between atoms: C_1  and  O_2
REMARK    2  A    between atoms: O_2  and  C_3
REMARK    3  A    between atoms: C_6  and  C_7
REMARK    4  A    between atoms: C_7  and  C_8
REMARK    5  A    between atoms: C_11  and  O_12
REMARK    6  A    between atoms: O_12  and  C_13
REMARK    7  A    between atoms: C_20  and  C_21
REMARK                            x       y       z     vdW  Elec       q    Type
REMARK                         _______ _______ _______ _____ _____    ______ ____
ROOT
ATOM      1  C   UNL     1      47.662   8.407  12.666  0.00  0.00    +0.000 C 
ATOM      2  C   UNL     1      48.837   9.366  12.906  0.00  0.00    +0.000 C 
ATOM      3  C   UNL     1      48.890   8.437  11.735  0.00  0.00    +0.000 C 
ATOM      4  C   UNL     1      49.924   7.360  11.704  0.00  0.00    +0.000 C 
ENDROOT
BRANCH   1   8
ATOM      5  C   UNL     1      43.967   9.956  11.264  0.00  0.00    +0.000 A 
ATOM      6  C   UNL     1      44.995  10.804  11.648  0.00  0.00    +0.000 A 
ATOM      7  N   UNL     1      46.197  10.353  12.087  0.00  0.00    +0.000 NA
ATOM      8  C   UNL     1      46.364   8.999  12.112  0.00  0.00    +0.000 A 
ATOM      9  C   UNL     1      45.324   8.172  11.673  0.00  0.00    +0.000 A 
ATOM     10  N   UNL     1      44.115   8.616  11.253  0.00  0.00    +0.000 NA
BRANCH   5  12
ATOM     11  C   UNL     1      42.737  10.829   9.497  0.00  0.00    +0.000 C 
ATOM     12  O   UNL     1      42.768  10.518  10.888  0.00  0.00    +0.000 OA
ENDBRANCH   5  12
ENDBRANCH   1   8
BRANCH   1  13
ATOM     13  C   UNL     1      47.518   7.232  13.629  0.00  0.00    +0.000 A 
ATOM     14  C   UNL     1      46.726   6.120  13.301  0.00  0.00    +0.000 A 
ATOM     15  C   UNL     1      46.796   4.935  14.037  0.00  0.00    +0.000 A 
ATOM     16  C   UNL     1      47.671   4.841  15.117  0.00  0.00    +0.000 A 
ATOM     17  C   UNL     1      48.336   5.982  15.556  0.00  0.00    +0.000 A 
ATOM     18  C   UNL     1      48.256   7.167  14.824  0.00  0.00    +0.000 A 
BRANCH  16  19
ATOM     19  O   UNL     1      47.896   3.703  15.832  0.00  0.00    +0.000 OA
BRANCH  19  20
ATOM     20  C   UNL     1      47.551   3.713  17.215  0.00  0.00    +0.000 C 
ATOM     21  F   UNL     1      46.703   4.700  17.581  0.00  0.00    +0.000 F 
ATOM     22  F   UNL     1      46.969   2.534  17.528  0.00  0.00    +0.000 F 
ATOM     23  F   UNL     1      48.682   3.830  17.943  0.00  0.00    +0.000 F 
ENDBRANCH  19  20
ENDBRANCH  16  19
ENDBRANCH   1  13
TORSDOF 5
ENDMDL
