MODEL 1
REMARK VINA RESULT:    -7.443      0.000      0.000
REMARK INTER + INTRA:         -10.223
REMARK INTER:                  -9.618
REMARK INTRA:                  -0.605
REMARK UNBOUND:                -0.605
REMARK  Name = 
REMARK  5 active torsions:
REMARK  status: ('A' for Active; 'I' for Inactive)
REMARK    1  A    between atoms: C_5  and  C_6
REMARK    2  A    between atoms: C_6  and  C_7
REMARK    3  A    between atoms: C_7  and  N_8
REMARK    4  A    between atoms: C_16  and  O_17
REMARK    5  A    between atoms: O_17  and  C_18
REMARK                            x       y       z     vdW  Elec       q    Type
REMARK                         _______ _______ _______ _____ _____    ______ ____
ROOT
ATOM      1 CL   UNL     1      49.543   7.268  13.030  0.00  0.00    +0.000 Cl
ATOM      2  C   UNL     1      47.977   6.565  12.870  0.00  0.00    +0.000 A 
ATOM      3  C   UNL     1      47.251   6.989  11.752  0.00  0.00    +0.000 A 
ATOM      4  C   UNL     1      45.937   6.574  11.548  0.00  0.00    +0.000 A 
ATOM      5  C   UNL     1      45.300   5.724  12.459  0.00  0.00    +0.000 A 
ATOM      6  C   UNL     1      46.048   5.279  13.565  0.00  0.00    +0.000 A 
ATOM      7  C   UNL     1      47.386   5.682  13.780  0.00  0.00    +0.000 A 
ENDROOT
BRANCH   5   8
ATOM      8  C   UNL     1      43.845   5.294  12.301  0.00  0.00    +0.000 C 
BRANCH   8   9
ATOM      9  C   UNL     1      43.631   4.189  11.255  0.00  0.00    +0.000 C 
BRANCH   9  10
ATOM     10  N   UNL     1      43.775   4.652   9.882  0.00  0.00    +0.000 N 
ATOM     11  C   UNL     1      44.630   3.821   9.146  0.00  0.00    +0.000 A 
ATOM     12  N   UNL     1      44.691   2.518   9.424  0.00  0.00    +0.000 NA
ATOM     13  C   UNL     1      45.557   1.816   8.701  0.00  0.00    +0.000 A 
ATOM     14  N   UNL     1      46.343   2.295   7.749  0.00  0.00    +0.000 NA
ATOM     15  C   UNL     1      46.194   3.600   7.551  0.00  0.00    +0.000 A 
ATOM     16  N   UNL     1      45.372   4.414   8.218  0.00  0.00    +0.000 NA
ATOM     17  H   UNL     1      44.139   5.593   9.767  0.00  0.00    +0.000 HD
ENDBRANCH   9  10
ENDBRANCH   8   9
ENDBRANCH   5   8
BRANCH   7  18
ATOM     18  O   UNL     1      47.915   5.186  14.950  0.00  0.00    +0.000 OA
BRANCH  18  19
ATOM     19  C   UNL     1      47.189   4.239  15.765  0.00  0.00    +0.000 C 
ATOM     20  C   UNL     1      47.169   4.462  17.296  0.00  0.00    +0.000 C 
ATOM     21  C   UNL     1      47.543   2.987  17.497  0.00  0.00    +0.000 C 
ATOM     22  C   UNL     1      47.956   2.919  16.023  0.00  0.00    +0.000 C 
ENDBRANCH  18  19
ENDBRANCH   7  18
TORSDOF 5
ENDMDL
MODEL 2
REMARK VINA RESULT:    -7.397      1.238      1.723
REMARK INTER + INTRA:         -10.165
REMARK INTER:                  -9.980
REMARK INTRA:                  -0.185
REMARK UNBOUND:                -0.605
REMARK  Name = 
REMARK  5 active torsions:
REMARK  status: ('A' for Active; 'I' for Inactive)
REMARK    1  A    between atoms: C_5  and  C_6
REMARK    2  A    between atoms: C_6  and  C_7
REMARK    3  A    between atoms: C_7  and  N_8
REMARK    4  A    between atoms: C_16  and  O_17
REMARK    5  A    between atoms: O_17  and  C_18
REMARK                            x       y       z     vdW  Elec       q    Type
REMARK                         _______ _______ _______ _____ _____    ______ ____
ROOT
ATOM      1 CL   UNL     1      48.275   6.654  14.416  0.00  0.00    +0.000 Cl
ATOM      2  C   UNL     1      47.136   5.831  13.416  0.00  0.00    +0.000 A 
ATOM      3  C   UNL     1      46.920   6.413  12.163  0.00  0.00    +0.000 A 
ATOM      4  C   UNL     1      45.959   5.906  11.291  0.00  0.00    +0.000 A 
ATOM      5  C   UNL     1      45.175   4.802  11.645  0.00  0.00    +0.000 A 
ATOM      6  C   UNL     1      45.419   4.205  12.896  0.00  0.00    +0.000 A 
ATOM      7  C   UNL     1      46.399   4.701  13.786  0.00  0.00    +0.000 A 
ENDROOT
BRANCH   5   8
ATOM      8  C   UNL     1      44.073   4.255  10.742  0.00  0.00    +0.000 C 
BRANCH   8   9
ATOM      9  C   UNL     1      44.538   3.130   9.804  0.00  0.00    +0.000 C 
BRANCH   9  10
ATOM     10  N   UNL     1      44.875   3.591   8.464  0.00  0.00    +0.000 N 
ATOM     11  C   UNL     1      45.889   2.813   7.892  0.00  0.00    +0.000 A 
ATOM     12  N   UNL     1      45.986   1.519   8.199  0.00  0.00    +0.000 NA
ATOM     13  C   UNL     1      47.001   0.869   7.639  0.00  0.00    +0.000 A 
ATOM     14  N   UNL     1      47.900   1.392   6.819  0.00  0.00    +0.000 NA
ATOM     15  C   UNL     1      47.703   2.683   6.576  0.00  0.00    +0.000 A 
ATOM     16  N   UNL     1      46.733   3.446   7.086  0.00  0.00    +0.000 NA
ATOM     17  H   UNL     1      45.192   4.553   8.392  0.00  0.00    +0.000 HD
ENDBRANCH   9  10
ENDBRANCH   8   9
ENDBRANCH   5   8
BRANCH   7  18
ATOM     18  O   UNL     1      46.436   4.015  14.980  0.00  0.00    +0.000 OA
BRANCH  18  19
ATOM     19  C   UNL     1      47.557   4.133  15.883  0.00  0.00    +0.000 C 
ATOM     20  C   UNL     1      48.233   2.831  16.378  0.00  0.00    +0.000 C 
ATOM     21  C   UNL     1      48.167   3.365  17.815  0.00  0.00    +0.000 C 
ATOM     22  C   UNL     1      47.151   4.413  17.351  0.00  0.00    +0.000 C 
ENDBRANCH  18  19
ENDBRANCH   7  18
TORSDOF 5
ENDMDL
MODEL 3
REMARK VINA RESULT:    -7.082      2.087      3.576
REMARK INTER + INTRA:          -9.757
REMARK INTER:                  -9.004
REMARK INTRA:                  -0.753
REMARK UNBOUND:                -0.605
REMARK  Name = 
REMARK  5 active torsions:
REMARK  status: ('A' for Active; 'I' for Inactive)
REMARK    1  A    between atoms: C_5  and  C_6
REMARK    2  A    between atoms: C_6  and  C_7
REMARK    3  A    between atoms: C_7  and  N_8
REMARK    4  A    between atoms: C_16  and  O_17
REMARK    5  A    between atoms: O_17  and  C_18
REMARK                            x       y       z     vdW  Elec       q    Type
REMARK                         _______ _______ _______ _____ _____    ______ ____
ROOT
ATOM      1 CL   UNL     1      47.800   5.489  14.937  0.00  0.00    +0.000 Cl
ATOM      2  C   UNL     1      46.578   5.198  13.755  0.00  0.00    +0.000 A 
ATOM      3  C   UNL     1      46.324   3.849  13.489  0.00  0.00    +0.000 A 
ATOM      4  C   UNL     1      45.429   3.470  12.490  0.00  0.00    +0.000 A 
ATOM      5  C   UNL     1      44.760   4.428  11.719  0.00  0.00    +0.000 A 
ATOM      6  C   UNL     1      45.000   5.783  12.015  0.00  0.00    +0.000 A 
ATOM      7  C   UNL     1      45.897   6.183  13.033  0.00  0.00    +0.000 A 
ENDROOT
BRANCH   5   8
ATOM      8  C   UNL     1      43.818   4.053  10.580  0.00  0.00    +0.000 C 
BRANCH   8   9
ATOM      9  C   UNL     1      44.340   2.914   9.689  0.00  0.00    +0.000 C 
BRANCH   9  10
ATOM     10  N   UNL     1      44.641   3.333   8.327  0.00  0.00    +0.000 N 
ATOM     11  C   UNL     1      45.740   2.637   7.806  0.00  0.00    +0.000 A 
ATOM     12  N   UNL     1      45.972   1.381   8.188  0.00  0.00    +0.000 NA
ATOM     13  C   UNL     1      47.057   0.814   7.672  0.00  0.00    +0.000 A 
ATOM     14  N   UNL     1      47.904   1.384   6.828  0.00  0.00    +0.000 NA
ATOM     15  C   UNL     1      47.572   2.630   6.510  0.00  0.00    +0.000 A 
ATOM     16  N   UNL     1      46.520   3.311   6.969  0.00  0.00    +0.000 NA
ATOM     17  H   UNL     1      44.853   4.318   8.202  0.00  0.00    +0.000 HD
ENDBRANCH   9  10
ENDBRANCH   8   9
ENDBRANCH   5   8
BRANCH   7  18
ATOM     18  O   UNL     1      46.036   7.551  13.118  0.00  0.00    +0.000 OA
BRANCH  18  19
ATOM     19  C   UNL     1      47.077   8.249  12.398  0.00  0.00    +0.000 C 
ATOM     20  C   UNL     1      48.132   7.404  11.645  0.00  0.00    +0.000 C 
ATOM     21  C   UNL     1      49.240   8.255  12.281  0.00  0.00    +0.000 C 
ATOM     22  C   UNL     1      48.220   8.770  13.301  0.00  0.00    +0.000 C 
ENDBRANCH  18  19
ENDBRANCH   7  18
TORSDOF 5
ENDMDL
MODEL 4
REMARK VINA RESULT:    -6.996      2.072      4.073
REMARK INTER + INTRA:          -9.646
REMARK INTER:                  -9.040
REMARK INTRA:                  -0.606
REMARK UNBOUND:                -0.605
REMARK  Name = 
REMARK  5 active torsions:
REMARK  status: ('A' for Active; 'I' for Inactive)
REMARK    1  A    between atoms: C_5  and  C_6
REMARK    2  A    between atoms: C_6  and  C_7
REMARK    3  A    between atoms: C_7  and  N_8
REMARK    4  A    between atoms: C_16  and  O_17
REMARK    5  A    between atoms: O_17  and  C_18
REMARK                            x       y       z     vdW  Elec       q    Type
REMARK                         _______ _______ _______ _____ _____    ______ ____
ROOT
ATOM      1 CL   UNL     1      48.180   6.265  14.633  0.00  0.00    +0.000 Cl
ATOM      2  C   UNL     1      46.964   5.875  13.475  0.00  0.00    +0.000 A 
ATOM      3  C   UNL     1      46.200   4.744  13.778  0.00  0.00    +0.000 A 
ATOM      4  C   UNL     1      45.245   4.259  12.887  0.00  0.00    +0.000 A 
ATOM      5  C   UNL     1      45.023   4.888  11.656  0.00  0.00    +0.000 A 
ATOM      6  C   UNL     1      45.776   6.044  11.372  0.00  0.00    +0.000 A 
ATOM      7  C   UNL     1      46.740   6.553  12.271  0.00  0.00    +0.000 A 
ENDROOT
BRANCH   5   8
ATOM      8  C   UNL     1      44.029   4.356  10.630  0.00  0.00    +0.000 C 
BRANCH   8   9
ATOM      9  C   UNL     1      44.584   3.222   9.753  0.00  0.00    +0.000 C 
BRANCH   9  10
ATOM     10  N   UNL     1      44.965   3.654   8.416  0.00  0.00    +0.000 N 
ATOM     11  C   UNL     1      45.952   2.823   7.868  0.00  0.00    +0.000 A 
ATOM     12  N   UNL     1      45.982   1.529   8.189  0.00  0.00    +0.000 NA
ATOM     13  C   UNL     1      46.975   0.827   7.653  0.00  0.00    +0.000 A 
ATOM     14  N   UNL     1      47.911   1.299   6.843  0.00  0.00    +0.000 NA
ATOM     15  C   UNL     1      47.780   2.595   6.586  0.00  0.00    +0.000 A 
ATOM     16  N   UNL     1      46.838   3.408   7.071  0.00  0.00    +0.000 NA
ATOM     17  H   UNL     1      45.328   4.599   8.341  0.00  0.00    +0.000 HD
ENDBRANCH   9  10
ENDBRANCH   8   9
ENDBRANCH   5   8
BRANCH   7  18
ATOM     18  O   UNL     1      47.409   7.651  11.777  0.00  0.00    +0.000 OA
BRANCH  18  19
ATOM     19  C   UNL     1      47.259   8.957  12.375  0.00  0.00    +0.000 C 
ATOM     20  C   UNL     1      45.966   9.752  12.073  0.00  0.00    +0.000 C 
ATOM     21  C   UNL     1      46.821  10.985  11.749  0.00  0.00    +0.000 C 
ATOM     22  C   UNL     1      48.048  10.073  11.647  0.00  0.00    +0.000 C 
ENDBRANCH  18  19
ENDBRANCH   7  18
TORSDOF 5
ENDMDL
MODEL 5
REMARK VINA RESULT:    -6.986      2.604      3.354
REMARK INTER + INTRA:          -9.633
REMARK INTER:                  -8.960
REMARK INTRA:                  -0.673
REMARK UNBOUND:                -0.605
REMARK  Name = 
REMARK  5 active torsions:
REMARK  status: ('A' for Active; 'I' for Inactive)
REMARK    1  A    between atoms: C_5  and  C_6
REMARK    2  A    between atoms: C_6  and  C_7
REMARK    3  A    between atoms: C_7  and  N_8
REMARK    4  A    between atoms: C_16  and  O_17
REMARK    5  A    between atoms: O_17  and  C_18
REMARK                            x       y       z     vdW  Elec       q    Type
REMARK                         _______ _______ _______ _____ _____    ______ ____
ROOT
ATOM      1 CL   UNL     1      45.391   9.117  12.788  0.00  0.00    +0.000 Cl
ATOM      2  C   UNL     1      45.092   7.503  12.259  0.00  0.00    +0.000 A 
ATOM      3  C   UNL     1      43.958   7.344  11.457  0.00  0.00    +0.000 A 
ATOM      4  C   UNL     1      43.545   6.082  11.036  0.00  0.00    +0.000 A 
ATOM      5  C   UNL     1      44.251   4.932  11.408  0.00  0.00    +0.000 A 
ATOM      6  C   UNL     1      45.408   5.104  12.191  0.00  0.00    +0.000 A 
ATOM      7  C   UNL     1      45.846   6.379  12.616  0.00  0.00    +0.000 A 
ENDROOT
BRANCH   5   8
ATOM      8  C   UNL     1      43.798   3.529  11.016  0.00  0.00    +0.000 C 
BRANCH   8   9
ATOM      9  C   UNL     1      44.817   2.761  10.160  0.00  0.00    +0.000 C 
BRANCH   9  10
ATOM     10  N   UNL     1      45.034   3.350   8.846  0.00  0.00    +0.000 N 
ATOM     11  C   UNL     1      45.979   2.626   8.107  0.00  0.00    +0.000 A 
ATOM     12  N   UNL     1      46.086   1.308   8.276  0.00  0.00    +0.000 NA
ATOM     13  C   UNL     1      47.034   0.710   7.562  0.00  0.00    +0.000 A 
ATOM     14  N   UNL     1      47.859   1.307   6.715  0.00  0.00    +0.000 NA
ATOM     15  C   UNL     1      47.660   2.616   6.619  0.00  0.00    +0.000 A 
ATOM     16  N   UNL     1      46.753   3.331   7.290  0.00  0.00    +0.000 NA
ATOM     17  H   UNL     1      45.357   4.313   8.838  0.00  0.00    +0.000 HD
ENDBRANCH   9  10
ENDBRANCH   8   9
ENDBRANCH   5   8
BRANCH   7  18
ATOM     18  O   UNL     1      46.960   6.323  13.423  0.00  0.00    +0.000 OA
BRANCH  18  19
ATOM     19  C   UNL     1      48.294   6.408  12.875  0.00  0.00    +0.000 C 
ATOM     20  C   UNL     1      49.346   7.238  13.648  0.00  0.00    +0.000 C 
ATOM     21  C   UNL     1      49.729   7.939  12.338  0.00  0.00    +0.000 C 
ATOM     22  C   UNL     1      48.429   7.421  11.713  0.00  0.00    +0.000 C 
ENDBRANCH  18  19
ENDBRANCH   7  18
TORSDOF 5
ENDMDL
MODEL 6
REMARK VINA RESULT:    -6.826      4.098      7.265
REMARK INTER + INTRA:          -9.427
REMARK INTER:                  -8.999
REMARK INTRA:                  -0.427
REMARK UNBOUND:                -0.605
REMARK  Name = 
REMARK  5 active torsions:
REMARK  status: ('A' for Active; 'I' for Inactive)
REMARK    1  A    between atoms: C_5  and  C_6
REMARK    2  A    between atoms: C_6  and  C_7
REMARK    3  A    between atoms: C_7  and  N_8
REMARK    4  A    between atoms: C_16  and  O_17
REMARK    5  A    between atoms: O_17  and  C_18
REMARK                            x       y       z     vdW  Elec       q    Type
REMARK                         _______ _______ _______ _____ _____    ______ ____
ROOT
ATOM      1 CL   UNL     1      44.369   1.488   8.917  0.00  0.00    +0.000 Cl
ATOM      2  C   UNL     1      44.826   3.022   9.558  0.00  0.00    +0.000 A 
ATOM      3  C   UNL     1      44.525   3.211  10.910  0.00  0.00    +0.000 A 
ATOM      4  C   UNL     1      44.754   4.436  11.534  0.00  0.00    +0.000 A 
ATOM      5  C   UNL     1      45.288   5.517  10.825  0.00  0.00    +0.000 A 
ATOM      6  C   UNL     1      45.616   5.309   9.472  0.00  0.00    +0.000 A 
ATOM      7  C   UNL     1      45.400   4.069   8.828  0.00  0.00    +0.000 A 
ENDROOT
BRANCH   5   8
ATOM      8  C   UNL     1      45.499   6.889  11.457  0.00  0.00    +0.000 C 
BRANCH   8   9
ATOM      9  C   UNL     1      45.891   6.838  12.942  0.00  0.00    +0.000 C 
BRANCH   9  10
ATOM     10  N   UNL     1      47.330   6.825  13.164  0.00  0.00    +0.000 N 
ATOM     11  C   UNL     1      47.673   6.032  14.267  0.00  0.00    +0.000 A 
ATOM     12  N   UNL     1      46.939   4.961  14.569  0.00  0.00    +0.000 NA
ATOM     13  C   UNL     1      47.315   4.292  15.654  0.00  0.00    +0.000 A 
ATOM     14  N   UNL     1      48.339   4.596  16.437  0.00  0.00    +0.000 NA
ATOM     15  C   UNL     1      49.004   5.675  16.039  0.00  0.00    +0.000 A 
ATOM     16  N   UNL     1      48.718   6.436  14.980  0.00  0.00    +0.000 NA
ATOM     17  H   UNL     1      47.762   7.728  13.329  0.00  0.00    +0.000 HD
ENDBRANCH   9  10
ENDBRANCH   8   9
ENDBRANCH   5   8
BRANCH   7  18
ATOM     18  O   UNL     1      45.729   4.093   7.491  0.00  0.00    +0.000 OA
BRANCH  18  19
ATOM     19  C   UNL     1      46.185   2.907   6.805  0.00  0.00    +0.000 C 
ATOM     20  C   UNL     1      47.550   2.307   7.218  0.00  0.00    +0.000 C 
ATOM     21  C   UNL     1      47.944   2.229   5.736  0.00  0.00    +0.000 C 
ATOM     22  C   UNL     1      46.793   3.186   5.409  0.00  0.00    +0.000 C 
ENDBRANCH  18  19
ENDBRANCH   7  18
TORSDOF 5
ENDMDL
MODEL 7
REMARK VINA RESULT:    -5.985      4.221      6.922
REMARK INTER + INTRA:          -8.339
REMARK INTER:                  -7.730
REMARK INTRA:                  -0.610
REMARK UNBOUND:                -0.605
REMARK  Name = 
REMARK  5 active torsions:
REMARK  status: ('A' for Active; 'I' for Inactive)
REMARK    1  A    between atoms: C_5  and  C_6
REMARK    2  A    between atoms: C_6  and  C_7
REMARK    3  A    between atoms: C_7  and  N_8
REMARK    4  A    between atoms: C_16  and  O_17
REMARK    5  A    between atoms: O_17  and  C_18
REMARK                            x       y       z     vdW  Elec       q    Type
REMARK                         _______ _______ _______ _____ _____    ______ ____
ROOT
ATOM      1 CL   UNL     1      43.179   8.788  10.894  0.00  0.00    +0.000 Cl
ATOM      2  C   UNL     1      44.567   8.024  11.575  0.00  0.00    +0.000 A 
ATOM      3  C   UNL     1      45.371   8.853  12.363  0.00  0.00    +0.000 A 
ATOM      4  C   UNL     1      46.572   8.392  12.899  0.00  0.00    +0.000 A 
ATOM      5  C   UNL     1      47.013   7.085  12.661  0.00  0.00    +0.000 A 
ATOM      6  C   UNL     1      46.182   6.249  11.892  0.00  0.00    +0.000 A 
ATOM      7  C   UNL     1      44.956   6.698  11.351  0.00  0.00    +0.000 A 
ENDROOT
BRANCH   5   8
ATOM      8  C   UNL     1      48.348   6.562  13.182  0.00  0.00    +0.000 C 
BRANCH   8   9
ATOM      9  C   UNL     1      48.373   6.317  14.699  0.00  0.00    +0.000 C 
BRANCH   9  10
ATOM     10  N   UNL     1      47.260   5.508  15.176  0.00  0.00    +0.000 N 
ATOM     11  C   UNL     1      47.612   4.771  16.314  0.00  0.00    +0.000 A 
ATOM     12  N   UNL     1      48.498   5.266  17.178  0.00  0.00    +0.000 NA
ATOM     13  C   UNL     1      48.799   4.482  18.208  0.00  0.00    +0.000 A 
ATOM     14  N   UNL     1      48.297   3.278  18.439  0.00  0.00    +0.000 NA
ATOM     15  C   UNL     1      47.420   2.888  17.521  0.00  0.00    +0.000 A 
ATOM     16  N   UNL     1      47.046   3.576  16.440  0.00  0.00    +0.000 NA
ATOM     17  H   UNL     1      46.887   4.833  14.515  0.00  0.00    +0.000 HD
ENDBRANCH   9  10
ENDBRANCH   8   9
ENDBRANCH   5   8
BRANCH   7  18
ATOM     18  O   UNL     1      44.328   5.746  10.580  0.00  0.00    +0.000 OA
BRANCH  18  19
ATOM     19  C   UNL     1      44.963   4.485  10.274  0.00  0.00    +0.000 C 
ATOM     20  C   UNL     1      44.877   3.961   8.820  0.00  0.00    +0.000 C 
ATOM     21  C   UNL     1      44.444   2.591   9.359  0.00  0.00    +0.000 C 
ATOM     22  C   UNL     1      44.139   3.248  10.709  0.00  0.00    +0.000 C 
ENDBRANCH  18  19
ENDBRANCH   7  18
TORSDOF 5
ENDMDL
MODEL 8
REMARK VINA RESULT:    -5.722      2.025      2.764
REMARK INTER + INTRA:          -8.000
REMARK INTER:                  -7.459
REMARK INTRA:                  -0.540
REMARK UNBOUND:                -0.605
REMARK  Name = 
REMARK  5 active torsions:
REMARK  status: ('A' for Active; 'I' for Inactive)
REMARK    1  A    between atoms: C_5  and  C_6
REMARK    2  A    between atoms: C_6  and  C_7
REMARK    3  A    between atoms: C_7  and  N_8
REMARK    4  A    between atoms: C_16  and  O_17
REMARK    5  A    between atoms: O_17  and  C_18
REMARK                            x       y       z     vdW  Elec       q    Type
REMARK                         _______ _______ _______ _____ _____    ______ ____
ROOT
ATOM      1 CL   UNL     1      49.088   8.308  17.668  0.00  0.00    +0.000 Cl
ATOM      2  C   UNL     1      48.734   7.944  16.020  0.00  0.00    +0.000 A 
ATOM      3  C   UNL     1      48.261   9.021  15.265  0.00  0.00    +0.000 A 
ATOM      4  C   UNL     1      47.848   8.849  13.945  0.00  0.00    +0.000 A 
ATOM      5  C   UNL     1      47.889   7.590  13.336  0.00  0.00    +0.000 A 
ATOM      6  C   UNL     1      48.395   6.517  14.094  0.00  0.00    +0.000 A 
ATOM      7  C   UNL     1      48.828   6.678  15.430  0.00  0.00    +0.000 A 
ENDROOT
BRANCH   5   8
ATOM      8  C   UNL     1      47.392   7.350  11.914  0.00  0.00    +0.000 C 
BRANCH   8   9
ATOM      9  C   UNL     1      46.280   6.295  11.812  0.00  0.00    +0.000 C 
BRANCH   9  10
ATOM     10  N   UNL     1      45.580   6.309  10.535  0.00  0.00    +0.000 N 
ATOM     11  C   UNL     1      45.248   5.014  10.116  0.00  0.00    +0.000 A 
ATOM     12  N   UNL     1      44.974   4.073  11.020  0.00  0.00    +0.000 NA
ATOM     13  C   UNL     1      44.707   2.866  10.532  0.00  0.00    +0.000 A 
ATOM     14  N   UNL     1      44.691   2.533   9.250  0.00  0.00    +0.000 NA
ATOM     15  C   UNL     1      44.971   3.547   8.439  0.00  0.00    +0.000 A 
ATOM     16  N   UNL     1      45.266   4.797   8.806  0.00  0.00    +0.000 NA
ATOM     17  H   UNL     1      46.080   6.730   9.759  0.00  0.00    +0.000 HD
ENDBRANCH   9  10
ENDBRANCH   8   9
ENDBRANCH   5   8
BRANCH   7  18
ATOM     18  O   UNL     1      49.226   5.496  16.012  0.00  0.00    +0.000 OA
BRANCH  18  19
ATOM     19  C   UNL     1      48.452   4.873  17.061  0.00  0.00    +0.000 C 
ATOM     20  C   UNL     1      48.934   3.509  17.608  0.00  0.00    +0.000 C 
ATOM     21  C   UNL     1      47.506   2.965  17.461  0.00  0.00    +0.000 C 
ATOM     22  C   UNL     1      47.176   4.157  16.555  0.00  0.00    +0.000 C 
ENDBRANCH  18  19
ENDBRANCH   7  18
TORSDOF 5
ENDMDL
MODEL 9
REMARK VINA RESULT:    -5.531      2.935      4.032
REMARK INTER + INTRA:          -7.753
REMARK INTER:                  -7.006
REMARK INTRA:                  -0.748
REMARK UNBOUND:                -0.605
REMARK  Name = 
REMARK  5 active torsions:
REMARK  status: ('A' for Active; 'I' for Inactive)
REMARK    1  A    between atoms: C_5  and  C_6
REMARK    2  A    between atoms: C_6  and  C_7
REMARK    3  A    between atoms: C_7  and  N_8
REMARK    4  A    between atoms: C_16  and  O_17
REMARK    5  A    between atoms: O_17  and  C_18
REMARK                            x       y       z     vdW  Elec       q    Type
REMARK                         _______ _______ _______ _____ _____    ______ ____
ROOT
ATOM      1 CL   UNL     1      50.471   7.831  17.671  0.00  0.00    +0.000 Cl
ATOM      2  C   UNL     1      49.515   8.001  16.246  0.00  0.00    +0.000 A 
ATOM      3  C   UNL     1      49.263   9.320  15.856  0.00  0.00    +0.000 A 
ATOM      4  C   UNL     1      48.428   9.605  14.778  0.00  0.00    +0.000 A 
ATOM      5  C   UNL     1      47.810   8.579  14.054  0.00  0.00    +0.000 A 
ATOM      6  C   UNL     1      48.093   7.254  14.435  0.00  0.00    +0.000 A 
ATOM      7  C   UNL     1      48.947   6.949  15.519  0.00  0.00    +0.000 A 
ENDROOT
BRANCH   5   8
ATOM      8  C   UNL     1      46.844   8.852  12.906  0.00  0.00    +0.000 C 
BRANCH   8   9
ATOM      9  C   UNL     1      46.189   7.588  12.328  0.00  0.00    +0.000 C 
BRANCH   9  10
ATOM     10  N   UNL     1      44.989   7.177  13.043  0.00  0.00    +0.000 N 
ATOM     11  C   UNL     1      44.797   5.790  12.971  0.00  0.00    +0.000 A 
ATOM     12  N   UNL     1      45.851   4.976  12.908  0.00  0.00    +0.000 NA
ATOM     13  C   UNL     1      45.573   3.681  12.803  0.00  0.00    +0.000 A 
ATOM     14  N   UNL     1      44.361   3.149  12.761  0.00  0.00    +0.000 NA
ATOM     15  C   UNL     1      43.387   4.048  12.839  0.00  0.00    +0.000 A 
ATOM     16  N   UNL     1      43.537   5.372  12.933  0.00  0.00    +0.000 NA
ATOM     17  H   UNL     1      44.118   7.592  12.727  0.00  0.00    +0.000 HD
ENDBRANCH   9  10
ENDBRANCH   8   9
ENDBRANCH   5   8
BRANCH   7  18
ATOM     18  O   UNL     1      49.040   5.597  15.765  0.00  0.00    +0.000 OA
BRANCH  18  19
ATOM     19  C   UNL     1      48.135   4.932  16.673  0.00  0.00    +0.000 C 
ATOM     20  C   UNL     1      48.742   4.031  17.776  0.00  0.00    +0.000 C 
ATOM     21  C   UNL     1      47.749   2.925  17.394  0.00  0.00    +0.000 C 
ATOM     22  C   UNL     1      47.474   3.664  16.081  0.00  0.00    +0.000 C 
ENDBRANCH  18  19
ENDBRANCH   7  18
TORSDOF 5
ENDMDL
