MODEL 1
REMARK VINA RESULT:    -7.723      0.000      0.000
REMARK INTER + INTRA:         -12.879
REMARK INTER:                 -12.012
REMARK INTRA:                  -0.867
REMARK UNBOUND:                -0.867
REMARK  Name = 
REMARK  10 active torsions:
REMARK  status: ('A' for Active; 'I' for Inactive)
REMARK    1  A    between atoms: N_1  and  C_2
REMARK    2  A    between atoms: C_2  and  C_3
REMARK    3  A    between atoms: C_3  and  N_4
REMARK    4  A    between atoms: C_3  and  C_20
REMARK    5  A    between atoms: N_4  and  C_5
REMARK    6  A    between atoms: C_5  and  C_6
REMARK    7  A    between atoms: C_9  and  C_10
REMARK    8  A    between atoms: C_10  and  C_11
REMARK    9  A    between atoms: C_11  and  N_12
REMARK   10  A    between atoms: N_12  and  C_13
REMARK                            x       y       z     vdW  Elec       q    Type
REMARK                         _______ _______ _______ _____ _____    ______ ____
ROOT
ATOM      1  N   UNL     1      48.219   4.679  15.574  0.00  0.00    +0.000 NA
ATOM      2  H   UNL     1      49.147   4.356  15.297  0.00  0.00    +0.000 HD
ENDROOT
BRANCH   1   3
ATOM      3  C   UNL     1      48.286   5.158  16.965  0.00  0.00    +0.000 C 
BRANCH   3   4
ATOM      4  C   UNL     1      49.717   4.925  17.436  0.00  0.00    +0.000 A 
ATOM      5  C   UNL     1      50.548   5.896  17.980  0.00  0.00    +0.000 A 
ATOM      6  S   UNL     1      52.098   5.310  18.395  0.00  0.00    +0.000 S 
ATOM      7  C   UNL     1      51.705   3.738  17.875  0.00  0.00    +0.000 A 
ATOM      8  N   UNL     1      52.608   2.722  17.971  0.00  0.00    +0.000 NA
ATOM      9  C   UNL     1      52.158   1.583  17.556  0.00  0.00    +0.000 A 
ATOM     10  N   UNL     1      50.901   1.367  17.047  0.00  0.00    +0.000 N 
ATOM     11  C   UNL     1      49.960   2.365  16.921  0.00  0.00    +0.000 A 
ATOM     12  O   UNL     1      48.843   2.131  16.473  0.00  0.00    +0.000 OA
ATOM     13  C   UNL     1      50.414   3.662  17.387  0.00  0.00    +0.000 A 
ATOM     14  H   UNL     1      50.616   0.449  16.743  0.00  0.00    +0.000 HD
ENDBRANCH   3   4
BRANCH   3  15
ATOM     15  C   UNL     1      47.248   4.452  17.895  0.00  0.00    +0.000 C 
BRANCH  15  16
ATOM     16  N   UNL     1      46.479   3.371  17.266  0.00  0.00    +0.000 NA
ATOM     17  H   UNL     1      45.828   2.992  17.951  0.00  0.00    +0.000 HD
ATOM     18  H   UNL     1      47.115   2.611  17.019  0.00  0.00    +0.000 HD
ENDBRANCH  15  16
ENDBRANCH   3  15
ENDBRANCH   1   3
BRANCH   1  19
ATOM     19  C   UNL     1      47.797   5.703  14.622  0.00  0.00    +0.000 C 
BRANCH  19  20
ATOM     20  C   UNL     1      46.766   5.144  13.676  0.00  0.00    +0.000 A 
ATOM     21  C   UNL     1      45.993   6.023  12.913  0.00  0.00    +0.000 A 
ATOM     22  C   UNL     1      45.058   5.533  12.009  0.00  0.00    +0.000 A 
ATOM     23  C   UNL     1      44.901   4.154  11.801  0.00  0.00    +0.000 A 
ATOM     24  C   UNL     1      45.663   3.274  12.583  0.00  0.00    +0.000 A 
ATOM     25  C   UNL     1      46.589   3.767  13.511  0.00  0.00    +0.000 A 
BRANCH  23  26
ATOM     26  C   UNL     1      43.922   3.607  10.770  0.00  0.00    +0.000 C 
BRANCH  26  27
ATOM     27  C   UNL     1      44.243   4.116   9.357  0.00  0.00    +0.000 C 
BRANCH  27  28
ATOM     28  N   UNL     1      44.563   3.084   8.369  0.00  0.00    +0.000 NA
ATOM     29  H   UNL     1      44.195   3.345   7.454  0.00  0.00    +0.000 HD
BRANCH  28  30
ATOM     30  C   UNL     1      46.027   2.890   8.278  0.00  0.00    +0.000 C 
ATOM     31  C   UNL     1      46.734   3.628   7.138  0.00  0.00    +0.000 C 
ATOM     32  C   UNL     1      46.733   2.632   6.002  0.00  0.00    +0.000 C 
ATOM     33  N   UNL     1      47.006   1.349   6.650  0.00  0.00    +0.000 NA
ATOM     34  C   UNL     1      46.371   1.415   7.982  0.00  0.00    +0.000 C 
ATOM     35  H   UNL     1      48.014   1.260   6.782  0.00  0.00    +0.000 HD
ENDBRANCH  28  30
ENDBRANCH  27  28
ENDBRANCH  26  27
ENDBRANCH  23  26
ENDBRANCH  19  20
ENDBRANCH   1  19
TORSDOF 10
ENDMDL
MODEL 2
REMARK VINA RESULT:    -7.115      1.069      1.608
REMARK INTER + INTRA:         -11.934
REMARK INTER:                 -11.036
REMARK INTRA:                  -0.898
REMARK UNBOUND:                -0.867
REMARK  Name = 
REMARK  10 active torsions:
REMARK  status: ('A' for Active; 'I' for Inactive)
REMARK    1  A    between atoms: N_1  and  C_2
REMARK    2  A    between atoms: C_2  and  C_3
REMARK    3  A    between atoms: C_3  and  N_4
REMARK    4  A    between atoms: C_3  and  C_20
REMARK    5  A    between atoms: N_4  and  C_5
REMARK    6  A    between atoms: C_5  and  C_6
REMARK    7  A    between atoms: C_9  and  C_10
REMARK    8  A    between atoms: C_10  and  C_11
REMARK    9  A    between atoms: C_11  and  N_12
REMARK   10  A    between atoms: N_12  and  C_13
REMARK                            x       y       z     vdW  Elec       q    Type
REMARK                         _______ _______ _______ _____ _____    ______ ____
ROOT
ATOM      1  N   UNL     1      48.734   5.078  16.106  0.00  0.00    +0.000 NA
ATOM      2  H   UNL     1      49.526   4.522  15.782  0.00  0.00    +0.000 HD
ENDROOT
BRANCH   1   3
ATOM      3  C   UNL     1      48.945   5.414  17.524  0.00  0.00    +0.000 C 
BRANCH   3   4
ATOM      4  C   UNL     1      50.324   4.883  17.895  0.00  0.00    +0.000 A 
ATOM      5  C   UNL     1      51.330   5.624  18.502  0.00  0.00    +0.000 A 
ATOM      6  S   UNL     1      52.762   4.735  18.772  0.00  0.00    +0.000 S 
ATOM      7  C   UNL     1      52.083   3.327  18.100  0.00  0.00    +0.000 A 
ATOM      8  N   UNL     1      52.794   2.167  18.037  0.00  0.00    +0.000 NA
ATOM      9  C   UNL     1      52.138   1.180  17.520  0.00  0.00    +0.000 A 
ATOM     10  N   UNL     1      50.849   1.246  17.052  0.00  0.00    +0.000 N 
ATOM     11  C   UNL     1      50.096   2.399  17.086  0.00  0.00    +0.000 A 
ATOM     12  O   UNL     1      48.942   2.416  16.670  0.00  0.00    +0.000 OA
ATOM     13  C   UNL     1      50.785   3.534  17.671  0.00  0.00    +0.000 A 
ATOM     14  H   UNL     1      50.397   0.433  16.662  0.00  0.00    +0.000 HD
ENDBRANCH   3   4
BRANCH   3  15
ATOM     15  C   UNL     1      47.832   4.830  18.452  0.00  0.00    +0.000 C 
BRANCH  15  16
ATOM     16  N   UNL     1      46.825   4.003  17.776  0.00  0.00    +0.000 NA
ATOM     17  H   UNL     1      46.854   4.202  16.778  0.00  0.00    +0.000 HD
ATOM     18  H   UNL     1      45.896   4.279  18.099  0.00  0.00    +0.000 HD
ENDBRANCH  15  16
ENDBRANCH   3  15
ENDBRANCH   1   3
BRANCH   1  19
ATOM     19  C   UNL     1      48.621   6.248  15.238  0.00  0.00    +0.000 C 
BRANCH  19  20
ATOM     20  C   UNL     1      47.564   6.020  14.189  0.00  0.00    +0.000 A 
ATOM     21  C   UNL     1      46.805   4.848  14.229  0.00  0.00    +0.000 A 
ATOM     22  C   UNL     1      45.802   4.627  13.292  0.00  0.00    +0.000 A 
ATOM     23  C   UNL     1      45.492   5.590  12.319  0.00  0.00    +0.000 A 
ATOM     24  C   UNL     1      46.268   6.756  12.269  0.00  0.00    +0.000 A 
ATOM     25  C   UNL     1      47.295   6.969  13.197  0.00  0.00    +0.000 A 
BRANCH  23  26
ATOM     26  C   UNL     1      44.355   5.386  11.326  0.00  0.00    +0.000 C 
BRANCH  26  27
ATOM     27  C   UNL     1      44.830   4.653  10.062  0.00  0.00    +0.000 C 
BRANCH  27  28
ATOM     28  N   UNL     1      44.945   3.199  10.179  0.00  0.00    +0.000 NA
ATOM     29  H   UNL     1      44.265   2.844  10.851  0.00  0.00    +0.000 HD
BRANCH  28  30
ATOM     30  C   UNL     1      44.726   2.555   8.865  0.00  0.00    +0.000 C 
ATOM     31  C   UNL     1      45.743   1.481   8.465  0.00  0.00    +0.000 C 
ATOM     32  C   UNL     1      46.794   2.243   7.692  0.00  0.00    +0.000 C 
ATOM     33  N   UNL     1      46.028   3.205   6.899  0.00  0.00    +0.000 NA
ATOM     34  C   UNL     1      44.859   3.580   7.719  0.00  0.00    +0.000 C 
ATOM     35  H   UNL     1      45.691   2.737   6.057  0.00  0.00    +0.000 HD
ENDBRANCH  28  30
ENDBRANCH  27  28
ENDBRANCH  26  27
ENDBRANCH  23  26
ENDBRANCH  19  20
ENDBRANCH   1  19
TORSDOF 10
ENDMDL
MODEL 3
REMARK VINA RESULT:    -6.958      1.800      2.485
REMARK INTER + INTRA:         -11.689
REMARK INTER:                 -10.799
REMARK INTRA:                  -0.890
REMARK UNBOUND:                -0.867
REMARK  Name = 
REMARK  10 active torsions:
REMARK  status: ('A' for Active; 'I' for Inactive)
REMARK    1  A    between atoms: N_1  and  C_2
REMARK    2  A    between atoms: C_2  and  C_3
REMARK    3  A    between atoms: C_3  and  N_4
REMARK    4  A    between atoms: C_3  and  C_20
REMARK    5  A    between atoms: N_4  and  C_5
REMARK    6  A    between atoms: C_5  and  C_6
REMARK    7  A    between atoms: C_9  and  C_10
REMARK    8  A    between atoms: C_10  and  C_11
REMARK    9  A    between atoms: C_11  and  N_12
REMARK   10  A    between atoms: N_12  and  C_13
REMARK                            x       y       z     vdW  Elec       q    Type
REMARK                         _______ _______ _______ _____ _____    ______ ____
ROOT
ATOM      1  N   UNL     1      47.893   4.593  15.393  0.00  0.00    +0.000 NA
ATOM      2  H   UNL     1      48.714   4.084  15.064  0.00  0.00    +0.000 HD
ENDROOT
BRANCH   1   3
ATOM      3  C   UNL     1      48.148   5.055  16.768  0.00  0.00    +0.000 C 
BRANCH   3   4
ATOM      4  C   UNL     1      49.583   4.665  17.097  0.00  0.00    +0.000 A 
ATOM      5  C   UNL     1      49.998   3.401  17.496  0.00  0.00    +0.000 A 
ATOM      6  S   UNL     1      51.675   3.299  17.800  0.00  0.00    +0.000 S 
ATOM      7  C   UNL     1      51.906   4.935  17.396  0.00  0.00    +0.000 A 
ATOM      8  N   UNL     1      53.146   5.499  17.433  0.00  0.00    +0.000 NA
ATOM      9  C   UNL     1      53.165   6.742  17.080  0.00  0.00    +0.000 A 
ATOM     10  N   UNL     1      52.066   7.476  16.707  0.00  0.00    +0.000 N 
ATOM     11  C   UNL     1      50.792   6.952  16.665  0.00  0.00    +0.000 A 
ATOM     12  O   UNL     1      49.837   7.635  16.314  0.00  0.00    +0.000 OA
ATOM     13  C   UNL     1      50.721   5.552  17.040  0.00  0.00    +0.000 A 
ATOM     14  H   UNL     1      52.155   8.444  16.441  0.00  0.00    +0.000 HD
ENDBRANCH   3   4
BRANCH   3  15
ATOM     15  C   UNL     1      47.135   4.461  17.799  0.00  0.00    +0.000 C 
BRANCH  15  16
ATOM     16  N   UNL     1      46.455   5.448  18.647  0.00  0.00    +0.000 NA
ATOM     17  H   UNL     1      45.616   5.021  19.037  0.00  0.00    +0.000 HD
ATOM     18  H   UNL     1      46.140   6.226  18.064  0.00  0.00    +0.000 HD
ENDBRANCH  15  16
ENDBRANCH   3  15
ENDBRANCH   1   3
BRANCH   1  19
ATOM     19  C   UNL     1      47.628   5.677  14.451  0.00  0.00    +0.000 C 
BRANCH  19  20
ATOM     20  C   UNL     1      46.710   5.204  13.354  0.00  0.00    +0.000 A 
ATOM     21  C   UNL     1      46.335   3.859  13.311  0.00  0.00    +0.000 A 
ATOM     22  C   UNL     1      45.464   3.402  12.330  0.00  0.00    +0.000 A 
ATOM     23  C   UNL     1      44.900   4.281  11.392  0.00  0.00    +0.000 A 
ATOM     24  C   UNL     1      45.293   5.626  11.425  0.00  0.00    +0.000 A 
ATOM     25  C   UNL     1      46.190   6.083  12.399  0.00  0.00    +0.000 A 
BRANCH  23  26
ATOM     26  C   UNL     1      43.897   3.803  10.350  0.00  0.00    +0.000 C 
BRANCH  26  27
ATOM     27  C   UNL     1      44.392   2.544   9.622  0.00  0.00    +0.000 C 
BRANCH  27  28
ATOM     28  N   UNL     1      44.755   2.727   8.216  0.00  0.00    +0.000 NA
ATOM     29  H   UNL     1      44.368   3.602   7.862  0.00  0.00    +0.000 HD
BRANCH  28  30
ATOM     30  C   UNL     1      46.226   2.737   8.059  0.00  0.00    +0.000 C 
ATOM     31  C   UNL     1      46.776   3.605   6.923  0.00  0.00    +0.000 C 
ATOM     32  C   UNL     1      46.857   2.660   5.746  0.00  0.00    +0.000 C 
ATOM     33  N   UNL     1      47.329   1.403   6.329  0.00  0.00    +0.000 NA
ATOM     34  C   UNL     1      46.752   1.334   7.686  0.00  0.00    +0.000 C 
ATOM     35  H   UNL     1      48.345   1.447   6.416  0.00  0.00    +0.000 HD
ENDBRANCH  28  30
ENDBRANCH  27  28
ENDBRANCH  26  27
ENDBRANCH  23  26
ENDBRANCH  19  20
ENDBRANCH   1  19
TORSDOF 10
ENDMDL
MODEL 4
REMARK VINA RESULT:    -6.929      2.028      2.570
REMARK INTER + INTRA:         -11.644
REMARK INTER:                 -10.668
REMARK INTRA:                  -0.976
REMARK UNBOUND:                -0.867
REMARK  Name = 
REMARK  10 active torsions:
REMARK  status: ('A' for Active; 'I' for Inactive)
REMARK    1  A    between atoms: N_1  and  C_2
REMARK    2  A    between atoms: C_2  and  C_3
REMARK    3  A    between atoms: C_3  and  N_4
REMARK    4  A    between atoms: C_3  and  C_20
REMARK    5  A    between atoms: N_4  and  C_5
REMARK    6  A    between atoms: C_5  and  C_6
REMARK    7  A    between atoms: C_9  and  C_10
REMARK    8  A    between atoms: C_10  and  C_11
REMARK    9  A    between atoms: C_11  and  N_12
REMARK   10  A    between atoms: N_12  and  C_13
REMARK                            x       y       z     vdW  Elec       q    Type
REMARK                         _______ _______ _______ _____ _____    ______ ____
ROOT
ATOM      1  N   UNL     1      47.882   6.699  14.865  0.00  0.00    +0.000 NA
ATOM      2  H   UNL     1      47.589   5.758  15.129  0.00  0.00    +0.000 HD
ENDROOT
BRANCH   1   3
ATOM      3  C   UNL     1      49.052   7.072  15.678  0.00  0.00    +0.000 C 
BRANCH   3   4
ATOM      4  C   UNL     1      49.321   5.900  16.614  0.00  0.00    +0.000 A 
ATOM      5  C   UNL     1      48.347   5.078  17.166  0.00  0.00    +0.000 A 
ATOM      6  S   UNL     1      48.981   3.862  18.184  0.00  0.00    +0.000 S 
ATOM      7  C   UNL     1      50.576   4.385  17.912  0.00  0.00    +0.000 A 
ATOM      8  N   UNL     1      51.632   3.748  18.491  0.00  0.00    +0.000 NA
ATOM      9  C   UNL     1      52.782   4.246  18.173  0.00  0.00    +0.000 A 
ATOM     10  N   UNL     1      52.974   5.324  17.344  0.00  0.00    +0.000 N 
ATOM     11  C   UNL     1      51.938   6.005  16.745  0.00  0.00    +0.000 A 
ATOM     12  O   UNL     1      52.151   6.956  16.000  0.00  0.00    +0.000 OA
ATOM     13  C   UNL     1      50.625   5.474  17.061  0.00  0.00    +0.000 A 
ATOM     14  H   UNL     1      53.903   5.659  17.138  0.00  0.00    +0.000 HD
ENDBRANCH   3   4
BRANCH   3  15
ATOM     15  C   UNL     1      48.839   8.405  16.464  0.00  0.00    +0.000 C 
BRANCH  15  16
ATOM     16  N   UNL     1      47.668   9.191  16.055  0.00  0.00    +0.000 NA
ATOM     17  H   UNL     1      47.977  10.127  15.798  0.00  0.00    +0.000 HD
ATOM     18  H   UNL     1      47.046   9.303  16.858  0.00  0.00    +0.000 HD
ENDBRANCH  15  16
ENDBRANCH   3  15
ENDBRANCH   1   3
BRANCH   1  19
ATOM     19  C   UNL     1      48.142   6.703  13.428  0.00  0.00    +0.000 C 
BRANCH  19  20
ATOM     20  C   UNL     1      46.990   6.075  12.687  0.00  0.00    +0.000 A 
ATOM     21  C   UNL     1      46.746   6.448  11.362  0.00  0.00    +0.000 A 
ATOM     22  C   UNL     1      45.711   5.861  10.645  0.00  0.00    +0.000 A 
ATOM     23  C   UNL     1      44.921   4.847  11.209  0.00  0.00    +0.000 A 
ATOM     24  C   UNL     1      45.155   4.488  12.543  0.00  0.00    +0.000 A 
ATOM     25  C   UNL     1      46.183   5.097  13.275  0.00  0.00    +0.000 A 
BRANCH  23  26
ATOM     26  C   UNL     1      43.823   4.153  10.412  0.00  0.00    +0.000 C 
BRANCH  26  27
ATOM     27  C   UNL     1      44.290   2.797   9.863  0.00  0.00    +0.000 C 
BRANCH  27  28
ATOM     28  N   UNL     1      44.638   2.775   8.441  0.00  0.00    +0.000 NA
ATOM     29  H   UNL     1      44.247   3.591   7.970  0.00  0.00    +0.000 HD
BRANCH  28  30
ATOM     30  C   UNL     1      46.107   2.758   8.268  0.00  0.00    +0.000 C 
ATOM     31  C   UNL     1      46.658   3.605   7.118  0.00  0.00    +0.000 C 
ATOM     32  C   UNL     1      46.710   2.648   5.950  0.00  0.00    +0.000 C 
ATOM     33  N   UNL     1      47.166   1.389   6.539  0.00  0.00    +0.000 NA
ATOM     34  C   UNL     1      46.603   1.342   7.903  0.00  0.00    +0.000 C 
ATOM     35  H   UNL     1      48.184   1.415   6.614  0.00  0.00    +0.000 HD
ENDBRANCH  28  30
ENDBRANCH  27  28
ENDBRANCH  26  27
ENDBRANCH  23  26
ENDBRANCH  19  20
ENDBRANCH   1  19
TORSDOF 10
ENDMDL
MODEL 5
REMARK VINA RESULT:    -6.812      2.735      4.067
REMARK INTER + INTRA:         -11.462
REMARK INTER:                 -10.151
REMARK INTRA:                  -1.311
REMARK UNBOUND:                -0.867
REMARK  Name = 
REMARK  10 active torsions:
REMARK  status: ('A' for Active; 'I' for Inactive)
REMARK    1  A    between atoms: N_1  and  C_2
REMARK    2  A    between atoms: C_2  and  C_3
REMARK    3  A    between atoms: C_3  and  N_4
REMARK    4  A    between atoms: C_3  and  C_20
REMARK    5  A    between atoms: N_4  and  C_5
REMARK    6  A    between atoms: C_5  and  C_6
REMARK    7  A    between atoms: C_9  and  C_10
REMARK    8  A    between atoms: C_10  and  C_11
REMARK    9  A    between atoms: C_11  and  N_12
REMARK   10  A    between atoms: N_12  and  C_13
REMARK                            x       y       z     vdW  Elec       q    Type
REMARK                         _______ _______ _______ _____ _____    ______ ____
ROOT
ATOM      1  N   UNL     1      49.589   6.656  14.211  0.00  0.00    +0.000 NA
ATOM      2  H   UNL     1      50.180   6.187  13.524  0.00  0.00    +0.000 HD
ENDROOT
BRANCH   1   3
ATOM      3  C   UNL     1      50.447   7.466  15.092  0.00  0.00    +0.000 C 
BRANCH   3   4
ATOM      4  C   UNL     1      49.551   7.990  16.207  0.00  0.00    +0.000 A 
ATOM      5  C   UNL     1      49.256   9.329  16.434  0.00  0.00    +0.000 A 
ATOM      6  S   UNL     1      48.228   9.581  17.775  0.00  0.00    +0.000 S 
ATOM      7  C   UNL     1      48.132   7.912  18.088  0.00  0.00    +0.000 A 
ATOM      8  N   UNL     1      47.380   7.434  19.119  0.00  0.00    +0.000 NA
ATOM      9  C   UNL     1      47.389   6.145  19.218  0.00  0.00    +0.000 A 
ATOM     10  N   UNL     1      48.084   5.294  18.396  0.00  0.00    +0.000 N 
ATOM     11  C   UNL     1      48.865   5.731  17.349  0.00  0.00    +0.000 A 
ATOM     12  O   UNL     1      49.462   4.939  16.628  0.00  0.00    +0.000 OA
ATOM     13  C   UNL     1      48.877   7.173  17.188  0.00  0.00    +0.000 A 
ATOM     14  H   UNL     1      48.044   4.295  18.531  0.00  0.00    +0.000 HD
ENDBRANCH   3   4
BRANCH   3  15
ATOM     15  C   UNL     1      51.164   8.627  14.331  0.00  0.00    +0.000 C 
BRANCH  15  16
ATOM     16  N   UNL     1      52.209   8.205  13.390  0.00  0.00    +0.000 NA
ATOM     17  H   UNL     1      52.670   9.035  13.020  0.00  0.00    +0.000 HD
ATOM     18  H   UNL     1      51.771   7.738  12.594  0.00  0.00    +0.000 HD
ENDBRANCH  15  16
ENDBRANCH   3  15
ENDBRANCH   1   3
BRANCH   1  19
ATOM     19  C   UNL     1      48.590   7.438  13.487  0.00  0.00    +0.000 C 
BRANCH  19  20
ATOM     20  C   UNL     1      47.299   6.668  13.382  0.00  0.00    +0.000 A 
ATOM     21  C   UNL     1      46.240   7.209  12.649  0.00  0.00    +0.000 A 
ATOM     22  C   UNL     1      45.050   6.505  12.509  0.00  0.00    +0.000 A 
ATOM     23  C   UNL     1      44.897   5.219  13.051  0.00  0.00    +0.000 A 
ATOM     24  C   UNL     1      45.954   4.687  13.802  0.00  0.00    +0.000 A 
ATOM     25  C   UNL     1      47.146   5.406  13.965  0.00  0.00    +0.000 A 
BRANCH  23  26
ATOM     26  C   UNL     1      43.619   4.414  12.852  0.00  0.00    +0.000 C 
BRANCH  26  27
ATOM     27  C   UNL     1      43.919   2.976  12.401  0.00  0.00    +0.000 C 
BRANCH  27  28
ATOM     28  N   UNL     1      44.899   2.842  11.323  0.00  0.00    +0.000 NA
ATOM     29  H   UNL     1      45.409   1.964  11.416  0.00  0.00    +0.000 HD
BRANCH  28  30
ATOM     30  C   UNL     1      44.229   2.888  10.005  0.00  0.00    +0.000 C 
ATOM     31  C   UNL     1      44.776   1.936   8.938  0.00  0.00    +0.000 C 
ATOM     32  C   UNL     1      45.816   2.757   8.213  0.00  0.00    +0.000 C 
ATOM     33  N   UNL     1      45.217   4.088   8.116  0.00  0.00    +0.000 NA
ATOM     34  C   UNL     1      44.411   4.269   9.340  0.00  0.00    +0.000 C 
ATOM     35  H   UNL     1      44.587   4.104   7.313  0.00  0.00    +0.000 HD
ENDBRANCH  28  30
ENDBRANCH  27  28
ENDBRANCH  26  27
ENDBRANCH  23  26
ENDBRANCH  19  20
ENDBRANCH   1  19
TORSDOF 10
ENDMDL
MODEL 6
REMARK VINA RESULT:    -6.756      2.209      3.059
REMARK INTER + INTRA:         -11.375
REMARK INTER:                 -10.237
REMARK INTRA:                  -1.138
REMARK UNBOUND:                -0.867
REMARK  Name = 
REMARK  10 active torsions:
REMARK  status: ('A' for Active; 'I' for Inactive)
REMARK    1  A    between atoms: N_1  and  C_2
REMARK    2  A    between atoms: C_2  and  C_3
REMARK    3  A    between atoms: C_3  and  N_4
REMARK    4  A    between atoms: C_3  and  C_20
REMARK    5  A    between atoms: N_4  and  C_5
REMARK    6  A    between atoms: C_5  and  C_6
REMARK    7  A    between atoms: C_9  and  C_10
REMARK    8  A    between atoms: C_10  and  C_11
REMARK    9  A    between atoms: C_11  and  N_12
REMARK   10  A    between atoms: N_12  and  C_13
REMARK                            x       y       z     vdW  Elec       q    Type
REMARK                         _______ _______ _______ _____ _____    ______ ____
ROOT
ATOM      1  N   UNL     1      48.101   6.463  14.913  0.00  0.00    +0.000 NA
ATOM      2  H   UNL     1      48.139   5.445  14.852  0.00  0.00    +0.000 HD
ENDROOT
BRANCH   1   3
ATOM      3  C   UNL     1      49.267   6.930  15.682  0.00  0.00    +0.000 C 
BRANCH   3   4
ATOM      4  C   UNL     1      48.833   6.977  17.142  0.00  0.00    +0.000 A 
ATOM      5  C   UNL     1      48.377   8.108  17.806  0.00  0.00    +0.000 A 
ATOM      6  S   UNL     1      47.982   7.825  19.442  0.00  0.00    +0.000 S 
ATOM      7  C   UNL     1      48.393   6.179  19.316  0.00  0.00    +0.000 A 
ATOM      8  N   UNL     1      48.269   5.341  20.383  0.00  0.00    +0.000 NA
ATOM      9  C   UNL     1      48.600   4.118  20.128  0.00  0.00    +0.000 A 
ATOM     10  N   UNL     1      49.052   3.657  18.916  0.00  0.00    +0.000 N 
ATOM     11  C   UNL     1      49.203   4.468  17.813  0.00  0.00    +0.000 A 
ATOM     12  O   UNL     1      49.598   4.018  16.743  0.00  0.00    +0.000 OA
ATOM     13  C   UNL     1      48.831   5.852  18.046  0.00  0.00    +0.000 A 
ATOM     14  H   UNL     1      49.291   2.686  18.787  0.00  0.00    +0.000 HD
ENDBRANCH   3   4
BRANCH   3  15
ATOM     15  C   UNL     1      49.796   8.315  15.190  0.00  0.00    +0.000 C 
BRANCH  15  16
ATOM     16  N   UNL     1      51.214   8.576  15.465  0.00  0.00    +0.000 NA
ATOM     17  H   UNL     1      51.777   7.907  14.942  0.00  0.00    +0.000 HD
ATOM     18  H   UNL     1      51.399   8.400  16.454  0.00  0.00    +0.000 HD
ENDBRANCH  15  16
ENDBRANCH   3  15
ENDBRANCH   1   3
BRANCH   1  19
ATOM     19  C   UNL     1      48.045   6.994  13.554  0.00  0.00    +0.000 C 
BRANCH  19  20
ATOM     20  C   UNL     1      46.990   6.274  12.754  0.00  0.00    +0.000 A 
ATOM     21  C   UNL     1      46.251   5.255  13.361  0.00  0.00    +0.000 A 
ATOM     22  C   UNL     1      45.251   4.597  12.657  0.00  0.00    +0.000 A 
ATOM     23  C   UNL     1      44.920   4.969  11.344  0.00  0.00    +0.000 A 
ATOM     24  C   UNL     1      45.676   5.978  10.731  0.00  0.00    +0.000 A 
ATOM     25  C   UNL     1      46.701   6.626  11.432  0.00  0.00    +0.000 A 
BRANCH  23  26
ATOM     26  C   UNL     1      43.785   4.296  10.584  0.00  0.00    +0.000 C 
BRANCH  26  27
ATOM     27  C   UNL     1      44.148   2.861  10.174  0.00  0.00    +0.000 C 
BRANCH  27  28
ATOM     28  N   UNL     1      44.467   2.668   8.759  0.00  0.00    +0.000 NA
ATOM     29  H   UNL     1      44.007   3.381   8.193  0.00  0.00    +0.000 HD
BRANCH  28  30
ATOM     30  C   UNL     1      45.929   2.732   8.545  0.00  0.00    +0.000 C 
ATOM     31  C   UNL     1      46.417   3.781   7.542  0.00  0.00    +0.000 C 
ATOM     32  C   UNL     1      46.458   3.040   6.227  0.00  0.00    +0.000 C 
ATOM     33  N   UNL     1      46.971   1.715   6.578  0.00  0.00    +0.000 NA
ATOM     34  C   UNL     1      46.455   1.417   7.929  0.00  0.00    +0.000 C 
ATOM     35  H   UNL     1      47.990   1.764   6.629  0.00  0.00    +0.000 HD
ENDBRANCH  28  30
ENDBRANCH  27  28
ENDBRANCH  26  27
ENDBRANCH  23  26
ENDBRANCH  19  20
ENDBRANCH   1  19
TORSDOF 10
ENDMDL
MODEL 7
REMARK VINA RESULT:    -6.686      3.510      8.770
REMARK INTER + INTRA:         -11.266
REMARK INTER:                 -10.061
REMARK INTRA:                  -1.205
REMARK UNBOUND:                -0.867
REMARK  Name = 
REMARK  10 active torsions:
REMARK  status: ('A' for Active; 'I' for Inactive)
REMARK    1  A    between atoms: N_1  and  C_2
REMARK    2  A    between atoms: C_2  and  C_3
REMARK    3  A    between atoms: C_3  and  N_4
REMARK    4  A    between atoms: C_3  and  C_20
REMARK    5  A    between atoms: N_4  and  C_5
REMARK    6  A    between atoms: C_5  and  C_6
REMARK    7  A    between atoms: C_9  and  C_10
REMARK    8  A    between atoms: C_10  and  C_11
REMARK    9  A    between atoms: C_11  and  N_12
REMARK   10  A    between atoms: N_12  and  C_13
REMARK                            x       y       z     vdW  Elec       q    Type
REMARK                         _______ _______ _______ _____ _____    ______ ____
ROOT
ATOM      1  N   UNL     1      47.462   7.006  11.569  0.00  0.00    +0.000 NA
ATOM      2  H   UNL     1      47.919   6.188  11.974  0.00  0.00    +0.000 HD
ENDROOT
BRANCH   1   3
ATOM      3  C   UNL     1      46.011   6.892  11.795  0.00  0.00    +0.000 C 
BRANCH   3   4
ATOM      4  C   UNL     1      45.531   5.720  10.948  0.00  0.00    +0.000 A 
ATOM      5  C   UNL     1      45.780   5.558   9.591  0.00  0.00    +0.000 A 
ATOM      6  S   UNL     1      45.090   4.140   8.937  0.00  0.00    +0.000 S 
ATOM      7  C   UNL     1      44.448   3.688  10.446  0.00  0.00    +0.000 A 
ATOM      8  N   UNL     1      43.738   2.534  10.589  0.00  0.00    +0.000 NA
ATOM      9  C   UNL     1      43.333   2.316  11.797  0.00  0.00    +0.000 A 
ATOM     10  N   UNL     1      43.559   3.144  12.869  0.00  0.00    +0.000 N 
ATOM     11  C   UNL     1      44.262   4.325  12.770  0.00  0.00    +0.000 A 
ATOM     12  O   UNL     1      44.455   5.032  13.753  0.00  0.00    +0.000 OA
ATOM     13  C   UNL     1      44.750   4.608  11.433  0.00  0.00    +0.000 A 
ATOM     14  H   UNL     1      43.214   2.909  13.787  0.00  0.00    +0.000 HD
ENDBRANCH   3   4
BRANCH   3  15
ATOM     15  C   UNL     1      45.244   8.209  11.451  0.00  0.00    +0.000 C 
BRANCH  15  16
ATOM     16  N   UNL     1      43.793   8.061  11.283  0.00  0.00    +0.000 NA
ATOM     17  H   UNL     1      43.343   8.938  11.543  0.00  0.00    +0.000 HD
ATOM     18  H   UNL     1      43.453   7.356  11.939  0.00  0.00    +0.000 HD
ENDBRANCH  15  16
ENDBRANCH   3  15
ENDBRANCH   1   3
BRANCH   1  19
ATOM     19  C   UNL     1      48.057   8.197  12.170  0.00  0.00    +0.000 C 
BRANCH  19  20
ATOM     20  C   UNL     1      48.838   7.826  13.404  0.00  0.00    +0.000 A 
ATOM     21  C   UNL     1      48.255   6.979  14.350  0.00  0.00    +0.000 A 
ATOM     22  C   UNL     1      48.965   6.594  15.481  0.00  0.00    +0.000 A 
ATOM     23  C   UNL     1      50.295   7.000  15.678  0.00  0.00    +0.000 A 
ATOM     24  C   UNL     1      50.870   7.865  14.737  0.00  0.00    +0.000 A 
ATOM     25  C   UNL     1      50.147   8.273  13.608  0.00  0.00    +0.000 A 
BRANCH  23  26
ATOM     26  C   UNL     1      51.103   6.535  16.883  0.00  0.00    +0.000 C 
BRANCH  26  27
ATOM     27  C   UNL     1      50.206   5.904  17.959  0.00  0.00    +0.000 C 
BRANCH  27  28
ATOM     28  N   UNL     1      50.151   4.441  17.959  0.00  0.00    +0.000 NA
ATOM     29  H   UNL     1      50.971   4.058  18.429  0.00  0.00    +0.000 HD
BRANCH  28  30
ATOM     30  C   UNL     1      48.924   3.969  18.637  0.00  0.00    +0.000 C 
ATOM     31  C   UNL     1      48.061   2.977  17.852  0.00  0.00    +0.000 C 
ATOM     32  C   UNL     1      47.076   3.853  17.115  0.00  0.00    +0.000 C 
ATOM     33  N   UNL     1      46.729   4.895  18.082  0.00  0.00    +0.000 NA
ATOM     34  C   UNL     1      47.945   5.137  18.884  0.00  0.00    +0.000 C 
ATOM     35  H   UNL     1      46.004   4.534  18.703  0.00  0.00    +0.000 HD
ENDBRANCH  28  30
ENDBRANCH  27  28
ENDBRANCH  26  27
ENDBRANCH  23  26
ENDBRANCH  19  20
ENDBRANCH   1  19
TORSDOF 10
ENDMDL
MODEL 8
REMARK VINA RESULT:    -6.630      3.371      8.971
REMARK INTER + INTRA:         -11.179
REMARK INTER:                 -10.277
REMARK INTRA:                  -0.902
REMARK UNBOUND:                -0.867
REMARK  Name = 
REMARK  10 active torsions:
REMARK  status: ('A' for Active; 'I' for Inactive)
REMARK    1  A    between atoms: N_1  and  C_2
REMARK    2  A    between atoms: C_2  and  C_3
REMARK    3  A    between atoms: C_3  and  N_4
REMARK    4  A    between atoms: C_3  and  C_20
REMARK    5  A    between atoms: N_4  and  C_5
REMARK    6  A    between atoms: C_5  and  C_6
REMARK    7  A    between atoms: C_9  and  C_10
REMARK    8  A    between atoms: C_10  and  C_11
REMARK    9  A    between atoms: C_11  and  N_12
REMARK   10  A    between atoms: N_12  and  C_13
REMARK                            x       y       z     vdW  Elec       q    Type
REMARK                         _______ _______ _______ _____ _____    ______ ____
ROOT
ATOM      1  N   UNL     1      46.760   6.286  11.731  0.00  0.00    +0.000 NA
ATOM      2  H   UNL     1      47.156   5.542  12.307  0.00  0.00    +0.000 HD
ENDROOT
BRANCH   1   3
ATOM      3  C   UNL     1      45.322   6.392  12.027  0.00  0.00    +0.000 C 
BRANCH   3   4
ATOM      4  C   UNL     1      44.720   5.019  11.756  0.00  0.00    +0.000 A 
ATOM      5  C   UNL     1      43.980   4.276  12.666  0.00  0.00    +0.000 A 
ATOM      6  S   UNL     1      43.459   2.770  12.052  0.00  0.00    +0.000 S 
ATOM      7  C   UNL     1      44.193   3.066  10.546  0.00  0.00    +0.000 A 
ATOM      8  N   UNL     1      44.110   2.157   9.535  0.00  0.00    +0.000 NA
ATOM      9  C   UNL     1      44.699   2.531   8.446  0.00  0.00    +0.000 A 
ATOM     10  N   UNL     1      45.369   3.717   8.278  0.00  0.00    +0.000 N 
ATOM     11  C   UNL     1      45.488   4.661   9.274  0.00  0.00    +0.000 A 
ATOM     12  O   UNL     1      46.084   5.716   9.082  0.00  0.00    +0.000 OA
ATOM     13  C   UNL     1      44.831   4.292  10.514  0.00  0.00    +0.000 A 
ATOM     14  H   UNL     1      45.805   3.946   7.397  0.00  0.00    +0.000 HD
ENDBRANCH   3   4
BRANCH   3  15
ATOM     15  C   UNL     1      44.617   7.508  11.192  0.00  0.00    +0.000 C 
BRANCH  15  16
ATOM     16  N   UNL     1      43.149   7.468  11.207  0.00  0.00    +0.000 NA
ATOM     17  H   UNL     1      42.823   7.110  10.310  0.00  0.00    +0.000 HD
ATOM     18  H   UNL     1      42.791   8.421  11.285  0.00  0.00    +0.000 HD
ENDBRANCH  15  16
ENDBRANCH   3  15
ENDBRANCH   1   3
BRANCH   1  19
ATOM     19  C   UNL     1      47.506   7.512  12.004  0.00  0.00    +0.000 C 
BRANCH  19  20
ATOM     20  C   UNL     1      48.368   7.338  13.228  0.00  0.00    +0.000 A 
ATOM     21  C   UNL     1      47.945   6.475  14.242  0.00  0.00    +0.000 A 
ATOM     22  C   UNL     1      48.736   6.272  15.367  0.00  0.00    +0.000 A 
ATOM     23  C   UNL     1      49.993   6.883  15.492  0.00  0.00    +0.000 A 
ATOM     24  C   UNL     1      50.406   7.763  14.482  0.00  0.00    +0.000 A 
ATOM     25  C   UNL     1      49.599   7.987  13.359  0.00  0.00    +0.000 A 
BRANCH  23  26
ATOM     26  C   UNL     1      50.895   6.620  16.691  0.00  0.00    +0.000 C 
BRANCH  26  27
ATOM     27  C   UNL     1      50.093   6.133  17.908  0.00  0.00    +0.000 C 
BRANCH  27  28
ATOM     28  N   UNL     1      50.150   4.695  18.170  0.00  0.00    +0.000 NA
ATOM     29  H   UNL     1      50.965   4.472  18.742  0.00  0.00    +0.000 HD
BRANCH  28  30
ATOM     30  C   UNL     1      48.921   4.245  18.860  0.00  0.00    +0.000 C 
ATOM     31  C   UNL     1      48.195   3.051  18.233  0.00  0.00    +0.000 C 
ATOM     32  C   UNL     1      47.196   3.683  17.293  0.00  0.00    +0.000 C 
ATOM     33  N   UNL     1      46.702   4.849  18.027  0.00  0.00    +0.000 NA
ATOM     34  C   UNL     1      47.837   5.344  18.830  0.00  0.00    +0.000 C 
ATOM     35  H   UNL     1      45.967   4.543  18.666  0.00  0.00    +0.000 HD
ENDBRANCH  28  30
ENDBRANCH  27  28
ENDBRANCH  26  27
ENDBRANCH  23  26
ENDBRANCH  19  20
ENDBRANCH   1  19
TORSDOF 10
ENDMDL
MODEL 9
REMARK VINA RESULT:    -6.508      2.290      3.269
REMARK INTER + INTRA:         -10.989
REMARK INTER:                 -10.354
REMARK INTRA:                  -0.636
REMARK UNBOUND:                -0.867
REMARK  Name = 
REMARK  10 active torsions:
REMARK  status: ('A' for Active; 'I' for Inactive)
REMARK    1  A    between atoms: N_1  and  C_2
REMARK    2  A    between atoms: C_2  and  C_3
REMARK    3  A    between atoms: C_3  and  N_4
REMARK    4  A    between atoms: C_3  and  C_20
REMARK    5  A    between atoms: N_4  and  C_5
REMARK    6  A    between atoms: C_5  and  C_6
REMARK    7  A    between atoms: C_9  and  C_10
REMARK    8  A    between atoms: C_10  and  C_11
REMARK    9  A    between atoms: C_11  and  N_12
REMARK   10  A    between atoms: N_12  and  C_13
REMARK                            x       y       z     vdW  Elec       q    Type
REMARK                         _______ _______ _______ _____ _____    ______ ____
ROOT
ATOM      1  N   UNL     1      49.333   5.592  16.167  0.00  0.00    +0.000 NA
ATOM      2  H   UNL     1      50.270   5.308  15.880  0.00  0.00    +0.000 HD
ENDROOT
BRANCH   1   3
ATOM      3  C   UNL     1      49.278   5.610  17.638  0.00  0.00    +0.000 C 
BRANCH   3   4
ATOM      4  C   UNL     1      50.533   4.897  18.127  0.00  0.00    +0.000 A 
ATOM      5  C   UNL     1      51.511   5.462  18.934  0.00  0.00    +0.000 A 
ATOM      6  S   UNL     1      52.796   4.396  19.294  0.00  0.00    +0.000 S 
ATOM      7  C   UNL     1      52.082   3.141  18.396  0.00  0.00    +0.000 A 
ATOM      8  N   UNL     1      52.677   1.918  18.304  0.00  0.00    +0.000 NA
ATOM      9  C   UNL     1      52.006   1.062  17.606  0.00  0.00    +0.000 A 
ATOM     10  N   UNL     1      50.808   1.315  16.984  0.00  0.00    +0.000 N 
ATOM     11  C   UNL     1      50.175   2.537  17.040  0.00  0.00    +0.000 A 
ATOM     12  O   UNL     1      49.099   2.721  16.481  0.00  0.00    +0.000 OA
ATOM     13  C   UNL     1      50.885   3.530  17.825  0.00  0.00    +0.000 A 
ATOM     14  H   UNL     1      50.337   0.596  16.455  0.00  0.00    +0.000 HD
ENDBRANCH   3   4
BRANCH   3  15
ATOM     15  C   UNL     1      47.979   4.948  18.199  0.00  0.00    +0.000 C 
BRANCH  15  16
ATOM     16  N   UNL     1      47.921   4.827  19.661  0.00  0.00    +0.000 NA
ATOM     17  H   UNL     1      47.033   5.208  19.985  0.00  0.00    +0.000 HD
ATOM     18  H   UNL     1      48.652   5.410  20.073  0.00  0.00    +0.000 HD
ENDBRANCH  15  16
ENDBRANCH   3  15
ENDBRANCH   1   3
BRANCH   1  19
ATOM     19  C   UNL     1      49.049   6.888  15.555  0.00  0.00    +0.000 C 
BRANCH  19  20
ATOM     20  C   UNL     1      48.218   6.708  14.311  0.00  0.00    +0.000 A 
ATOM     21  C   UNL     1      48.166   7.739  13.370  0.00  0.00    +0.000 A 
ATOM     22  C   UNL     1      47.433   7.586  12.199  0.00  0.00    +0.000 A 
ATOM     23  C   UNL     1      46.772   6.383  11.907  0.00  0.00    +0.000 A 
ATOM     24  C   UNL     1      46.809   5.358  12.861  0.00  0.00    +0.000 A 
ATOM     25  C   UNL     1      47.528   5.519  14.053  0.00  0.00    +0.000 A 
BRANCH  23  26
ATOM     26  C   UNL     1      46.017   6.183  10.599  0.00  0.00    +0.000 C 
BRANCH  26  27
ATOM     27  C   UNL     1      45.281   4.835  10.569  0.00  0.00    +0.000 C 
BRANCH  27  28
ATOM     28  N   UNL     1      43.933   4.861  10.001  0.00  0.00    +0.000 NA
ATOM     29  H   UNL     1      43.906   4.331   9.130  0.00  0.00    +0.000 HD
BRANCH  28  30
ATOM     30  C   UNL     1      42.957   4.293  10.957  0.00  0.00    +0.000 C 
ATOM     31  C   UNL     1      42.333   5.281  11.947  0.00  0.00    +0.000 C 
ATOM     32  C   UNL     1      43.245   5.220  13.150  0.00  0.00    +0.000 C 
ATOM     33  N   UNL     1      43.583   3.801  13.270  0.00  0.00    +0.000 NA
ATOM     34  C   UNL     1      43.634   3.269  11.894  0.00  0.00    +0.000 C 
ATOM     35  H   UNL     1      42.829   3.328  13.768  0.00  0.00    +0.000 HD
ENDBRANCH  28  30
ENDBRANCH  27  28
ENDBRANCH  26  27
ENDBRANCH  23  26
ENDBRANCH  19  20
ENDBRANCH   1  19
TORSDOF 10
ENDMDL
