MODEL 1
REMARK VINA RESULT:    -7.655      0.000      0.000
REMARK INTER + INTRA:         -10.317
REMARK INTER:                  -9.669
REMARK INTRA:                  -0.648
REMARK UNBOUND:                -0.648
REMARK  Name = 
REMARK  5 active torsions:
REMARK  status: ('A' for Active; 'I' for Inactive)
REMARK    1  A    between atoms: N_1  and  C_2
REMARK    2  A    between atoms: C_2  and  C_3
REMARK    3  A    between atoms: C_3  and  C_4
REMARK    4  A    between atoms: C_7  and  C_8
REMARK    5  A    between atoms: C_8  and  N_9
REMARK                            x       y       z     vdW  Elec       q    Type
REMARK                         _______ _______ _______ _____ _____    ______ ____
ROOT
ATOM      1  C   UNL     1      45.952   2.540   8.171  0.00  0.00    +0.000 A 
ATOM      2  C   UNL     1      45.053   1.952   9.066  0.00  0.00    +0.000 A 
ATOM      3  C   UNL     1      44.268   2.746   9.898  0.00  0.00    +0.000 A 
ATOM      4  C   UNL     1      44.359   4.145   9.855  0.00  0.00    +0.000 A 
ATOM      5  C   UNL     1      45.254   4.731   8.954  0.00  0.00    +0.000 A 
ATOM      6  C   UNL     1      46.044   3.938   8.105  0.00  0.00    +0.000 A 
ENDROOT
BRANCH   1   7
ATOM      7  C   UNL     1      46.814   1.677   7.281  0.00  0.00    +0.000 C 
BRANCH   7   8
ATOM      8  C   UNL     1      48.036   2.403   6.724  0.00  0.00    +0.000 C 
BRANCH   8   9
ATOM      9  N   UNL     1      48.487   1.803   5.460  0.00  0.00    +0.000 NA
ATOM     10  H   UNL     1      49.303   1.214   5.637  0.00  0.00    +0.000 HD
ATOM     11  H   UNL     1      48.802   2.535   4.825  0.00  0.00    +0.000 HD
ENDBRANCH   8   9
ENDBRANCH   7   8
ENDBRANCH   1   7
BRANCH   4  12
ATOM     12  C   UNL     1      43.490   5.004  10.745  0.00  0.00    +0.000 C 
BRANCH  12  13
ATOM     13  N   UNL     1      44.245   5.956  11.557  0.00  0.00    +0.000 N 
ATOM     14  C   UNL     1      44.343   7.298  11.272  0.00  0.00    +0.000 A 
ATOM     15  C   UNL     1      45.193   7.867  12.190  0.00  0.00    +0.000 A 
ATOM     16  C   UNL     1      45.896   6.799  12.797  0.00  0.00    +0.000 A 
ATOM     17  C   UNL     1      47.088   6.722  13.541  0.00  0.00    +0.000 A 
ATOM     18  C   UNL     1      47.516   5.483  14.020  0.00  0.00    +0.000 A 
ATOM     19  C   UNL     1      46.718   4.353  13.862  0.00  0.00    +0.000 A 
ATOM     20  C   UNL     1      45.532   4.402  13.120  0.00  0.00    +0.000 A 
ATOM     21  C   UNL     1      45.188   5.624  12.518  0.00  0.00    +0.000 A 
ENDBRANCH  12  13
ENDBRANCH   4  12
TORSDOF 5
ENDMDL
MODEL 2
REMARK VINA RESULT:    -6.987      1.187      2.446
REMARK INTER + INTRA:          -9.472
REMARK INTER:                  -8.893
REMARK INTRA:                  -0.579
REMARK UNBOUND:                -0.648
REMARK  Name = 
REMARK  5 active torsions:
REMARK  status: ('A' for Active; 'I' for Inactive)
REMARK    1  A    between atoms: N_1  and  C_2
REMARK    2  A    between atoms: C_2  and  C_3
REMARK    3  A    between atoms: C_3  and  C_4
REMARK    4  A    between atoms: C_7  and  C_8
REMARK    5  A    between atoms: C_8  and  N_9
REMARK                            x       y       z     vdW  Elec       q    Type
REMARK                         _______ _______ _______ _____ _____    ______ ____
ROOT
ATOM      1  C   UNL     1      45.876   2.943   7.855  0.00  0.00    +0.000 A 
ATOM      2  C   UNL     1      46.101   4.320   7.933  0.00  0.00    +0.000 A 
ATOM      3  C   UNL     1      45.736   5.031   9.074  0.00  0.00    +0.000 A 
ATOM      4  C   UNL     1      45.141   4.382  10.166  0.00  0.00    +0.000 A 
ATOM      5  C   UNL     1      44.922   3.002  10.089  0.00  0.00    +0.000 A 
ATOM      6  C   UNL     1      45.295   2.277   8.945  0.00  0.00    +0.000 A 
ENDROOT
BRANCH   1   7
ATOM      7  C   UNL     1      46.257   2.179   6.611  0.00  0.00    +0.000 C 
BRANCH   7   8
ATOM      8  C   UNL     1      47.552   1.382   6.755  0.00  0.00    +0.000 C 
BRANCH   8   9
ATOM      9  N   UNL     1      48.543   1.781   5.745  0.00  0.00    +0.000 NA
ATOM     10  H   UNL     1      48.076   2.298   4.998  0.00  0.00    +0.000 HD
ATOM     11  H   UNL     1      48.940   0.951   5.306  0.00  0.00    +0.000 HD
ENDBRANCH   8   9
ENDBRANCH   7   8
ENDBRANCH   1   7
BRANCH   4  12
ATOM     12  C   UNL     1      44.765   5.151  11.411  0.00  0.00    +0.000 C 
BRANCH  12  13
ATOM     13  N   UNL     1      45.801   5.140  12.442  0.00  0.00    +0.000 N 
ATOM     14  C   UNL     1      45.696   4.446  13.626  0.00  0.00    +0.000 A 
ATOM     15  C   UNL     1      46.807   4.730  14.384  0.00  0.00    +0.000 A 
ATOM     16  C   UNL     1      47.396   5.884  13.811  0.00  0.00    +0.000 A 
ATOM     17  C   UNL     1      48.318   6.836  14.283  0.00  0.00    +0.000 A 
ATOM     18  C   UNL     1      48.714   7.878  13.442  0.00  0.00    +0.000 A 
ATOM     19  C   UNL     1      48.290   7.914  12.117  0.00  0.00    +0.000 A 
ATOM     20  C   UNL     1      47.367   6.982  11.627  0.00  0.00    +0.000 A 
ATOM     21  C   UNL     1      46.863   6.027  12.525  0.00  0.00    +0.000 A 
ENDBRANCH  12  13
ENDBRANCH   4  12
TORSDOF 5
ENDMDL
MODEL 3
REMARK VINA RESULT:    -6.673      1.875      6.301
REMARK INTER + INTRA:          -9.077
REMARK INTER:                  -8.434
REMARK INTRA:                  -0.643
REMARK UNBOUND:                -0.648
REMARK  Name = 
REMARK  5 active torsions:
REMARK  status: ('A' for Active; 'I' for Inactive)
REMARK    1  A    between atoms: N_1  and  C_2
REMARK    2  A    between atoms: C_2  and  C_3
REMARK    3  A    between atoms: C_3  and  C_4
REMARK    4  A    between atoms: C_7  and  C_8
REMARK    5  A    between atoms: C_8  and  N_9
REMARK                            x       y       z     vdW  Elec       q    Type
REMARK                         _______ _______ _______ _____ _____    ______ ____
ROOT
ATOM      1  C   UNL     1      46.993   6.049  13.149  0.00  0.00    +0.000 A 
ATOM      2  C   UNL     1      45.999   5.110  13.441  0.00  0.00    +0.000 A 
ATOM      3  C   UNL     1      45.076   4.736  12.466  0.00  0.00    +0.000 A 
ATOM      4  C   UNL     1      45.126   5.288  11.178  0.00  0.00    +0.000 A 
ATOM      5  C   UNL     1      46.126   6.222  10.886  0.00  0.00    +0.000 A 
ATOM      6  C   UNL     1      47.065   6.599  11.861  0.00  0.00    +0.000 A 
ENDROOT
BRANCH   1   7
ATOM      7  C   UNL     1      47.981   6.465  14.212  0.00  0.00    +0.000 C 
BRANCH   7   8
ATOM      8  C   UNL     1      48.302   7.957  14.197  0.00  0.00    +0.000 C 
BRANCH   8   9
ATOM      9  N   UNL     1      47.140   8.761  14.606  0.00  0.00    +0.000 NA
ATOM     10  H   UNL     1      47.366   9.273  15.461  0.00  0.00    +0.000 HD
ATOM     11  H   UNL     1      46.363   8.146  14.844  0.00  0.00    +0.000 HD
ENDBRANCH   8   9
ENDBRANCH   7   8
ENDBRANCH   1   7
BRANCH   4  12
ATOM     12  C   UNL     1      44.137   4.865  10.117  0.00  0.00    +0.000 C 
BRANCH  12  13
ATOM     13  N   UNL     1      44.475   3.598   9.472  0.00  0.00    +0.000 N 
ATOM     14  C   UNL     1      44.126   2.365   9.974  0.00  0.00    +0.000 A 
ATOM     15  C   UNL     1      44.678   1.404   9.162  0.00  0.00    +0.000 A 
ATOM     16  C   UNL     1      45.667   2.057   8.387  0.00  0.00    +0.000 A 
ATOM     17  C   UNL     1      46.770   1.602   7.641  0.00  0.00    +0.000 A 
ATOM     18  C   UNL     1      47.566   2.528   6.964  0.00  0.00    +0.000 A 
ATOM     19  C   UNL     1      47.211   3.873   6.935  0.00  0.00    +0.000 A 
ATOM     20  C   UNL     1      46.123   4.351   7.675  0.00  0.00    +0.000 A 
ATOM     21  C   UNL     1      45.418   3.431   8.469  0.00  0.00    +0.000 A 
ENDBRANCH  12  13
ENDBRANCH   4  12
TORSDOF 5
ENDMDL
MODEL 4
REMARK VINA RESULT:    -6.099      1.462      3.033
REMARK INTER + INTRA:          -8.351
REMARK INTER:                  -7.850
REMARK INTRA:                  -0.501
REMARK UNBOUND:                -0.648
REMARK  Name = 
REMARK  5 active torsions:
REMARK  status: ('A' for Active; 'I' for Inactive)
REMARK    1  A    between atoms: N_1  and  C_2
REMARK    2  A    between atoms: C_2  and  C_3
REMARK    3  A    between atoms: C_3  and  C_4
REMARK    4  A    between atoms: C_7  and  C_8
REMARK    5  A    between atoms: C_8  and  N_9
REMARK                            x       y       z     vdW  Elec       q    Type
REMARK                         _______ _______ _______ _____ _____    ______ ____
ROOT
ATOM      1  C   UNL     1      45.698   3.419   8.020  0.00  0.00    +0.000 A 
ATOM      2  C   UNL     1      44.739   2.839   8.855  0.00  0.00    +0.000 A 
ATOM      3  C   UNL     1      44.295   3.514   9.991  0.00  0.00    +0.000 A 
ATOM      4  C   UNL     1      44.796   4.782  10.316  0.00  0.00    +0.000 A 
ATOM      5  C   UNL     1      45.751   5.363   9.476  0.00  0.00    +0.000 A 
ATOM      6  C   UNL     1      46.199   4.693   8.324  0.00  0.00    +0.000 A 
ENDROOT
BRANCH   1   7
ATOM      7  C   UNL     1      46.190   2.679   6.799  0.00  0.00    +0.000 C 
BRANCH   7   8
ATOM      8  C   UNL     1      47.466   1.877   7.043  0.00  0.00    +0.000 C 
BRANCH   8   9
ATOM      9  N   UNL     1      48.614   2.466   6.337  0.00  0.00    +0.000 NA
ATOM     10  H   UNL     1      49.352   2.680   7.010  0.00  0.00    +0.000 HD
ATOM     11  H   UNL     1      48.344   3.357   5.924  0.00  0.00    +0.000 HD
ENDBRANCH   8   9
ENDBRANCH   7   8
ENDBRANCH   1   7
BRANCH   4  12
ATOM     12  C   UNL     1      44.297   5.520  11.537  0.00  0.00    +0.000 C 
BRANCH  12  13
ATOM     13  N   UNL     1      45.032   6.752  11.819  0.00  0.00    +0.000 N 
ATOM     14  C   UNL     1      46.048   6.844  12.742  0.00  0.00    +0.000 A 
ATOM     15  C   UNL     1      46.448   8.157  12.804  0.00  0.00    +0.000 A 
ATOM     16  C   UNL     1      45.422   8.916  12.191  0.00  0.00    +0.000 A 
ATOM     17  C   UNL     1      45.072  10.278  12.224  0.00  0.00    +0.000 A 
ATOM     18  C   UNL     1      43.979  10.722  11.478  0.00  0.00    +0.000 A 
ATOM     19  C   UNL     1      43.309   9.850  10.625  0.00  0.00    +0.000 A 
ATOM     20  C   UNL     1      43.632   8.489  10.580  0.00  0.00    +0.000 A 
ATOM     21  C   UNL     1      44.638   8.028  11.445  0.00  0.00    +0.000 A 
ENDBRANCH  12  13
ENDBRANCH   4  12
TORSDOF 5
ENDMDL
MODEL 5
REMARK VINA RESULT:    -6.016      2.157      5.877
REMARK INTER + INTRA:          -8.246
REMARK INTER:                  -7.827
REMARK INTRA:                  -0.419
REMARK UNBOUND:                -0.648
REMARK  Name = 
REMARK  5 active torsions:
REMARK  status: ('A' for Active; 'I' for Inactive)
REMARK    1  A    between atoms: N_1  and  C_2
REMARK    2  A    between atoms: C_2  and  C_3
REMARK    3  A    between atoms: C_3  and  C_4
REMARK    4  A    between atoms: C_7  and  C_8
REMARK    5  A    between atoms: C_8  and  N_9
REMARK                            x       y       z     vdW  Elec       q    Type
REMARK                         _______ _______ _______ _____ _____    ______ ____
ROOT
ATOM      1  C   UNL     1      47.801   7.078  13.499  0.00  0.00    +0.000 A 
ATOM      2  C   UNL     1      47.443   5.776  13.140  0.00  0.00    +0.000 A 
ATOM      3  C   UNL     1      46.232   5.531  12.498  0.00  0.00    +0.000 A 
ATOM      4  C   UNL     1      45.352   6.580  12.196  0.00  0.00    +0.000 A 
ATOM      5  C   UNL     1      45.714   7.883  12.551  0.00  0.00    +0.000 A 
ATOM      6  C   UNL     1      46.938   8.141  13.192  0.00  0.00    +0.000 A 
ENDROOT
BRANCH   1   7
ATOM      7  C   UNL     1      49.107   7.340  14.210  0.00  0.00    +0.000 C 
BRANCH   7   8
ATOM      8  C   UNL     1      50.107   8.139  13.378  0.00  0.00    +0.000 C 
BRANCH   8   9
ATOM      9  N   UNL     1      50.467   7.428  12.142  0.00  0.00    +0.000 NA
ATOM     10  H   UNL     1      51.285   7.873  11.721  0.00  0.00    +0.000 HD
ATOM     11  H   UNL     1      49.716   7.521  11.460  0.00  0.00    +0.000 HD
ENDBRANCH   8   9
ENDBRANCH   7   8
ENDBRANCH   1   7
BRANCH   4  12
ATOM     12  C   UNL     1      44.047   6.313  11.481  0.00  0.00    +0.000 C 
BRANCH  12  13
ATOM     13  N   UNL     1      43.849   4.909  11.128  0.00  0.00    +0.000 N 
ATOM     14  C   UNL     1      43.358   3.963  11.999  0.00  0.00    +0.000 A 
ATOM     15  C   UNL     1      43.386   2.745  11.362  0.00  0.00    +0.000 A 
ATOM     16  C   UNL     1      44.240   2.900  10.243  0.00  0.00    +0.000 A 
ATOM     17  C   UNL     1      44.924   1.992   9.414  0.00  0.00    +0.000 A 
ATOM     18  C   UNL     1      45.699   2.480   8.360  0.00  0.00    +0.000 A 
ATOM     19  C   UNL     1      45.706   3.840   8.062  0.00  0.00    +0.000 A 
ATOM     20  C   UNL     1      45.039   4.763   8.876  0.00  0.00    +0.000 A 
ATOM     21  C   UNL     1      44.385   4.274  10.019  0.00  0.00    +0.000 A 
ENDBRANCH  12  13
ENDBRANCH   4  12
TORSDOF 5
ENDMDL
MODEL 6
REMARK VINA RESULT:    -5.612      2.268      6.537
REMARK INTER + INTRA:          -7.736
REMARK INTER:                  -7.316
REMARK INTRA:                  -0.420
REMARK UNBOUND:                -0.648
REMARK  Name = 
REMARK  5 active torsions:
REMARK  status: ('A' for Active; 'I' for Inactive)
REMARK    1  A    between atoms: N_1  and  C_2
REMARK    2  A    between atoms: C_2  and  C_3
REMARK    3  A    between atoms: C_3  and  C_4
REMARK    4  A    between atoms: C_7  and  C_8
REMARK    5  A    between atoms: C_8  and  N_9
REMARK                            x       y       z     vdW  Elec       q    Type
REMARK                         _______ _______ _______ _____ _____    ______ ____
ROOT
ATOM      1  C   UNL     1      48.179   6.985  14.217  0.00  0.00    +0.000 A 
ATOM      2  C   UNL     1      47.519   8.168  13.874  0.00  0.00    +0.000 A 
ATOM      3  C   UNL     1      46.501   8.157  12.924  0.00  0.00    +0.000 A 
ATOM      4  C   UNL     1      46.115   6.964  12.296  0.00  0.00    +0.000 A 
ATOM      5  C   UNL     1      46.772   5.779  12.645  0.00  0.00    +0.000 A 
ATOM      6  C   UNL     1      47.795   5.780  13.609  0.00  0.00    +0.000 A 
ENDROOT
BRANCH   1   7
ATOM      7  C   UNL     1      49.293   7.002  15.235  0.00  0.00    +0.000 C 
BRANCH   7   8
ATOM      8  C   UNL     1      48.825   7.341  16.648  0.00  0.00    +0.000 C 
BRANCH   8   9
ATOM      9  N   UNL     1      47.995   6.265  17.212  0.00  0.00    +0.000 NA
ATOM     10  H   UNL     1      48.575   5.663  17.800  0.00  0.00    +0.000 HD
ATOM     11  H   UNL     1      47.645   5.671  16.461  0.00  0.00    +0.000 HD
ENDBRANCH   8   9
ENDBRANCH   7   8
ENDBRANCH   1   7
BRANCH   4  12
ATOM     12  C   UNL     1      44.997   6.951  11.280  0.00  0.00    +0.000 C 
BRANCH  12  13
ATOM     13  N   UNL     1      44.334   5.654  11.154  0.00  0.00    +0.000 N 
ATOM     14  C   UNL     1      43.570   5.085  12.147  0.00  0.00    +0.000 A 
ATOM     15  C   UNL     1      43.178   3.839  11.719  0.00  0.00    +0.000 A 
ATOM     16  C   UNL     1      44.016   3.512  10.625  0.00  0.00    +0.000 A 
ATOM     17  C   UNL     1      44.343   2.303   9.984  0.00  0.00    +0.000 A 
ATOM     18  C   UNL     1      45.218   2.322   8.896  0.00  0.00    +0.000 A 
ATOM     19  C   UNL     1      45.675   3.532   8.381  0.00  0.00    +0.000 A 
ATOM     20  C   UNL     1      45.369   4.747   9.006  0.00  0.00    +0.000 A 
ATOM     21  C   UNL     1      44.608   4.701  10.186  0.00  0.00    +0.000 A 
ENDBRANCH  12  13
ENDBRANCH   4  12
TORSDOF 5
ENDMDL
MODEL 7
REMARK VINA RESULT:    -5.486      2.256      3.816
REMARK INTER + INTRA:          -7.577
REMARK INTER:                  -7.050
REMARK INTRA:                  -0.526
REMARK UNBOUND:                -0.648
REMARK  Name = 
REMARK  5 active torsions:
REMARK  status: ('A' for Active; 'I' for Inactive)
REMARK    1  A    between atoms: N_1  and  C_2
REMARK    2  A    between atoms: C_2  and  C_3
REMARK    3  A    between atoms: C_3  and  C_4
REMARK    4  A    between atoms: C_7  and  C_8
REMARK    5  A    between atoms: C_8  and  N_9
REMARK                            x       y       z     vdW  Elec       q    Type
REMARK                         _______ _______ _______ _____ _____    ______ ____
ROOT
ATOM      1  C   UNL     1      44.924   3.513   9.963  0.00  0.00    +0.000 A 
ATOM      2  C   UNL     1      44.893   3.191  11.323  0.00  0.00    +0.000 A 
ATOM      3  C   UNL     1      45.246   4.139  12.280  0.00  0.00    +0.000 A 
ATOM      4  C   UNL     1      45.634   5.433  11.902  0.00  0.00    +0.000 A 
ATOM      5  C   UNL     1      45.658   5.756  10.541  0.00  0.00    +0.000 A 
ATOM      6  C   UNL     1      45.296   4.807   9.570  0.00  0.00    +0.000 A 
ENDROOT
BRANCH   1   7
ATOM      7  C   UNL     1      44.557   2.479   8.927  0.00  0.00    +0.000 C 
BRANCH   7   8
ATOM      8  C   UNL     1      45.720   1.574   8.528  0.00  0.00    +0.000 C 
BRANCH   8   9
ATOM      9  N   UNL     1      46.578   2.214   7.519  0.00  0.00    +0.000 NA
ATOM     10  H   UNL     1      47.377   2.651   7.982  0.00  0.00    +0.000 HD
ATOM     11  H   UNL     1      46.068   2.971   7.065  0.00  0.00    +0.000 HD
ENDBRANCH   8   9
ENDBRANCH   7   8
ENDBRANCH   1   7
BRANCH   4  12
ATOM     12  C   UNL     1      45.996   6.466  12.944  0.00  0.00    +0.000 C 
BRANCH  12  13
ATOM     13  N   UNL     1      46.976   7.447  12.480  0.00  0.00    +0.000 N 
ATOM     14  C   UNL     1      48.335   7.304  12.638  0.00  0.00    +0.000 A 
ATOM     15  C   UNL     1      48.940   8.445  12.165  0.00  0.00    +0.000 A 
ATOM     16  C   UNL     1      47.921   9.424  12.066  0.00  0.00    +0.000 A 
ATOM     17  C   UNL     1      47.933  10.827  11.973  0.00  0.00    +0.000 A 
ATOM     18  C   UNL     1      46.722  11.516  11.877  0.00  0.00    +0.000 A 
ATOM     19  C   UNL     1      45.523  10.819  11.763  0.00  0.00    +0.000 A 
ATOM     20  C   UNL     1      45.485   9.423  11.862  0.00  0.00    +0.000 A 
ATOM     21  C   UNL     1      46.694   8.752  12.106  0.00  0.00    +0.000 A 
ENDBRANCH  12  13
ENDBRANCH   4  12
TORSDOF 5
ENDMDL
MODEL 8
REMARK VINA RESULT:    -5.251      2.872      4.533
REMARK INTER + INTRA:          -7.280
REMARK INTER:                  -6.857
REMARK INTRA:                  -0.423
REMARK UNBOUND:                -0.648
REMARK  Name = 
REMARK  5 active torsions:
REMARK  status: ('A' for Active; 'I' for Inactive)
REMARK    1  A    between atoms: N_1  and  C_2
REMARK    2  A    between atoms: C_2  and  C_3
REMARK    3  A    between atoms: C_3  and  C_4
REMARK    4  A    between atoms: C_7  and  C_8
REMARK    5  A    between atoms: C_8  and  N_9
REMARK                            x       y       z     vdW  Elec       q    Type
REMARK                         _______ _______ _______ _____ _____    ______ ____
ROOT
ATOM      1  C   UNL     1      44.950   4.149  11.087  0.00  0.00    +0.000 A 
ATOM      2  C   UNL     1      45.088   4.097  12.477  0.00  0.00    +0.000 A 
ATOM      3  C   UNL     1      45.762   5.109  13.156  0.00  0.00    +0.000 A 
ATOM      4  C   UNL     1      46.309   6.199  12.464  0.00  0.00    +0.000 A 
ATOM      5  C   UNL     1      46.165   6.253  11.074  0.00  0.00    +0.000 A 
ATOM      6  C   UNL     1      45.480   5.240  10.382  0.00  0.00    +0.000 A 
ENDROOT
BRANCH   1   7
ATOM      7  C   UNL     1      44.233   3.042  10.351  0.00  0.00    +0.000 C 
BRANCH   7   8
ATOM      8  C   UNL     1      44.762   2.805   8.939  0.00  0.00    +0.000 C 
BRANCH   8   9
ATOM      9  N   UNL     1      45.646   1.631   8.886  0.00  0.00    +0.000 NA
ATOM     10  H   UNL     1      45.135   0.807   9.208  0.00  0.00    +0.000 HD
ATOM     11  H   UNL     1      46.420   1.753   9.538  0.00  0.00    +0.000 HD
ENDBRANCH   8   9
ENDBRANCH   7   8
ENDBRANCH   1   7
BRANCH   4  12
ATOM     12  C   UNL     1      47.022   7.306  13.205  0.00  0.00    +0.000 C 
BRANCH  12  13
ATOM     13  N   UNL     1      46.621   8.647  12.783  0.00  0.00    +0.000 N 
ATOM     14  C   UNL     1      45.312   9.045  12.638  0.00  0.00    +0.000 A 
ATOM     15  C   UNL     1      45.310  10.329  12.148  0.00  0.00    +0.000 A 
ATOM     16  C   UNL     1      46.613  10.567  11.648  0.00  0.00    +0.000 A 
ATOM     17  C   UNL     1      47.152  11.515  10.759  0.00  0.00    +0.000 A 
ATOM     18  C   UNL     1      48.518  11.484  10.472  0.00  0.00    +0.000 A 
ATOM     19  C   UNL     1      49.358  10.600  11.142  0.00  0.00    +0.000 A 
ATOM     20  C   UNL     1      48.845   9.642  12.025  0.00  0.00    +0.000 A 
ATOM     21  C   UNL     1      47.452   9.587  12.192  0.00  0.00    +0.000 A 
ENDBRANCH  12  13
ENDBRANCH   4  12
TORSDOF 5
ENDMDL
MODEL 9
REMARK VINA RESULT:    -5.072      5.039      8.066
REMARK INTER + INTRA:          -7.054
REMARK INTER:                  -6.628
REMARK INTRA:                  -0.426
REMARK UNBOUND:                -0.648
REMARK  Name = 
REMARK  5 active torsions:
REMARK  status: ('A' for Active; 'I' for Inactive)
REMARK    1  A    between atoms: N_1  and  C_2
REMARK    2  A    between atoms: C_2  and  C_3
REMARK    3  A    between atoms: C_3  and  C_4
REMARK    4  A    between atoms: C_7  and  C_8
REMARK    5  A    between atoms: C_8  and  N_9
REMARK                            x       y       z     vdW  Elec       q    Type
REMARK                         _______ _______ _______ _____ _____    ______ ____
ROOT
ATOM      1  C   UNL     1      51.579   2.778  17.732  0.00  0.00    +0.000 A 
ATOM      2  C   UNL     1      50.453   2.074  17.296  0.00  0.00    +0.000 A 
ATOM      3  C   UNL     1      49.283   2.753  16.961  0.00  0.00    +0.000 A 
ATOM      4  C   UNL     1      49.213   4.151  17.051  0.00  0.00    +0.000 A 
ATOM      5  C   UNL     1      50.343   4.854  17.481  0.00  0.00    +0.000 A 
ATOM      6  C   UNL     1      51.528   4.177  17.813  0.00  0.00    +0.000 A 
ENDROOT
BRANCH   1   7
ATOM      7  C   UNL     1      52.839   2.038  18.110  0.00  0.00    +0.000 C 
BRANCH   7   8
ATOM      8  C   UNL     1      52.987   0.687  17.414  0.00  0.00    +0.000 C 
BRANCH   8   9
ATOM      9  N   UNL     1      52.854  -0.426  18.366  0.00  0.00    +0.000 NA
ATOM     10  H   UNL     1      52.032  -0.273  18.953  0.00  0.00    +0.000 HD
ATOM     11  H   UNL     1      53.653  -0.434  18.999  0.00  0.00    +0.000 HD
ENDBRANCH   8   9
ENDBRANCH   7   8
ENDBRANCH   1   7
BRANCH   4  12
ATOM     12  C   UNL     1      47.950   4.887  16.667  0.00  0.00    +0.000 C 
BRANCH  12  13
ATOM     13  N   UNL     1      48.048   5.595  15.392  0.00  0.00    +0.000 N 
ATOM     14  C   UNL     1      48.607   6.844  15.251  0.00  0.00    +0.000 A 
ATOM     15  C   UNL     1      48.453   7.233  13.941  0.00  0.00    +0.000 A 
ATOM     16  C   UNL     1      47.473   6.376  13.384  0.00  0.00    +0.000 A 
ATOM     17  C   UNL     1      46.656   6.453  12.241  0.00  0.00    +0.000 A 
ATOM     18  C   UNL     1      45.776   5.406  11.959  0.00  0.00    +0.000 A 
ATOM     19  C   UNL     1      45.784   4.251  12.734  0.00  0.00    +0.000 A 
ATOM     20  C   UNL     1      46.582   4.154  13.881  0.00  0.00    +0.000 A 
ATOM     21  C   UNL     1      47.354   5.272  14.236  0.00  0.00    +0.000 A 
ENDBRANCH  12  13
ENDBRANCH   4  12
TORSDOF 5
ENDMDL
