MODEL 1
REMARK VINA RESULT:    -8.076      0.000      0.000
REMARK INTER + INTRA:          -9.938
REMARK INTER:                  -9.492
REMARK INTRA:                  -0.446
REMARK UNBOUND:                -0.446
REMARK  Name = 
REMARK  3 active torsions:
REMARK  status: ('A' for Active; 'I' for Inactive)
REMARK    1  A    between atoms: C_2  and  C_4
REMARK    2  A    between atoms: N_8  and  C_9
REMARK    3  A    between atoms: C_9  and  C_10
REMARK                            x       y       z     vdW  Elec       q    Type
REMARK                         _______ _______ _______ _____ _____    ______ ____
ROOT
ATOM      1  C   UNL     1      46.229   2.116   7.939  0.00  0.00    +0.000 A 
ATOM      2  C   UNL     1      46.359   3.464   7.638  0.00  0.00    +0.000 A 
ATOM      3  C   UNL     1      45.515   4.382   8.262  0.00  0.00    +0.000 A 
ATOM      4  C   UNL     1      44.580   3.940   9.205  0.00  0.00    +0.000 A 
ATOM      5  N   UNL     1      43.734   4.864   9.813  0.00  0.00    +0.000 N 
ATOM      6  N   UNL     1      44.432   2.627   9.478  0.00  0.00    +0.000 NA
ATOM      7  C   UNL     1      45.232   1.747   8.831  0.00  0.00    +0.000 A 
ATOM      8  H   UNL     1      44.008   5.827   9.675  0.00  0.00    +0.000 HD
ENDROOT
BRANCH   1  10
ATOM      9  N   UNL     1      46.796  -0.223   7.680  0.00  0.00    +0.000 N 
ATOM     10  C   UNL     1      47.106   1.072   7.368  0.00  0.00    +0.000 C 
ATOM     11  O   UNL     1      48.022   1.346   6.611  0.00  0.00    +0.000 OA
ATOM     12  H   UNL     1      47.308  -0.936   7.173  0.00  0.00    +0.000 HD
ATOM     13  H   UNL     1      45.900  -0.484   8.063  0.00  0.00    +0.000 HD
ENDBRANCH   1  10
BRANCH   5  14
ATOM     14  C   UNL     1      43.279   4.521  11.161  0.00  0.00    +0.000 C 
BRANCH  14  15
ATOM     15  C   UNL     1      44.173   5.177  12.236  0.00  0.00    +0.000 C 
ATOM     16  C   UNL     1      44.736   6.520  11.745  0.00  0.00    +0.000 C 
ATOM     17  C   UNL     1      45.657   7.166  12.775  0.00  0.00    +0.000 C 
ATOM     18  C   UNL     1      46.775   6.218  13.190  0.00  0.00    +0.000 C 
ATOM     19  C   UNL     1      46.212   4.912  13.741  0.00  0.00    +0.000 C 
ATOM     20  C   UNL     1      45.286   4.235  12.731  0.00  0.00    +0.000 C 
ENDBRANCH  14  15
ENDBRANCH   5  14
TORSDOF 3
ENDMDL
MODEL 2
REMARK VINA RESULT:    -7.440      2.853      6.317
REMARK INTER + INTRA:          -9.190
REMARK INTER:                  -8.820
REMARK INTRA:                  -0.370
REMARK UNBOUND:                -0.446
REMARK  Name = 
REMARK  3 active torsions:
REMARK  status: ('A' for Active; 'I' for Inactive)
REMARK    1  A    between atoms: C_2  and  C_4
REMARK    2  A    between atoms: N_8  and  C_9
REMARK    3  A    between atoms: C_9  and  C_10
REMARK                            x       y       z     vdW  Elec       q    Type
REMARK                         _______ _______ _______ _____ _____    ______ ____
ROOT
ATOM      1  C   UNL     1      45.485   6.491  12.481  0.00  0.00    +0.000 A 
ATOM      2  C   UNL     1      46.080   5.399  13.099  0.00  0.00    +0.000 A 
ATOM      3  C   UNL     1      45.790   4.117  12.633  0.00  0.00    +0.000 A 
ATOM      4  C   UNL     1      44.941   3.950  11.535  0.00  0.00    +0.000 A 
ATOM      5  N   UNL     1      44.650   2.664  11.086  0.00  0.00    +0.000 N 
ATOM      6  N   UNL     1      44.339   5.006  10.950  0.00  0.00    +0.000 NA
ATOM      7  C   UNL     1      44.600   6.241  11.443  0.00  0.00    +0.000 A 
ATOM      8  H   UNL     1      45.251   1.947  11.469  0.00  0.00    +0.000 HD
ENDROOT
BRANCH   1  10
ATOM      9  N   UNL     1      44.809   8.814  12.546  0.00  0.00    +0.000 N 
ATOM     10  C   UNL     1      45.764   7.889  12.869  0.00  0.00    +0.000 C 
ATOM     11  O   UNL     1      46.765   8.196  13.495  0.00  0.00    +0.000 OA
ATOM     12  H   UNL     1      44.937   9.740  12.938  0.00  0.00    +0.000 HD
ATOM     13  H   UNL     1      43.871   8.549  12.287  0.00  0.00    +0.000 HD
ENDBRANCH   1  10
BRANCH   5  14
ATOM     14  C   UNL     1      44.344   2.540   9.660  0.00  0.00    +0.000 C 
BRANCH  14  15
ATOM     15  C   UNL     1      45.633   2.543   8.810  0.00  0.00    +0.000 C 
ATOM     16  C   UNL     1      45.570   3.618   7.713  0.00  0.00    +0.000 C 
ATOM     17  C   UNL     1      46.815   3.610   6.832  0.00  0.00    +0.000 C 
ATOM     18  C   UNL     1      47.065   2.229   6.238  0.00  0.00    +0.000 C 
ATOM     19  C   UNL     1      47.196   1.176   7.333  0.00  0.00    +0.000 C 
ATOM     20  C   UNL     1      45.961   1.153   8.233  0.00  0.00    +0.000 C 
ENDBRANCH  14  15
ENDBRANCH   5  14
TORSDOF 3
ENDMDL
MODEL 3
REMARK VINA RESULT:    -7.382      2.919      6.304
REMARK INTER + INTRA:          -9.123
REMARK INTER:                  -8.822
REMARK INTRA:                  -0.301
REMARK UNBOUND:                -0.446
REMARK  Name = 
REMARK  3 active torsions:
REMARK  status: ('A' for Active; 'I' for Inactive)
REMARK    1  A    between atoms: C_2  and  C_4
REMARK    2  A    between atoms: N_8  and  C_9
REMARK    3  A    between atoms: C_9  and  C_10
REMARK                            x       y       z     vdW  Elec       q    Type
REMARK                         _______ _______ _______ _____ _____    ______ ____
ROOT
ATOM      1  C   UNL     1      46.658   5.508  13.080  0.00  0.00    +0.000 A 
ATOM      2  C   UNL     1      46.353   4.163  13.240  0.00  0.00    +0.000 A 
ATOM      3  C   UNL     1      45.571   3.527  12.277  0.00  0.00    +0.000 A 
ATOM      4  C   UNL     1      45.138   4.236  11.151  0.00  0.00    +0.000 A 
ATOM      5  N   UNL     1      44.347   3.594  10.202  0.00  0.00    +0.000 N 
ATOM      6  N   UNL     1      45.409   5.550  11.007  0.00  0.00    +0.000 NA
ATOM      7  C   UNL     1      46.135   6.161  11.974  0.00  0.00    +0.000 A 
ATOM      8  H   UNL     1      44.320   2.588  10.300  0.00  0.00    +0.000 HD
ENDROOT
BRANCH   1  10
ATOM      9  N   UNL     1      47.364   7.617  14.034  0.00  0.00    +0.000 N 
ATOM     10  C   UNL     1      47.518   6.258  14.019  0.00  0.00    +0.000 C 
ATOM     11  O   UNL     1      48.284   5.693  14.782  0.00  0.00    +0.000 OA
ATOM     12  H   UNL     1      47.848   8.111  14.775  0.00  0.00    +0.000 HD
ATOM     13  H   UNL     1      46.561   8.071  13.627  0.00  0.00    +0.000 HD
ENDBRANCH   1  10
BRANCH   5  14
ATOM     14  C   UNL     1      44.463   4.094   8.832  0.00  0.00    +0.000 C 
BRANCH  14  15
ATOM     15  C   UNL     1      45.186   3.075   7.923  0.00  0.00    +0.000 C 
ATOM     16  C   UNL     1      45.671   1.860   8.730  0.00  0.00    +0.000 C 
ATOM     17  C   UNL     1      46.427   0.860   7.861  0.00  0.00    +0.000 C 
ATOM     18  C   UNL     1      47.580   1.529   7.122  0.00  0.00    +0.000 C 
ATOM     19  C   UNL     1      47.085   2.692   6.269  0.00  0.00    +0.000 C 
ATOM     20  C   UNL     1      46.326   3.717   7.111  0.00  0.00    +0.000 C 
ENDBRANCH  14  15
ENDBRANCH   5  14
TORSDOF 3
ENDMDL
MODEL 4
REMARK VINA RESULT:    -5.905      3.722      5.197
REMARK INTER + INTRA:          -7.386
REMARK INTER:                  -7.145
REMARK INTRA:                  -0.240
REMARK UNBOUND:                -0.446
REMARK  Name = 
REMARK  3 active torsions:
REMARK  status: ('A' for Active; 'I' for Inactive)
REMARK    1  A    between atoms: C_2  and  C_4
REMARK    2  A    between atoms: N_8  and  C_9
REMARK    3  A    between atoms: C_9  and  C_10
REMARK                            x       y       z     vdW  Elec       q    Type
REMARK                         _______ _______ _______ _____ _____    ______ ____
ROOT
ATOM      1  C   UNL     1      44.905   4.059  10.978  0.00  0.00    +0.000 A 
ATOM      2  C   UNL     1      45.519   5.300  11.071  0.00  0.00    +0.000 A 
ATOM      3  C   UNL     1      46.103   5.678  12.279  0.00  0.00    +0.000 A 
ATOM      4  C   UNL     1      46.096   4.794  13.363  0.00  0.00    +0.000 A 
ATOM      5  N   UNL     1      46.672   5.186  14.569  0.00  0.00    +0.000 N 
ATOM      6  N   UNL     1      45.476   3.598  13.285  0.00  0.00    +0.000 NA
ATOM      7  C   UNL     1      44.878   3.266  12.116  0.00  0.00    +0.000 A 
ATOM      8  H   UNL     1      47.244   6.018  14.502  0.00  0.00    +0.000 HD
ENDROOT
BRANCH   1  10
ATOM      9  N   UNL     1      44.040   4.472   8.756  0.00  0.00    +0.000 N 
ATOM     10  C   UNL     1      44.301   3.548   9.730  0.00  0.00    +0.000 C 
ATOM     11  O   UNL     1      44.100   2.358   9.553  0.00  0.00    +0.000 OA
ATOM     12  H   UNL     1      43.762   4.099   7.854  0.00  0.00    +0.000 HD
ATOM     13  H   UNL     1      44.446   5.394   8.767  0.00  0.00    +0.000 HD
ENDBRANCH   1  10
BRANCH   5  14
ATOM     14  C   UNL     1      47.215   4.109  15.397  0.00  0.00    +0.000 C 
BRANCH  14  15
ATOM     15  C   UNL     1      47.790   4.657  16.721  0.00  0.00    +0.000 C 
ATOM     16  C   UNL     1      48.708   5.864  16.470  0.00  0.00    +0.000 C 
ATOM     17  C   UNL     1      49.322   6.396  17.760  0.00  0.00    +0.000 C 
ATOM     18  C   UNL     1      50.054   5.295  18.520  0.00  0.00    +0.000 C 
ATOM     19  C   UNL     1      49.122   4.128  18.828  0.00  0.00    +0.000 C 
ATOM     20  C   UNL     1      48.491   3.567  17.554  0.00  0.00    +0.000 C 
ENDBRANCH  14  15
ENDBRANCH   5  14
TORSDOF 3
ENDMDL
MODEL 5
REMARK VINA RESULT:    -5.670      3.292      5.086
REMARK INTER + INTRA:          -7.111
REMARK INTER:                  -6.746
REMARK INTRA:                  -0.365
REMARK UNBOUND:                -0.446
REMARK  Name = 
REMARK  3 active torsions:
REMARK  status: ('A' for Active; 'I' for Inactive)
REMARK    1  A    between atoms: C_2  and  C_4
REMARK    2  A    between atoms: N_8  and  C_9
REMARK    3  A    between atoms: C_9  and  C_10
REMARK                            x       y       z     vdW  Elec       q    Type
REMARK                         _______ _______ _______ _____ _____    ______ ____
ROOT
ATOM      1  C   UNL     1      44.069   4.243  11.554  0.00  0.00    +0.000 A 
ATOM      2  C   UNL     1      43.561   5.353  10.894  0.00  0.00    +0.000 A 
ATOM      3  C   UNL     1      43.933   6.626  11.325  0.00  0.00    +0.000 A 
ATOM      4  C   UNL     1      44.835   6.767  12.385  0.00  0.00    +0.000 A 
ATOM      5  N   UNL     1      45.190   8.044  12.815  0.00  0.00    +0.000 N 
ATOM      6  N   UNL     1      45.308   5.691  13.047  0.00  0.00    +0.000 NA
ATOM      7  C   UNL     1      44.903   4.464  12.641  0.00  0.00    +0.000 A 
ATOM      8  H   UNL     1      44.921   8.783  12.179  0.00  0.00    +0.000 HD
ENDROOT
BRANCH   1  10
ATOM      9  N   UNL     1      44.545   2.338  10.140  0.00  0.00    +0.000 N 
ATOM     10  C   UNL     1      43.774   2.854  11.145  0.00  0.00    +0.000 C 
ATOM     11  O   UNL     1      42.927   2.183  11.711  0.00  0.00    +0.000 OA
ATOM     12  H   UNL     1      44.436   1.346   9.963  0.00  0.00    +0.000 HD
ATOM     13  H   UNL     1      45.413   2.764   9.856  0.00  0.00    +0.000 HD
ENDBRANCH   1  10
BRANCH   5  14
ATOM     14  C   UNL     1      46.522   8.170  13.406  0.00  0.00    +0.000 C 
BRANCH  14  15
ATOM     15  C   UNL     1      47.592   8.427  12.324  0.00  0.00    +0.000 C 
ATOM     16  C   UNL     1      48.790   7.478  12.492  0.00  0.00    +0.000 C 
ATOM     17  C   UNL     1      49.880   7.743  11.460  0.00  0.00    +0.000 C 
ATOM     18  C   UNL     1      50.324   9.201  11.484  0.00  0.00    +0.000 C 
ATOM     19  C   UNL     1      49.144  10.138  11.247  0.00  0.00    +0.000 C 
ATOM     20  C   UNL     1      48.033   9.902  12.270  0.00  0.00    +0.000 C 
ENDBRANCH  14  15
ENDBRANCH   5  14
TORSDOF 3
ENDMDL
MODEL 6
REMARK VINA RESULT:    -5.598      1.470      2.391
REMARK INTER + INTRA:          -7.026
REMARK INTER:                  -7.092
REMARK INTRA:                   0.066
REMARK UNBOUND:                -0.446
REMARK  Name = 
REMARK  3 active torsions:
REMARK  status: ('A' for Active; 'I' for Inactive)
REMARK    1  A    between atoms: C_2  and  C_4
REMARK    2  A    between atoms: N_8  and  C_9
REMARK    3  A    between atoms: C_9  and  C_10
REMARK                            x       y       z     vdW  Elec       q    Type
REMARK                         _______ _______ _______ _____ _____    ______ ____
ROOT
ATOM      1  C   UNL     1      45.923   2.849   7.949  0.00  0.00    +0.000 A 
ATOM      2  C   UNL     1      45.214   1.981   8.768  0.00  0.00    +0.000 A 
ATOM      3  C   UNL     1      44.547   2.492   9.881  0.00  0.00    +0.000 A 
ATOM      4  C   UNL     1      44.568   3.867  10.135  0.00  0.00    +0.000 A 
ATOM      5  N   UNL     1      43.908   4.364  11.256  0.00  0.00    +0.000 N 
ATOM      6  N   UNL     1      45.279   4.710   9.358  0.00  0.00    +0.000 NA
ATOM      7  C   UNL     1      45.955   4.190   8.306  0.00  0.00    +0.000 A 
ATOM      8  H   UNL     1      43.280   3.703  11.692  0.00  0.00    +0.000 HD
ENDROOT
BRANCH   1  10
ATOM      9  N   UNL     1      47.239   1.194   6.772  0.00  0.00    +0.000 N 
ATOM     10  C   UNL     1      46.622   2.414   6.723  0.00  0.00    +0.000 C 
ATOM     11  O   UNL     1      46.601   3.079   5.700  0.00  0.00    +0.000 OA
ATOM     12  H   UNL     1      47.591   0.839   5.890  0.00  0.00    +0.000 HD
ATOM     13  H   UNL     1      47.037   0.519   7.493  0.00  0.00    +0.000 HD
ENDBRANCH   1  10
BRANCH   5  14
ATOM     14  C   UNL     1      43.408   5.735  11.145  0.00  0.00    +0.000 C 
BRANCH  14  15
ATOM     15  C   UNL     1      44.529   6.762  11.415  0.00  0.00    +0.000 C 
ATOM     16  C   UNL     1      45.254   6.458  12.736  0.00  0.00    +0.000 C 
ATOM     17  C   UNL     1      46.337   7.486  13.045  0.00  0.00    +0.000 C 
ATOM     18  C   UNL     1      45.775   8.903  13.037  0.00  0.00    +0.000 C 
ATOM     19  C   UNL     1      45.117   9.225  11.700  0.00  0.00    +0.000 C 
ATOM     20  C   UNL     1      44.021   8.216  11.361  0.00  0.00    +0.000 C 
ENDBRANCH  14  15
ENDBRANCH   5  14
TORSDOF 3
ENDMDL
MODEL 7
REMARK VINA RESULT:    -5.374      3.415      5.167
REMARK INTER + INTRA:          -6.762
REMARK INTER:                  -6.436
REMARK INTRA:                  -0.326
REMARK UNBOUND:                -0.446
REMARK  Name = 
REMARK  3 active torsions:
REMARK  status: ('A' for Active; 'I' for Inactive)
REMARK    1  A    between atoms: C_2  and  C_4
REMARK    2  A    between atoms: N_8  and  C_9
REMARK    3  A    between atoms: C_9  and  C_10
REMARK                            x       y       z     vdW  Elec       q    Type
REMARK                         _______ _______ _______ _____ _____    ______ ____
ROOT
ATOM      1  C   UNL     1      44.947   4.549  11.025  0.00  0.00    +0.000 A 
ATOM      2  C   UNL     1      45.016   4.190  12.363  0.00  0.00    +0.000 A 
ATOM      3  C   UNL     1      45.693   5.023  13.254  0.00  0.00    +0.000 A 
ATOM      4  C   UNL     1      46.256   6.219  12.798  0.00  0.00    +0.000 A 
ATOM      5  N   UNL     1      46.939   7.038  13.695  0.00  0.00    +0.000 N 
ATOM      6  N   UNL     1      46.214   6.558  11.493  0.00  0.00    +0.000 NA
ATOM      7  C   UNL     1      45.589   5.716  10.636  0.00  0.00    +0.000 A 
ATOM      8  H   UNL     1      46.794   6.797  14.666  0.00  0.00    +0.000 HD
ENDROOT
BRANCH   1  10
ATOM      9  N   UNL     1      44.093   4.321   8.771  0.00  0.00    +0.000 N 
ATOM     10  C   UNL     1      44.213   3.760  10.013  0.00  0.00    +0.000 C 
ATOM     11  O   UNL     1      43.788   2.643  10.254  0.00  0.00    +0.000 OA
ATOM     12  H   UNL     1      43.719   3.719   8.047  0.00  0.00    +0.000 HD
ATOM     13  H   UNL     1      44.664   5.098   8.475  0.00  0.00    +0.000 HD
ENDBRANCH   1  10
BRANCH   5  14
ATOM     14  C   UNL     1      46.930   8.468  13.387  0.00  0.00    +0.000 C 
BRANCH  14  15
ATOM     15  C   UNL     1      48.345   8.975  13.037  0.00  0.00    +0.000 C 
ATOM     16  C   UNL     1      48.338   9.784  11.731  0.00  0.00    +0.000 C 
ATOM     17  C   UNL     1      49.734  10.259  11.342  0.00  0.00    +0.000 C 
ATOM     18  C   UNL     1      50.713   9.093  11.263  0.00  0.00    +0.000 C 
ATOM     19  C   UNL     1      50.769   8.333  12.584  0.00  0.00    +0.000 C 
ATOM     20  C   UNL     1      49.385   7.838  13.001  0.00  0.00    +0.000 C 
ENDBRANCH  14  15
ENDBRANCH   5  14
TORSDOF 3
ENDMDL
