MODEL 1
REMARK VINA RESULT:    -7.923      0.000      0.000
REMARK INTER + INTRA:         -11.213
REMARK INTER:                 -10.239
REMARK INTRA:                  -0.973
REMARK UNBOUND:                -0.973
REMARK  Name = 
REMARK  6 active torsions:
REMARK  status: ('A' for Active; 'I' for Inactive)
REMARK    1  A    between atoms: C_1  and  C_2
REMARK    2  A    between atoms: C_5  and  C_6
REMARK    3  A    between atoms: C_6  and  O_7
REMARK    4  A    between atoms: O_7  and  C_8
REMARK    5  A    between atoms: C_11  and  C_12
REMARK    6  A    between atoms: C_18  and  C_19
REMARK                            x       y       z     vdW  Elec       q    Type
REMARK                         _______ _______ _______ _____ _____    ______ ____
ROOT
ATOM      1  C   UNL     1      45.251  10.557  11.782  0.00  0.00    +0.000 C 
ATOM      2  C   UNL     1      45.051   9.068  11.665  0.00  0.00    +0.000 A 
ATOM      3  C   UNL     1      43.803   8.618  11.200  0.00  0.00    +0.000 A 
ATOM      4  C   UNL     1      43.536   7.259  11.066  0.00  0.00    +0.000 A 
ATOM      5  C   UNL     1      44.520   6.320  11.379  0.00  0.00    +0.000 A 
ATOM      6  C   UNL     1      45.776   6.762  11.834  0.00  0.00    +0.000 A 
ATOM      7  C   UNL     1      46.046   8.128  12.038  0.00  0.00    +0.000 A 
ENDROOT
BRANCH   7   8
ATOM      8  C   UNL     1      47.347   8.574  12.715  0.00  0.00    +0.000 C 
ATOM      9  C   UNL     1      48.551   8.674  11.762  0.00  0.00    +0.000 C 
ATOM     10  C   UNL     1      49.518   7.496  11.831  0.00  0.00    +0.000 C 
ATOM     11  N   UNL     1      49.902   7.196  13.208  0.00  0.00    +0.000 NA
ATOM     12  C   UNL     1      48.731   6.756  13.958  0.00  0.00    +0.000 C 
ATOM     13  C   UNL     1      47.655   7.835  14.038  0.00  0.00    +0.000 C 
ATOM     14  H   UNL     1      50.292   8.033  13.643  0.00  0.00    +0.000 HD
ENDBRANCH   7   8
BRANCH   5  15
ATOM     15  C   UNL     1      44.200   4.846  11.302  0.00  0.00    +0.000 C 
BRANCH  15  16
ATOM     16  O   UNL     1      43.690   4.504  10.012  0.00  0.00    +0.000 OA
BRANCH  16  17
ATOM     17  C   UNL     1      44.642   3.850   9.252  0.00  0.00    +0.000 A 
ATOM     18  C   UNL     1      44.773   2.483   9.424  0.00  0.00    +0.000 A 
ATOM     19  C   UNL     1      45.706   1.805   8.636  0.00  0.00    +0.000 A 
ATOM     20  C   UNL     1      46.475   2.508   7.701  0.00  0.00    +0.000 A 
ATOM     21  C   UNL     1      46.276   3.876   7.619  0.00  0.00    +0.000 A 
ATOM     22  N   UNL     1      45.382   4.561   8.371  0.00  0.00    +0.000 NA
BRANCH  20  23
ATOM     23  C   UNL     1      47.446   1.778   6.849  0.00  0.00    +0.000 C 
ATOM     24  N   UNL     1      48.568   2.424   6.408  0.00  0.00    +0.000 N 
ATOM     25  O   UNL     1      47.252   0.610   6.533  0.00  0.00    +0.000 OA
ATOM     26  H   UNL     1      48.813   3.384   6.580  0.00  0.00    +0.000 HD
ATOM     27  H   UNL     1      49.190   1.891   5.815  0.00  0.00    +0.000 HD
ENDBRANCH  20  23
ENDBRANCH  16  17
ENDBRANCH  15  16
ENDBRANCH   5  15
TORSDOF 5
ENDMDL
MODEL 2
REMARK VINA RESULT:    -6.798      5.169      8.127
REMARK INTER + INTRA:          -9.758
REMARK INTER:                  -9.073
REMARK INTRA:                  -0.685
REMARK UNBOUND:                -0.973
REMARK  Name = 
REMARK  6 active torsions:
REMARK  status: ('A' for Active; 'I' for Inactive)
REMARK    1  A    between atoms: C_1  and  C_2
REMARK    2  A    between atoms: C_5  and  C_6
REMARK    3  A    between atoms: C_6  and  O_7
REMARK    4  A    between atoms: O_7  and  C_8
REMARK    5  A    between atoms: C_11  and  C_12
REMARK    6  A    between atoms: C_18  and  C_19
REMARK                            x       y       z     vdW  Elec       q    Type
REMARK                         _______ _______ _______ _____ _____    ______ ____
ROOT
ATOM      1  C   UNL     1      47.353   7.239  11.379  0.00  0.00    +0.000 C 
ATOM      2  C   UNL     1      47.254   6.400  12.627  0.00  0.00    +0.000 A 
ATOM      3  C   UNL     1      48.191   6.644  13.646  0.00  0.00    +0.000 A 
ATOM      4  C   UNL     1      48.171   5.912  14.829  0.00  0.00    +0.000 A 
ATOM      5  C   UNL     1      47.201   4.927  15.025  0.00  0.00    +0.000 A 
ATOM      6  C   UNL     1      46.252   4.684  14.014  0.00  0.00    +0.000 A 
ATOM      7  C   UNL     1      46.293   5.368  12.785  0.00  0.00    +0.000 A 
ENDROOT
BRANCH   7   8
ATOM      8  C   UNL     1      45.376   4.953  11.630  0.00  0.00    +0.000 C 
ATOM      9  C   UNL     1      44.112   5.820  11.486  0.00  0.00    +0.000 C 
ATOM     10  C   UNL     1      42.841   5.192  12.047  0.00  0.00    +0.000 C 
ATOM     11  N   UNL     1      42.656   3.827  11.561  0.00  0.00    +0.000 NA
ATOM     12  C   UNL     1      43.735   2.980  12.056  0.00  0.00    +0.000 C 
ATOM     13  C   UNL     1      45.103   3.432  11.555  0.00  0.00    +0.000 C 
ATOM     14  H   UNL     1      42.661   3.825  10.540  0.00  0.00    +0.000 HD
ENDBRANCH   7   8
BRANCH   5  15
ATOM     15  C   UNL     1      47.230   4.086  16.278  0.00  0.00    +0.000 C 
BRANCH  15  16
ATOM     16  O   UNL     1      48.181   4.600  17.212  0.00  0.00    +0.000 OA
BRANCH  16  17
ATOM     17  C   UNL     1      49.298   3.788  17.293  0.00  0.00    +0.000 A 
ATOM     18  C   UNL     1      50.426   4.306  17.905  0.00  0.00    +0.000 A 
ATOM     19  C   UNL     1      51.548   3.484  18.026  0.00  0.00    +0.000 A 
ATOM     20  C   UNL     1      51.511   2.173  17.536  0.00  0.00    +0.000 A 
ATOM     21  C   UNL     1      50.337   1.758  16.929  0.00  0.00    +0.000 A 
ATOM     22  N   UNL     1      49.235   2.533  16.795  0.00  0.00    +0.000 NA
BRANCH  20  23
ATOM     23  C   UNL     1      52.697   1.296  17.691  0.00  0.00    +0.000 C 
ATOM     24  N   UNL     1      52.535   0.032  18.191  0.00  0.00    +0.000 N 
ATOM     25  O   UNL     1      53.815   1.690  17.383  0.00  0.00    +0.000 OA
ATOM     26  H   UNL     1      51.674  -0.383  18.502  0.00  0.00    +0.000 HD
ATOM     27  H   UNL     1      53.375  -0.521  18.295  0.00  0.00    +0.000 HD
ENDBRANCH  20  23
ENDBRANCH  16  17
ENDBRANCH  15  16
ENDBRANCH   5  15
TORSDOF 5
ENDMDL
MODEL 3
REMARK VINA RESULT:    -6.403      4.296      8.036
REMARK INTER + INTRA:          -9.249
REMARK INTER:                  -8.422
REMARK INTRA:                  -0.826
REMARK UNBOUND:                -0.973
REMARK  Name = 
REMARK  6 active torsions:
REMARK  status: ('A' for Active; 'I' for Inactive)
REMARK    1  A    between atoms: C_1  and  C_2
REMARK    2  A    between atoms: C_5  and  C_6
REMARK    3  A    between atoms: C_6  and  O_7
REMARK    4  A    between atoms: O_7  and  C_8
REMARK    5  A    between atoms: C_11  and  C_12
REMARK    6  A    between atoms: C_18  and  C_19
REMARK                            x       y       z     vdW  Elec       q    Type
REMARK                         _______ _______ _______ _____ _____    ______ ____
ROOT
ATOM      1  C   UNL     1      43.865   8.445  11.014  0.00  0.00    +0.000 C 
ATOM      2  C   UNL     1      44.885   7.689  11.824  0.00  0.00    +0.000 A 
ATOM      3  C   UNL     1      45.859   8.443  12.503  0.00  0.00    +0.000 A 
ATOM      4  C   UNL     1      46.839   7.822  13.271  0.00  0.00    +0.000 A 
ATOM      5  C   UNL     1      46.857   6.432  13.391  0.00  0.00    +0.000 A 
ATOM      6  C   UNL     1      45.878   5.670  12.725  0.00  0.00    +0.000 A 
ATOM      7  C   UNL     1      44.917   6.272  11.892  0.00  0.00    +0.000 A 
ENDROOT
BRANCH   7   8
ATOM      8  C   UNL     1      43.988   5.415  11.026  0.00  0.00    +0.000 C 
ATOM      9  C   UNL     1      42.999   4.550  11.828  0.00  0.00    +0.000 C 
ATOM     10  C   UNL     1      43.395   3.083  11.957  0.00  0.00    +0.000 C 
ATOM     11  N   UNL     1      43.740   2.503  10.661  0.00  0.00    +0.000 NA
ATOM     12  C   UNL     1      44.930   3.161  10.131  0.00  0.00    +0.000 C 
ATOM     13  C   UNL     1      44.709   4.651   9.890  0.00  0.00    +0.000 C 
ATOM     14  H   UNL     1      42.962   2.631  10.012  0.00  0.00    +0.000 HD
ENDBRANCH   7   8
BRANCH   5  15
ATOM     15  C   UNL     1      47.966   5.760  14.165  0.00  0.00    +0.000 C 
BRANCH  15  16
ATOM     16  O   UNL     1      47.491   4.574  14.805  0.00  0.00    +0.000 OA
BRANCH  16  17
ATOM     17  C   UNL     1      47.847   4.547  16.141  0.00  0.00    +0.000 A 
ATOM     18  C   UNL     1      47.781   3.330  16.799  0.00  0.00    +0.000 A 
ATOM     19  C   UNL     1      48.173   3.281  18.138  0.00  0.00    +0.000 A 
ATOM     20  C   UNL     1      48.621   4.443  18.779  0.00  0.00    +0.000 A 
ATOM     21  C   UNL     1      48.636   5.611  18.034  0.00  0.00    +0.000 A 
ATOM     22  N   UNL     1      48.258   5.689  16.736  0.00  0.00    +0.000 NA
BRANCH  20  23
ATOM     23  C   UNL     1      49.061   4.379  20.194  0.00  0.00    +0.000 C 
ATOM     24  N   UNL     1      50.400   4.355  20.478  0.00  0.00    +0.000 N 
ATOM     25  O   UNL     1      48.244   4.342  21.106  0.00  0.00    +0.000 OA
ATOM     26  H   UNL     1      51.153   4.351  19.813  0.00  0.00    +0.000 HD
ATOM     27  H   UNL     1      50.650   4.292  21.456  0.00  0.00    +0.000 HD
ENDBRANCH  20  23
ENDBRANCH  16  17
ENDBRANCH  15  16
ENDBRANCH   5  15
TORSDOF 5
ENDMDL
MODEL 4
REMARK VINA RESULT:    -6.402      4.009      6.505
REMARK INTER + INTRA:          -9.246
REMARK INTER:                  -8.201
REMARK INTRA:                  -1.045
REMARK UNBOUND:                -0.973
REMARK  Name = 
REMARK  6 active torsions:
REMARK  status: ('A' for Active; 'I' for Inactive)
REMARK    1  A    between atoms: C_1  and  C_2
REMARK    2  A    between atoms: C_5  and  C_6
REMARK    3  A    between atoms: C_6  and  O_7
REMARK    4  A    between atoms: O_7  and  C_8
REMARK    5  A    between atoms: C_11  and  C_12
REMARK    6  A    between atoms: C_18  and  C_19
REMARK                            x       y       z     vdW  Elec       q    Type
REMARK                         _______ _______ _______ _____ _____    ______ ____
ROOT
ATOM      1  C   UNL     1      48.156   8.600  19.185  0.00  0.00    +0.000 C 
ATOM      2  C   UNL     1      48.406   8.188  17.757  0.00  0.00    +0.000 A 
ATOM      3  C   UNL     1      48.149   9.141  16.755  0.00  0.00    +0.000 A 
ATOM      4  C   UNL     1      48.351   8.841  15.412  0.00  0.00    +0.000 A 
ATOM      5  C   UNL     1      48.830   7.583  15.041  0.00  0.00    +0.000 A 
ATOM      6  C   UNL     1      49.101   6.628  16.038  0.00  0.00    +0.000 A 
ATOM      7  C   UNL     1      48.844   6.888  17.397  0.00  0.00    +0.000 A 
ENDROOT
BRANCH   7   8
ATOM      8  C   UNL     1      48.961   5.772  18.441  0.00  0.00    +0.000 C 
ATOM      9  C   UNL     1      50.353   5.119  18.512  0.00  0.00    +0.000 C 
ATOM     10  C   UNL     1      50.462   3.772  17.806  0.00  0.00    +0.000 C 
ATOM     11  N   UNL     1      49.386   2.868  18.204  0.00  0.00    +0.000 NA
ATOM     12  C   UNL     1      48.104   3.410  17.768  0.00  0.00    +0.000 C 
ATOM     13  C   UNL     1      47.794   4.757  18.415  0.00  0.00    +0.000 C 
ATOM     14  H   UNL     1      49.385   2.764  19.220  0.00  0.00    +0.000 HD
ENDBRANCH   7   8
BRANCH   5  15
ATOM     15  C   UNL     1      48.976   7.238  13.578  0.00  0.00    +0.000 C 
BRANCH  15  16
ATOM     16  O   UNL     1      48.506   5.914  13.321  0.00  0.00    +0.000 OA
BRANCH  16  17
ATOM     17  C   UNL     1      47.184   5.919  12.917  0.00  0.00    +0.000 A 
ATOM     18  C   UNL     1      46.846   6.712  11.834  0.00  0.00    +0.000 A 
ATOM     19  C   UNL     1      45.521   6.698  11.394  0.00  0.00    +0.000 A 
ATOM     20  C   UNL     1      44.576   5.894  12.042  0.00  0.00    +0.000 A 
ATOM     21  C   UNL     1      45.016   5.149  13.125  0.00  0.00    +0.000 A 
ATOM     22  N   UNL     1      46.292   5.145  13.576  0.00  0.00    +0.000 NA
BRANCH  20  23
ATOM     23  C   UNL     1      43.176   5.863  11.554  0.00  0.00    +0.000 C 
ATOM     24  N   UNL     1      42.577   7.030  11.163  0.00  0.00    +0.000 N 
ATOM     25  O   UNL     1      42.550   4.811  11.501  0.00  0.00    +0.000 OA
ATOM     26  H   UNL     1      42.982   7.949  11.191  0.00  0.00    +0.000 HD
ATOM     27  H   UNL     1      41.616   6.961  10.855  0.00  0.00    +0.000 HD
ENDBRANCH  20  23
ENDBRANCH  16  17
ENDBRANCH  15  16
ENDBRANCH   5  15
TORSDOF 5
ENDMDL
MODEL 5
REMARK VINA RESULT:    -6.364      4.521      7.496
REMARK INTER + INTRA:          -9.198
REMARK INTER:                  -8.291
REMARK INTRA:                  -0.907
REMARK UNBOUND:                -0.973
REMARK  Name = 
REMARK  6 active torsions:
REMARK  status: ('A' for Active; 'I' for Inactive)
REMARK    1  A    between atoms: C_1  and  C_2
REMARK    2  A    between atoms: C_5  and  C_6
REMARK    3  A    between atoms: C_6  and  O_7
REMARK    4  A    between atoms: O_7  and  C_8
REMARK    5  A    between atoms: C_11  and  C_12
REMARK    6  A    between atoms: C_18  and  C_19
REMARK                            x       y       z     vdW  Elec       q    Type
REMARK                         _______ _______ _______ _____ _____    ______ ____
ROOT
ATOM      1  C   UNL     1      52.875   2.694  18.310  0.00  0.00    +0.000 C 
ATOM      2  C   UNL     1      51.499   2.961  17.758  0.00  0.00    +0.000 A 
ATOM      3  C   UNL     1      50.764   1.856  17.293  0.00  0.00    +0.000 A 
ATOM      4  C   UNL     1      49.486   2.015  16.766  0.00  0.00    +0.000 A 
ATOM      5  C   UNL     1      48.908   3.284  16.707  0.00  0.00    +0.000 A 
ATOM      6  C   UNL     1      49.632   4.394  17.181  0.00  0.00    +0.000 A 
ATOM      7  C   UNL     1      50.949   4.265  17.659  0.00  0.00    +0.000 A 
ENDROOT
BRANCH   7   8
ATOM      8  C   UNL     1      51.786   5.506  17.987  0.00  0.00    +0.000 C 
ATOM      9  C   UNL     1      51.182   6.401  19.084  0.00  0.00    +0.000 C 
ATOM     10  C   UNL     1      50.467   7.646  18.570  0.00  0.00    +0.000 C 
ATOM     11  N   UNL     1      51.293   8.386  17.619  0.00  0.00    +0.000 NA
ATOM     12  C   UNL     1      51.519   7.573  16.429  0.00  0.00    +0.000 C 
ATOM     13  C   UNL     1      52.275   6.285  16.743  0.00  0.00    +0.000 C 
ATOM     14  H   UNL     1      52.189   8.615  18.051  0.00  0.00    +0.000 HD
ENDBRANCH   7   8
BRANCH   5  15
ATOM     15  C   UNL     1      47.552   3.461  16.066  0.00  0.00    +0.000 C 
BRANCH  15  16
ATOM     16  O   UNL     1      47.569   3.007  14.711  0.00  0.00    +0.000 OA
BRANCH  16  17
ATOM     17  C   UNL     1      46.799   3.819  13.898  0.00  0.00    +0.000 A 
ATOM     18  C   UNL     1      46.996   5.187  13.986  0.00  0.00    +0.000 A 
ATOM     19  C   UNL     1      46.251   6.015  13.144  0.00  0.00    +0.000 A 
ATOM     20  C   UNL     1      45.337   5.458  12.242  0.00  0.00    +0.000 A 
ATOM     21  C   UNL     1      45.206   4.078  12.246  0.00  0.00    +0.000 A 
ATOM     22  N   UNL     1      45.912   3.250  13.051  0.00  0.00    +0.000 NA
BRANCH  20  23
ATOM     23  C   UNL     1      44.568   6.342  11.333  0.00  0.00    +0.000 C 
ATOM     24  N   UNL     1      43.454   5.852  10.707  0.00  0.00    +0.000 N 
ATOM     25  O   UNL     1      44.919   7.498  11.133  0.00  0.00    +0.000 OA
ATOM     26  H   UNL     1      43.092   4.917  10.774  0.00  0.00    +0.000 HD
ATOM     27  H   UNL     1      42.974   6.487  10.083  0.00  0.00    +0.000 HD
ENDBRANCH  20  23
ENDBRANCH  16  17
ENDBRANCH  15  16
ENDBRANCH   5  15
TORSDOF 5
ENDMDL
MODEL 6
REMARK VINA RESULT:    -6.179      3.791      6.528
REMARK INTER + INTRA:          -8.959
REMARK INTER:                  -7.998
REMARK INTRA:                  -0.960
REMARK UNBOUND:                -0.973
REMARK  Name = 
REMARK  6 active torsions:
REMARK  status: ('A' for Active; 'I' for Inactive)
REMARK    1  A    between atoms: C_1  and  C_2
REMARK    2  A    between atoms: C_5  and  C_6
REMARK    3  A    between atoms: C_6  and  O_7
REMARK    4  A    between atoms: O_7  and  C_8
REMARK    5  A    between atoms: C_11  and  C_12
REMARK    6  A    between atoms: C_18  and  C_19
REMARK                            x       y       z     vdW  Elec       q    Type
REMARK                         _______ _______ _______ _____ _____    ______ ____
ROOT
ATOM      1  C   UNL     1      51.382   6.219  18.990  0.00  0.00    +0.000 C 
ATOM      2  C   UNL     1      50.308   5.578  18.151  0.00  0.00    +0.000 A 
ATOM      3  C   UNL     1      50.115   4.193  18.295  0.00  0.00    +0.000 A 
ATOM      4  C   UNL     1      49.146   3.523  17.555  0.00  0.00    +0.000 A 
ATOM      5  C   UNL     1      48.336   4.228  16.664  0.00  0.00    +0.000 A 
ATOM      6  C   UNL     1      48.514   5.617  16.522  0.00  0.00    +0.000 A 
ATOM      7  C   UNL     1      49.529   6.304  17.213  0.00  0.00    +0.000 A 
ENDROOT
BRANCH   7   8
ATOM      8  C   UNL     1      49.831   7.773  16.898  0.00  0.00    +0.000 C 
ATOM      9  C   UNL     1      49.124   8.775  17.829  0.00  0.00    +0.000 C 
ATOM     10  C   UNL     1      47.884   9.432  17.233  0.00  0.00    +0.000 C 
ATOM     11  N   UNL     1      48.150   9.977  15.904  0.00  0.00    +0.000 NA
ATOM     12  C   UNL     1      48.469   8.890  14.984  0.00  0.00    +0.000 C 
ATOM     13  C   UNL     1      49.727   8.133  15.397  0.00  0.00    +0.000 C 
ATOM     14  H   UNL     1      48.936  10.626  15.952  0.00  0.00    +0.000 HD
ENDBRANCH   7   8
BRANCH   5  15
ATOM     15  C   UNL     1      47.337   3.485  15.809  0.00  0.00    +0.000 C 
BRANCH  15  16
ATOM     16  O   UNL     1      47.731   3.503  14.436  0.00  0.00    +0.000 OA
BRANCH  16  17
ATOM     17  C   UNL     1      46.715   3.975  13.626  0.00  0.00    +0.000 A 
ATOM     18  C   UNL     1      46.626   5.343  13.438  0.00  0.00    +0.000 A 
ATOM     19  C   UNL     1      45.626   5.830  12.594  0.00  0.00    +0.000 A 
ATOM     20  C   UNL     1      44.749   4.940  11.962  0.00  0.00    +0.000 A 
ATOM     21  C   UNL     1      44.916   3.591  12.229  0.00  0.00    +0.000 A 
ATOM     22  N   UNL     1      45.873   3.091  13.045  0.00  0.00    +0.000 NA
BRANCH  20  23
ATOM     23  C   UNL     1      43.706   5.461  11.045  0.00  0.00    +0.000 C 
ATOM     24  N   UNL     1      43.209   6.721  11.244  0.00  0.00    +0.000 N 
ATOM     25  O   UNL     1      43.282   4.779  10.120  0.00  0.00    +0.000 OA
ATOM     26  H   UNL     1      43.460   7.354  11.983  0.00  0.00    +0.000 HD
ATOM     27  H   UNL     1      42.486   7.024  10.605  0.00  0.00    +0.000 HD
ENDBRANCH  20  23
ENDBRANCH  16  17
ENDBRANCH  15  16
ENDBRANCH   5  15
TORSDOF 5
ENDMDL
MODEL 7
REMARK VINA RESULT:    -5.963      4.536      7.897
REMARK INTER + INTRA:          -8.680
REMARK INTER:                  -9.091
REMARK INTRA:                   0.411
REMARK UNBOUND:                -0.973
REMARK  Name = 
REMARK  6 active torsions:
REMARK  status: ('A' for Active; 'I' for Inactive)
REMARK    1  A    between atoms: C_1  and  C_2
REMARK    2  A    between atoms: C_5  and  C_6
REMARK    3  A    between atoms: C_6  and  O_7
REMARK    4  A    between atoms: O_7  and  C_8
REMARK    5  A    between atoms: C_11  and  C_12
REMARK    6  A    between atoms: C_18  and  C_19
REMARK                            x       y       z     vdW  Elec       q    Type
REMARK                         _______ _______ _______ _____ _____    ______ ____
ROOT
ATOM      1  C   UNL     1      45.537   6.081  10.598  0.00  0.00    +0.000 C 
ATOM      2  C   UNL     1      46.394   6.226  11.829  0.00  0.00    +0.000 A 
ATOM      3  C   UNL     1      47.546   7.025  11.723  0.00  0.00    +0.000 A 
ATOM      4  C   UNL     1      48.393   7.208  12.812  0.00  0.00    +0.000 A 
ATOM      5  C   UNL     1      48.097   6.608  14.036  0.00  0.00    +0.000 A 
ATOM      6  C   UNL     1      46.940   5.816  14.154  0.00  0.00    +0.000 A 
ATOM      7  C   UNL     1      46.103   5.565  13.050  0.00  0.00    +0.000 A 
ENDROOT
BRANCH   7   8
ATOM      8  C   UNL     1      44.962   4.547  13.151  0.00  0.00    +0.000 C 
ATOM      9  C   UNL     1      45.149   3.302  12.265  0.00  0.00    +0.000 C 
ATOM     10  C   UNL     1      44.342   3.313  10.971  0.00  0.00    +0.000 C 
ATOM     11  N   UNL     1      42.939   3.635  11.215  0.00  0.00    +0.000 NA
ATOM     12  C   UNL     1      42.831   4.997  11.729  0.00  0.00    +0.000 C 
ATOM     13  C   UNL     1      43.549   5.171  13.063  0.00  0.00    +0.000 C 
ATOM     14  H   UNL     1      42.552   2.981  11.897  0.00  0.00    +0.000 HD
ENDBRANCH   7   8
BRANCH   5  15
ATOM     15  C   UNL     1      49.059   6.749  15.193  0.00  0.00    +0.000 C 
BRANCH  15  16
ATOM     16  O   UNL     1      48.526   6.143  16.372  0.00  0.00    +0.000 OA
BRANCH  16  17
ATOM     17  C   UNL     1      49.314   5.088  16.794  0.00  0.00    +0.000 A 
ATOM     18  C   UNL     1      48.708   3.851  16.937  0.00  0.00    +0.000 A 
ATOM     19  C   UNL     1      49.500   2.769  17.328  0.00  0.00    +0.000 A 
ATOM     20  C   UNL     1      50.868   2.952  17.562  0.00  0.00    +0.000 A 
ATOM     21  C   UNL     1      51.371   4.233  17.405  0.00  0.00    +0.000 A 
ATOM     22  N   UNL     1      50.627   5.301  17.030  0.00  0.00    +0.000 NA
BRANCH  20  23
ATOM     23  C   UNL     1      51.709   1.794  17.952  0.00  0.00    +0.000 C 
ATOM     24  N   UNL     1      52.871   2.012  18.640  0.00  0.00    +0.000 N 
ATOM     25  O   UNL     1      51.379   0.650  17.661  0.00  0.00    +0.000 OA
ATOM     26  H   UNL     1      53.252   2.904  18.905  0.00  0.00    +0.000 HD
ATOM     27  H   UNL     1      53.419   1.193  18.867  0.00  0.00    +0.000 HD
ENDBRANCH  20  23
ENDBRANCH  16  17
ENDBRANCH  15  16
ENDBRANCH   5  15
TORSDOF 5
ENDMDL
MODEL 8
REMARK VINA RESULT:    -5.874      2.987      8.001
REMARK INTER + INTRA:          -8.564
REMARK INTER:                  -8.091
REMARK INTRA:                  -0.473
REMARK UNBOUND:                -0.973
REMARK  Name = 
REMARK  6 active torsions:
REMARK  status: ('A' for Active; 'I' for Inactive)
REMARK    1  A    between atoms: C_1  and  C_2
REMARK    2  A    between atoms: C_5  and  C_6
REMARK    3  A    between atoms: C_6  and  O_7
REMARK    4  A    between atoms: O_7  and  C_8
REMARK    5  A    between atoms: C_11  and  C_12
REMARK    6  A    between atoms: C_18  and  C_19
REMARK                            x       y       z     vdW  Elec       q    Type
REMARK                         _______ _______ _______ _____ _____    ______ ____
ROOT
ATOM      1  C   UNL     1      43.245   2.283  11.743  0.00  0.00    +0.000 C 
ATOM      2  C   UNL     1      44.105   3.520  11.713  0.00  0.00    +0.000 A 
ATOM      3  C   UNL     1      44.236   4.244  12.911  0.00  0.00    +0.000 A 
ATOM      4  C   UNL     1      45.010   5.399  12.969  0.00  0.00    +0.000 A 
ATOM      5  C   UNL     1      45.683   5.847  11.831  0.00  0.00    +0.000 A 
ATOM      6  C   UNL     1      45.567   5.121  10.632  0.00  0.00    +0.000 A 
ATOM      7  C   UNL     1      44.740   3.987  10.534  0.00  0.00    +0.000 A 
ENDROOT
BRANCH   7   8
ATOM      8  C   UNL     1      44.475   3.328   9.175  0.00  0.00    +0.000 C 
ATOM      9  C   UNL     1      44.860   1.840   9.112  0.00  0.00    +0.000 C 
ATOM     10  C   UNL     1      46.188   1.554   8.418  0.00  0.00    +0.000 C 
ATOM     11  N   UNL     1      46.272   2.222   7.122  0.00  0.00    +0.000 NA
ATOM     12  C   UNL     1      46.260   3.668   7.314  0.00  0.00    +0.000 C 
ATOM     13  C   UNL     1      44.969   4.155   7.965  0.00  0.00    +0.000 C 
ATOM     14  H   UNL     1      45.475   1.948   6.544  0.00  0.00    +0.000 HD
ENDBRANCH   7   8
BRANCH   5  15
ATOM     15  C   UNL     1      46.460   7.141  11.881  0.00  0.00    +0.000 C 
BRANCH  15  16
ATOM     16  O   UNL     1      47.838   6.894  12.170  0.00  0.00    +0.000 OA
BRANCH  16  17
ATOM     17  C   UNL     1      48.151   7.250  13.469  0.00  0.00    +0.000 A 
ATOM     18  C   UNL     1      47.853   8.541  13.871  0.00  0.00    +0.000 A 
ATOM     19  C   UNL     1      48.130   8.903  15.191  0.00  0.00    +0.000 A 
ATOM     20  C   UNL     1      48.693   7.968  16.068  0.00  0.00    +0.000 A 
ATOM     21  C   UNL     1      48.966   6.708  15.561  0.00  0.00    +0.000 A 
ATOM     22  N   UNL     1      48.710   6.331  14.287  0.00  0.00    +0.000 NA
BRANCH  20  23
ATOM     23  C   UNL     1      48.961   8.350  17.476  0.00  0.00    +0.000 C 
ATOM     24  N   UNL     1      50.110   9.030  17.778  0.00  0.00    +0.000 N 
ATOM     25  O   UNL     1      48.173   8.061  18.369  0.00  0.00    +0.000 OA
ATOM     26  H   UNL     1      50.838   9.292  17.136  0.00  0.00    +0.000 HD
ATOM     27  H   UNL     1      50.258   9.252  18.754  0.00  0.00    +0.000 HD
ENDBRANCH  20  23
ENDBRANCH  16  17
ENDBRANCH  15  16
ENDBRANCH   5  15
TORSDOF 5
ENDMDL
MODEL 9
REMARK VINA RESULT:    -5.648      3.256      5.569
REMARK INTER + INTRA:          -8.273
REMARK INTER:                  -7.474
REMARK INTRA:                  -0.799
REMARK UNBOUND:                -0.973
REMARK  Name = 
REMARK  6 active torsions:
REMARK  status: ('A' for Active; 'I' for Inactive)
REMARK    1  A    between atoms: C_1  and  C_2
REMARK    2  A    between atoms: C_5  and  C_6
REMARK    3  A    between atoms: C_6  and  O_7
REMARK    4  A    between atoms: O_7  and  C_8
REMARK    5  A    between atoms: C_11  and  C_12
REMARK    6  A    between atoms: C_18  and  C_19
REMARK                            x       y       z     vdW  Elec       q    Type
REMARK                         _______ _______ _______ _____ _____    ______ ____
ROOT
ATOM      1  C   UNL     1      51.863  11.227  10.066  0.00  0.00    +0.000 C 
ATOM      2  C   UNL     1      51.107  10.073  10.671  0.00  0.00    +0.000 A 
ATOM      3  C   UNL     1      49.888  10.362  11.308  0.00  0.00    +0.000 A 
ATOM      4  C   UNL     1      49.129   9.354  11.894  0.00  0.00    +0.000 A 
ATOM      5  C   UNL     1      49.566   8.030  11.842  0.00  0.00    +0.000 A 
ATOM      6  C   UNL     1      50.780   7.730  11.196  0.00  0.00    +0.000 A 
ATOM      7  C   UNL     1      51.594   8.741  10.652  0.00  0.00    +0.000 A 
ENDROOT
BRANCH   7   8
ATOM      8  C   UNL     1      52.998   8.415  10.128  0.00  0.00    +0.000 C 
ATOM      9  C   UNL     1      53.051   7.201   9.183  0.00  0.00    +0.000 C 
ATOM     10  C   UNL     1      53.549   5.912   9.829  0.00  0.00    +0.000 C 
ATOM     11  N   UNL     1      54.796   6.124  10.560  0.00  0.00    +0.000 NA
ATOM     12  C   UNL     1      54.561   7.030  11.679  0.00  0.00    +0.000 C 
ATOM     13  C   UNL     1      54.094   8.408  11.220  0.00  0.00    +0.000 C 
ATOM     14  H   UNL     1      55.494   6.528   9.934  0.00  0.00    +0.000 HD
ENDBRANCH   7   8
BRANCH   5  15
ATOM     15  C   UNL     1      48.776   6.951  12.544  0.00  0.00    +0.000 C 
BRANCH  15  16
ATOM     16  O   UNL     1      47.398   7.315  12.643  0.00  0.00    +0.000 OA
BRANCH  16  17
ATOM     17  C   UNL     1      46.573   6.276  12.255  0.00  0.00    +0.000 A 
ATOM     18  C   UNL     1      45.865   6.425  11.074  0.00  0.00    +0.000 A 
ATOM     19  C   UNL     1      45.057   5.368  10.652  0.00  0.00    +0.000 A 
ATOM     20  C   UNL     1      44.981   4.196  11.415  0.00  0.00    +0.000 A 
ATOM     21  C   UNL     1      45.719   4.155  12.586  0.00  0.00    +0.000 A 
ATOM     22  N   UNL     1      46.509   5.165  13.022  0.00  0.00    +0.000 NA
BRANCH  20  23
ATOM     23  C   UNL     1      44.142   3.067  10.947  0.00  0.00    +0.000 C 
ATOM     24  N   UNL     1      44.635   2.213   9.998  0.00  0.00    +0.000 N 
ATOM     25  O   UNL     1      43.014   2.893  11.394  0.00  0.00    +0.000 OA
ATOM     26  H   UNL     1      45.529   2.277   9.542  0.00  0.00    +0.000 HD
ATOM     27  H   UNL     1      44.018   1.470   9.698  0.00  0.00    +0.000 HD
ENDBRANCH  20  23
ENDBRANCH  16  17
ENDBRANCH  15  16
ENDBRANCH   5  15
TORSDOF 5
ENDMDL
