MODEL 1
REMARK VINA RESULT:    -7.717      0.000      0.000
REMARK INTER + INTRA:         -11.381
REMARK INTER:                 -10.424
REMARK INTRA:                  -0.957
REMARK UNBOUND:                -0.957
REMARK  Name = 
REMARK  7 active torsions:
REMARK  status: ('A' for Active; 'I' for Inactive)
REMARK    1  A    between atoms: C_1  and  C_2
REMARK    2  A    between atoms: C_2  and  N_3
REMARK    3  A    between atoms: C_2  and  C_16
REMARK    4  A    between atoms: C_4  and  C_6
REMARK    5  A    between atoms: C_19  and  C_20
REMARK    6  A    between atoms: C_20  and  N_21
REMARK    7  A    between atoms: C_22  and  C_24
REMARK                            x       y       z     vdW  Elec       q    Type
REMARK                         _______ _______ _______ _____ _____    ______ ____
ROOT
ATOM      1  C   UNL     1      46.792   9.516  13.059  0.00  0.00    +0.000 C 
ATOM      2  C   UNL     1      47.363   8.101  13.213  0.00  0.00    +0.000 C 
ENDROOT
BRANCH   2   3
ATOM      3  C   UNL     1      46.424   7.095  12.551  0.00  0.00    +0.000 A 
ATOM      4  C   UNL     1      46.747   5.728  12.562  0.00  0.00    +0.000 A 
ATOM      5  C   UNL     1      45.925   4.784  11.933  0.00  0.00    +0.000 A 
ATOM      6  C   UNL     1      44.757   5.181  11.271  0.00  0.00    +0.000 A 
ATOM      7  C   UNL     1      44.422   6.541  11.269  0.00  0.00    +0.000 A 
ATOM      8  C   UNL     1      45.257   7.486  11.878  0.00  0.00    +0.000 A 
BRANCH   6   9
ATOM      9  C   UNL     1      43.914   4.183  10.521  0.00  0.00    +0.000 C 
BRANCH   9  10
ATOM     10  N   UNL     1      44.670   3.152   9.860  0.00  0.00    +0.000 N 
ATOM     11  C   UNL     1      45.370   3.431   8.704  0.00  0.00    +0.000 C 
ATOM     12  O   UNL     1      45.382   4.548   8.195  0.00  0.00    +0.000 OA
ATOM     13  H   UNL     1      44.715   2.205  10.224  0.00  0.00    +0.000 HD
BRANCH  11  14
ATOM     14  C   UNL     1      46.085   2.305   8.136  0.00  0.00    +0.000 A 
ATOM     15  N   UNL     1      45.859   1.030   8.402  0.00  0.00    +0.000 NA
ATOM     16  C   UNL     1      46.765   0.330   7.642  0.00  0.00    +0.000 A 
ATOM     17  C   UNL     1      47.549   1.182   6.903  0.00  0.00    +0.000 A 
ATOM     18  N   UNL     1      47.111   2.434   7.228  0.00  0.00    +0.000 N 
ATOM     19  H   UNL     1      47.457   3.319   6.878  0.00  0.00    +0.000 HD
ENDBRANCH  11  14
ENDBRANCH   9  10
ENDBRANCH   6   9
ENDBRANCH   2   3
BRANCH   2  20
ATOM     20  N   UNL     1      47.624   7.765  14.608  0.00  0.00    +0.000 N 
ATOM     21  C   UNL     1      48.811   7.210  15.019  0.00  0.00    +0.000 C 
ATOM     22  O   UNL     1      49.750   7.010  14.253  0.00  0.00    +0.000 OA
ATOM     23  H   UNL     1      46.810   7.605  15.194  0.00  0.00    +0.000 HD
BRANCH  21  24
ATOM     24  C   UNL     1      48.938   6.908  16.448  0.00  0.00    +0.000 A 
ATOM     25  C   UNL     1      49.353   7.903  17.324  0.00  0.00    +0.000 A 
ATOM     26  S   UNL     1      49.502   7.375  18.938  0.00  0.00    +0.000 S 
ATOM     27  C   UNL     1      49.031   5.794  18.520  0.00  0.00    +0.000 A 
ATOM     28  N   UNL     1      48.990   4.806  19.453  0.00  0.00    +0.000 NA
ATOM     29  C   UNL     1      48.631   3.654  18.993  0.00  0.00    +0.000 A 
ATOM     30  N   UNL     1      48.293   3.404  17.687  0.00  0.00    +0.000 N 
ATOM     31  C   UNL     1      48.284   4.379  16.719  0.00  0.00    +0.000 A 
ATOM     32  O   UNL     1      47.899   4.149  15.578  0.00  0.00    +0.000 OA
ATOM     33  C   UNL     1      48.722   5.682  17.176  0.00  0.00    +0.000 A 
ATOM     34  H   UNL     1      47.989   2.486  17.399  0.00  0.00    +0.000 HD
ENDBRANCH  21  24
ENDBRANCH   2  20
TORSDOF 6
ENDMDL
MODEL 2
REMARK VINA RESULT:    -7.436      1.644      2.330
REMARK INTER + INTRA:         -11.001
REMARK INTER:                  -9.868
REMARK INTRA:                  -1.133
REMARK UNBOUND:                -0.957
REMARK  Name = 
REMARK  7 active torsions:
REMARK  status: ('A' for Active; 'I' for Inactive)
REMARK    1  A    between atoms: C_1  and  C_2
REMARK    2  A    between atoms: C_2  and  N_3
REMARK    3  A    between atoms: C_2  and  C_16
REMARK    4  A    between atoms: C_4  and  C_6
REMARK    5  A    between atoms: C_19  and  C_20
REMARK    6  A    between atoms: C_20  and  N_21
REMARK    7  A    between atoms: C_22  and  C_24
REMARK                            x       y       z     vdW  Elec       q    Type
REMARK                         _______ _______ _______ _____ _____    ______ ____
ROOT
ATOM      1  C   UNL     1      47.567   9.091  13.850  0.00  0.00    +0.000 C 
ATOM      2  C   UNL     1      47.988   7.620  13.958  0.00  0.00    +0.000 C 
ENDROOT
BRANCH   2   3
ATOM      3  C   UNL     1      47.097   6.765  13.061  0.00  0.00    +0.000 A 
ATOM      4  C   UNL     1      46.430   7.355  11.975  0.00  0.00    +0.000 A 
ATOM      5  C   UNL     1      45.578   6.605  11.153  0.00  0.00    +0.000 A 
ATOM      6  C   UNL     1      45.366   5.242  11.398  0.00  0.00    +0.000 A 
ATOM      7  C   UNL     1      46.039   4.645  12.470  0.00  0.00    +0.000 A 
ATOM      8  C   UNL     1      46.873   5.401  13.304  0.00  0.00    +0.000 A 
BRANCH   6   9
ATOM      9  C   UNL     1      44.387   4.450  10.571  0.00  0.00    +0.000 C 
BRANCH   9  10
ATOM     10  N   UNL     1      44.979   3.360   9.841  0.00  0.00    +0.000 N 
ATOM     11  C   UNL     1      45.645   3.593   8.655  0.00  0.00    +0.000 C 
ATOM     12  O   UNL     1      45.762   4.717   8.176  0.00  0.00    +0.000 OA
ATOM     13  H   UNL     1      44.931   2.403  10.177  0.00  0.00    +0.000 HD
BRANCH  11  14
ATOM     14  C   UNL     1      46.190   2.409   8.018  0.00  0.00    +0.000 A 
ATOM     15  N   UNL     1      46.059   1.167   8.450  0.00  0.00    +0.000 NA
ATOM     16  C   UNL     1      46.730   0.388   7.538  0.00  0.00    +0.000 A 
ATOM     17  C   UNL     1      47.275   1.159   6.540  0.00  0.00    +0.000 A 
ATOM     18  N   UNL     1      46.928   2.441   6.857  0.00  0.00    +0.000 N 
ATOM     19  H   UNL     1      47.156   3.286   6.348  0.00  0.00    +0.000 HD
ENDBRANCH  11  14
ENDBRANCH   9  10
ENDBRANCH   6   9
ENDBRANCH   2   3
BRANCH   2  20
ATOM     20  N   UNL     1      47.979   7.150  15.339  0.00  0.00    +0.000 N 
ATOM     21  C   UNL     1      49.101   6.640  15.947  0.00  0.00    +0.000 C 
ATOM     22  O   UNL     1      50.195   6.596  15.390  0.00  0.00    +0.000 OA
ATOM     23  H   UNL     1      47.080   6.867  15.715  0.00  0.00    +0.000 HD
BRANCH  21  24
ATOM     24  C   UNL     1      48.952   6.190  17.334  0.00  0.00    +0.000 A 
ATOM     25  C   UNL     1      49.301   4.889  17.673  0.00  0.00    +0.000 A 
ATOM     26  S   UNL     1      49.014   4.508  19.310  0.00  0.00    +0.000 S 
ATOM     27  C   UNL     1      48.400   6.065  19.619  0.00  0.00    +0.000 A 
ATOM     28  N   UNL     1      47.926   6.399  20.849  0.00  0.00    +0.000 NA
ATOM     29  C   UNL     1      47.477   7.607  20.937  0.00  0.00    +0.000 A 
ATOM     30  N   UNL     1      47.474   8.516  19.910  0.00  0.00    +0.000 N 
ATOM     31  C   UNL     1      47.977   8.235  18.662  0.00  0.00    +0.000 A 
ATOM     32  O   UNL     1      48.039   9.090  17.786  0.00  0.00    +0.000 OA
ATOM     33  C   UNL     1      48.454   6.877  18.500  0.00  0.00    +0.000 A 
ATOM     34  H   UNL     1      47.137   9.457  20.054  0.00  0.00    +0.000 HD
ENDBRANCH  21  24
ENDBRANCH   2  20
TORSDOF 6
ENDMDL
MODEL 3
REMARK VINA RESULT:    -7.234      4.568      9.334
REMARK INTER + INTRA:         -10.729
REMARK INTER:                  -9.933
REMARK INTRA:                  -0.796
REMARK UNBOUND:                -0.957
REMARK  Name = 
REMARK  7 active torsions:
REMARK  status: ('A' for Active; 'I' for Inactive)
REMARK    1  A    between atoms: C_1  and  C_2
REMARK    2  A    between atoms: C_2  and  N_3
REMARK    3  A    between atoms: C_2  and  C_16
REMARK    4  A    between atoms: C_4  and  C_6
REMARK    5  A    between atoms: C_19  and  C_20
REMARK    6  A    between atoms: C_20  and  N_21
REMARK    7  A    between atoms: C_22  and  C_24
REMARK                            x       y       z     vdW  Elec       q    Type
REMARK                         _______ _______ _______ _____ _____    ______ ____
ROOT
ATOM      1  C   UNL     1      47.080   5.126  18.595  0.00  0.00    +0.000 C 
ATOM      2  C   UNL     1      47.476   4.318  17.353  0.00  0.00    +0.000 C 
ENDROOT
BRANCH   2   3
ATOM      3  C   UNL     1      48.917   3.833  17.494  0.00  0.00    +0.000 A 
ATOM      4  C   UNL     1      49.929   4.746  17.830  0.00  0.00    +0.000 A 
ATOM      5  C   UNL     1      51.266   4.340  17.932  0.00  0.00    +0.000 A 
ATOM      6  C   UNL     1      51.629   3.008  17.697  0.00  0.00    +0.000 A 
ATOM      7  C   UNL     1      50.622   2.090  17.376  0.00  0.00    +0.000 A 
ATOM      8  C   UNL     1      49.289   2.502  17.251  0.00  0.00    +0.000 A 
BRANCH   6   9
ATOM      9  C   UNL     1      53.074   2.583  17.722  0.00  0.00    +0.000 C 
BRANCH   9  10
ATOM     10  N   UNL     1      53.310   1.339  18.407  0.00  0.00    +0.000 N 
ATOM     11  C   UNL     1      53.921   0.287  17.755  0.00  0.00    +0.000 C 
ATOM     12  O   UNL     1      54.287   0.361  16.585  0.00  0.00    +0.000 OA
ATOM     13  H   UNL     1      53.043   1.203  19.378  0.00  0.00    +0.000 HD
BRANCH  11  14
ATOM     14  C   UNL     1      54.095  -0.910  18.555  0.00  0.00    +0.000 A 
ATOM     15  N   UNL     1      55.250  -1.416  18.951  0.00  0.00    +0.000 NA
ATOM     16  C   UNL     1      54.930  -2.537  19.678  0.00  0.00    +0.000 A 
ATOM     17  C   UNL     1      53.569  -2.717  19.730  0.00  0.00    +0.000 A 
ATOM     18  N   UNL     1      53.049  -1.680  19.011  0.00  0.00    +0.000 N 
ATOM     19  H   UNL     1      52.073  -1.483  18.829  0.00  0.00    +0.000 HD
ENDBRANCH  11  14
ENDBRANCH   9  10
ENDBRANCH   6   9
ENDBRANCH   2   3
BRANCH   2  20
ATOM     20  N   UNL     1      47.274   5.074  16.122  0.00  0.00    +0.000 N 
ATOM     21  C   UNL     1      47.197   4.466  14.892  0.00  0.00    +0.000 C 
ATOM     22  O   UNL     1      47.239   3.248  14.751  0.00  0.00    +0.000 OA
ATOM     23  H   UNL     1      47.554   6.050  16.140  0.00  0.00    +0.000 HD
BRANCH  21  24
ATOM     24  C   UNL     1      47.007   5.345  13.734  0.00  0.00    +0.000 A 
ATOM     25  C   UNL     1      48.038   6.188  13.338  0.00  0.00    +0.000 A 
ATOM     26  S   UNL     1      47.636   7.183  12.013  0.00  0.00    +0.000 S 
ATOM     27  C   UNL     1      46.066   6.532  11.933  0.00  0.00    +0.000 A 
ATOM     28  N   UNL     1      45.165   6.988  11.022  0.00  0.00    +0.000 NA
ATOM     29  C   UNL     1      44.009   6.416  11.084  0.00  0.00    +0.000 A 
ATOM     30  N   UNL     1      43.677   5.418  11.963  0.00  0.00    +0.000 N 
ATOM     31  C   UNL     1      44.566   4.900  12.875  0.00  0.00    +0.000 A 
ATOM     32  O   UNL     1      44.271   3.952  13.594  0.00  0.00    +0.000 OA
ATOM     33  C   UNL     1      45.866   5.539  12.875  0.00  0.00    +0.000 A 
ATOM     34  H   UNL     1      42.763   4.989  11.938  0.00  0.00    +0.000 HD
ENDBRANCH  21  24
ENDBRANCH   2  20
TORSDOF 6
ENDMDL
MODEL 4
REMARK VINA RESULT:    -7.196      2.472      4.166
REMARK INTER + INTRA:         -10.678
REMARK INTER:                  -9.535
REMARK INTRA:                  -1.143
REMARK UNBOUND:                -0.957
REMARK  Name = 
REMARK  7 active torsions:
REMARK  status: ('A' for Active; 'I' for Inactive)
REMARK    1  A    between atoms: C_1  and  C_2
REMARK    2  A    between atoms: C_2  and  N_3
REMARK    3  A    between atoms: C_2  and  C_16
REMARK    4  A    between atoms: C_4  and  C_6
REMARK    5  A    between atoms: C_19  and  C_20
REMARK    6  A    between atoms: C_20  and  N_21
REMARK    7  A    between atoms: C_22  and  C_24
REMARK                            x       y       z     vdW  Elec       q    Type
REMARK                         _______ _______ _______ _____ _____    ______ ____
ROOT
ATOM      1  C   UNL     1      47.379   4.149  15.674  0.00  0.00    +0.000 C 
ATOM      2  C   UNL     1      47.152   5.435  14.869  0.00  0.00    +0.000 C 
ENDROOT
BRANCH   2   3
ATOM      3  C   UNL     1      46.264   5.135  13.664  0.00  0.00    +0.000 A 
ATOM      4  C   UNL     1      46.084   3.807  13.244  0.00  0.00    +0.000 A 
ATOM      5  C   UNL     1      45.305   3.501  12.121  0.00  0.00    +0.000 A 
ATOM      6  C   UNL     1      44.686   4.517  11.382  0.00  0.00    +0.000 A 
ATOM      7  C   UNL     1      44.850   5.842  11.804  0.00  0.00    +0.000 A 
ATOM      8  C   UNL     1      45.648   6.148  12.913  0.00  0.00    +0.000 A 
BRANCH   6   9
ATOM      9  C   UNL     1      43.917   4.203  10.125  0.00  0.00    +0.000 C 
BRANCH   9  10
ATOM     10  N   UNL     1      44.666   3.456   9.148  0.00  0.00    +0.000 N 
ATOM     11  C   UNL     1      45.649   4.072   8.401  0.00  0.00    +0.000 C 
ATOM     12  O   UNL     1      45.928   5.260   8.531  0.00  0.00    +0.000 OA
ATOM     13  H   UNL     1      44.499   2.467   8.988  0.00  0.00    +0.000 HD
BRANCH  11  14
ATOM     14  C   UNL     1      46.324   3.209   7.450  0.00  0.00    +0.000 A 
ATOM     15  N   UNL     1      46.583   1.924   7.618  0.00  0.00    +0.000 NA
ATOM     16  C   UNL     1      47.225   1.526   6.470  0.00  0.00    +0.000 A 
ATOM     17  C   UNL     1      47.358   2.574   5.592  0.00  0.00    +0.000 A 
ATOM     18  N   UNL     1      46.785   3.639   6.226  0.00  0.00    +0.000 N 
ATOM     19  H   UNL     1      46.696   4.588   5.883  0.00  0.00    +0.000 HD
ENDBRANCH  11  14
ENDBRANCH   9  10
ENDBRANCH   6   9
ENDBRANCH   2   3
BRANCH   2  20
ATOM     20  N   UNL     1      48.408   6.064  14.477  0.00  0.00    +0.000 N 
ATOM     21  C   UNL     1      49.053   6.974  15.279  0.00  0.00    +0.000 C 
ATOM     22  O   UNL     1      48.648   7.278  16.397  0.00  0.00    +0.000 OA
ATOM     23  H   UNL     1      48.602   6.103  13.482  0.00  0.00    +0.000 HD
BRANCH  21  24
ATOM     24  C   UNL     1      50.301   7.542  14.758  0.00  0.00    +0.000 A 
ATOM     25  C   UNL     1      51.452   7.493  15.535  0.00  0.00    +0.000 A 
ATOM     26  S   UNL     1      52.799   8.244  14.809  0.00  0.00    +0.000 S 
ATOM     27  C   UNL     1      51.887   8.674  13.438  0.00  0.00    +0.000 A 
ATOM     28  N   UNL     1      52.442   9.392  12.426  0.00  0.00    +0.000 NA
ATOM     29  C   UNL     1      51.631   9.660  11.457  0.00  0.00    +0.000 A 
ATOM     30  N   UNL     1      50.321   9.261  11.401  0.00  0.00    +0.000 N 
ATOM     31  C   UNL     1      49.729   8.503  12.383  0.00  0.00    +0.000 A 
ATOM     32  O   UNL     1      48.580   8.089  12.271  0.00  0.00    +0.000 OA
ATOM     33  C   UNL     1      50.586   8.212  13.514  0.00  0.00    +0.000 A 
ATOM     34  H   UNL     1      49.748   9.477  10.598  0.00  0.00    +0.000 HD
ENDBRANCH  21  24
ENDBRANCH   2  20
TORSDOF 6
ENDMDL
MODEL 5
REMARK VINA RESULT:    -7.192      3.454      8.248
REMARK INTER + INTRA:         -10.672
REMARK INTER:                  -9.642
REMARK INTRA:                  -1.030
REMARK UNBOUND:                -0.957
REMARK  Name = 
REMARK  7 active torsions:
REMARK  status: ('A' for Active; 'I' for Inactive)
REMARK    1  A    between atoms: C_1  and  C_2
REMARK    2  A    between atoms: C_2  and  N_3
REMARK    3  A    between atoms: C_2  and  C_16
REMARK    4  A    between atoms: C_4  and  C_6
REMARK    5  A    between atoms: C_19  and  C_20
REMARK    6  A    between atoms: C_20  and  N_21
REMARK    7  A    between atoms: C_22  and  C_24
REMARK                            x       y       z     vdW  Elec       q    Type
REMARK                         _______ _______ _______ _____ _____    ______ ____
ROOT
ATOM      1  C   UNL     1      49.433   8.420  11.506  0.00  0.00    +0.000 C 
ATOM      2  C   UNL     1      48.327   7.824  12.385  0.00  0.00    +0.000 C 
ENDROOT
BRANCH   2   3
ATOM      3  C   UNL     1      48.921   7.366  13.716  0.00  0.00    +0.000 A 
ATOM      4  C   UNL     1      48.161   6.558  14.576  0.00  0.00    +0.000 A 
ATOM      5  C   UNL     1      48.664   6.150  15.819  0.00  0.00    +0.000 A 
ATOM      6  C   UNL     1      49.941   6.544  16.238  0.00  0.00    +0.000 A 
ATOM      7  C   UNL     1      50.709   7.338  15.378  0.00  0.00    +0.000 A 
ATOM      8  C   UNL     1      50.196   7.764  14.146  0.00  0.00    +0.000 A 
BRANCH   6   9
ATOM      9  C   UNL     1      50.454   6.179  17.607  0.00  0.00    +0.000 C 
BRANCH   9  10
ATOM     10  N   UNL     1      51.303   5.017  17.627  0.00  0.00    +0.000 N 
ATOM     11  C   UNL     1      50.758   3.756  17.754  0.00  0.00    +0.000 C 
ATOM     12  O   UNL     1      49.549   3.568  17.853  0.00  0.00    +0.000 OA
ATOM     13  H   UNL     1      52.313   5.091  17.543  0.00  0.00    +0.000 HD
BRANCH  11  14
ATOM     14  C   UNL     1      51.722   2.672  17.766  0.00  0.00    +0.000 A 
ATOM     15  N   UNL     1      53.037   2.805  17.781  0.00  0.00    +0.000 NA
ATOM     16  C   UNL     1      53.536   1.525  17.790  0.00  0.00    +0.000 A 
ATOM     17  C   UNL     1      52.520   0.602  17.784  0.00  0.00    +0.000 A 
ATOM     18  N   UNL     1      51.372   1.341  17.765  0.00  0.00    +0.000 N 
ATOM     19  H   UNL     1      50.418   1.001  17.755  0.00  0.00    +0.000 HD
ENDBRANCH  11  14
ENDBRANCH   9  10
ENDBRANCH   6   9
ENDBRANCH   2   3
BRANCH   2  20
ATOM     20  N   UNL     1      47.612   6.748  11.710  0.00  0.00    +0.000 N 
ATOM     21  C   UNL     1      46.247   6.759  11.555  0.00  0.00    +0.000 C 
ATOM     22  O   UNL     1      45.545   7.696  11.924  0.00  0.00    +0.000 OA
ATOM     23  H   UNL     1      48.073   5.844  11.686  0.00  0.00    +0.000 HD
BRANCH  21  24
ATOM     24  C   UNL     1      45.652   5.607  10.869  0.00  0.00    +0.000 A 
ATOM     25  C   UNL     1      45.743   5.513   9.485  0.00  0.00    +0.000 A 
ATOM     26  S   UNL     1      44.954   4.146   8.840  0.00  0.00    +0.000 S 
ATOM     27  C   UNL     1      44.451   3.641  10.386  0.00  0.00    +0.000 A 
ATOM     28  N   UNL     1      43.680   2.532  10.544  0.00  0.00    +0.000 NA
ATOM     29  C   UNL     1      43.361   2.276  11.769  0.00  0.00    +0.000 A 
ATOM     30  N   UNL     1      43.756   3.019  12.851  0.00  0.00    +0.000 N 
ATOM     31  C   UNL     1      44.566   4.124  12.743  0.00  0.00    +0.000 A 
ATOM     32  O   UNL     1      44.973   4.722  13.733  0.00  0.00    +0.000 OA
ATOM     33  C   UNL     1      44.917   4.479  11.383  0.00  0.00    +0.000 A 
ATOM     34  H   UNL     1      43.498   2.745  13.788  0.00  0.00    +0.000 HD
ENDBRANCH  21  24
ENDBRANCH   2  20
TORSDOF 6
ENDMDL
MODEL 6
REMARK VINA RESULT:    -7.060      3.252      8.601
REMARK INTER + INTRA:         -10.494
REMARK INTER:                  -9.451
REMARK INTRA:                  -1.043
REMARK UNBOUND:                -0.957
REMARK  Name = 
REMARK  7 active torsions:
REMARK  status: ('A' for Active; 'I' for Inactive)
REMARK    1  A    between atoms: C_1  and  C_2
REMARK    2  A    between atoms: C_2  and  N_3
REMARK    3  A    between atoms: C_2  and  C_16
REMARK    4  A    between atoms: C_4  and  C_6
REMARK    5  A    between atoms: C_19  and  C_20
REMARK    6  A    between atoms: C_20  and  N_21
REMARK    7  A    between atoms: C_22  and  C_24
REMARK                            x       y       z     vdW  Elec       q    Type
REMARK                         _______ _______ _______ _____ _____    ______ ____
ROOT
ATOM      1  C   UNL     1      48.661   7.952  11.480  0.00  0.00    +0.000 C 
ATOM      2  C   UNL     1      47.697   7.417  12.547  0.00  0.00    +0.000 C 
ENDROOT
BRANCH   2   3
ATOM      3  C   UNL     1      48.476   7.071  13.814  0.00  0.00    +0.000 A 
ATOM      4  C   UNL     1      47.931   6.169  14.742  0.00  0.00    +0.000 A 
ATOM      5  C   UNL     1      48.604   5.858  15.931  0.00  0.00    +0.000 A 
ATOM      6  C   UNL     1      49.841   6.444  16.227  0.00  0.00    +0.000 A 
ATOM      7  C   UNL     1      50.395   7.334  15.299  0.00  0.00    +0.000 A 
ATOM      8  C   UNL     1      49.711   7.662  14.121  0.00  0.00    +0.000 A 
BRANCH   6   9
ATOM      9  C   UNL     1      50.529   6.180  17.541  0.00  0.00    +0.000 C 
BRANCH   9  10
ATOM     10  N   UNL     1      51.385   5.022  17.534  0.00  0.00    +0.000 N 
ATOM     11  C   UNL     1      50.890   3.785  17.895  0.00  0.00    +0.000 C 
ATOM     12  O   UNL     1      49.721   3.616  18.230  0.00  0.00    +0.000 OA
ATOM     13  H   UNL     1      52.361   5.080  17.261  0.00  0.00    +0.000 HD
BRANCH  11  14
ATOM     14  C   UNL     1      51.856   2.704  17.851  0.00  0.00    +0.000 A 
ATOM     15  N   UNL     1      53.170   2.840  17.822  0.00  0.00    +0.000 NA
ATOM     16  C   UNL     1      53.671   1.562  17.787  0.00  0.00    +0.000 A 
ATOM     17  C   UNL     1      52.657   0.636  17.797  0.00  0.00    +0.000 A 
ATOM     18  N   UNL     1      51.508   1.373  17.835  0.00  0.00    +0.000 N 
ATOM     19  H   UNL     1      50.555   1.031  17.851  0.00  0.00    +0.000 HD
ENDBRANCH  11  14
ENDBRANCH   9  10
ENDBRANCH   6   9
ENDBRANCH   2   3
BRANCH   2  20
ATOM     20  N   UNL     1      46.919   6.283  12.060  0.00  0.00    +0.000 N 
ATOM     21  C   UNL     1      45.557   6.203  12.227  0.00  0.00    +0.000 C 
ATOM     22  O   UNL     1      44.899   7.101  12.745  0.00  0.00    +0.000 OA
ATOM     23  H   UNL     1      47.422   5.411  11.933  0.00  0.00    +0.000 HD
BRANCH  21  24
ATOM     24  C   UNL     1      44.899   5.002  11.703  0.00  0.00    +0.000 A 
ATOM     25  C   UNL     1      44.072   4.257  12.534  0.00  0.00    +0.000 A 
ATOM     26  S   UNL     1      43.431   2.864  11.790  0.00  0.00    +0.000 S 
ATOM     27  C   UNL     1      44.248   3.201  10.335  0.00  0.00    +0.000 A 
ATOM     28  N   UNL     1      44.161   2.357   9.272  0.00  0.00    +0.000 NA
ATOM     29  C   UNL     1      44.843   2.729   8.240  0.00  0.00    +0.000 A 
ATOM     30  N   UNL     1      45.591   3.876   8.170  0.00  0.00    +0.000 N 
ATOM     31  C   UNL     1      45.678   4.776   9.206  0.00  0.00    +0.000 A 
ATOM     32  O   UNL     1      46.285   5.834   9.089  0.00  0.00    +0.000 OA
ATOM     33  C   UNL     1      44.964   4.382  10.403  0.00  0.00    +0.000 A 
ATOM     34  H   UNL     1      46.076   4.126   7.320  0.00  0.00    +0.000 HD
ENDBRANCH  21  24
ENDBRANCH   2  20
TORSDOF 6
ENDMDL
MODEL 7
REMARK VINA RESULT:    -6.481      5.583      7.999
REMARK INTER + INTRA:          -9.711
REMARK INTER:                  -8.902
REMARK INTRA:                  -0.809
REMARK UNBOUND:                -0.957
REMARK  Name = 
REMARK  7 active torsions:
REMARK  status: ('A' for Active; 'I' for Inactive)
REMARK    1  A    between atoms: C_1  and  C_2
REMARK    2  A    between atoms: C_2  and  N_3
REMARK    3  A    between atoms: C_2  and  C_16
REMARK    4  A    between atoms: C_4  and  C_6
REMARK    5  A    between atoms: C_19  and  C_20
REMARK    6  A    between atoms: C_20  and  N_21
REMARK    7  A    between atoms: C_22  and  C_24
REMARK                            x       y       z     vdW  Elec       q    Type
REMARK                         _______ _______ _______ _____ _____    ______ ____
ROOT
ATOM      1  C   UNL     1      52.889   9.262  12.670  0.00  0.00    +0.000 C 
ATOM      2  C   UNL     1      51.668   9.119  11.753  0.00  0.00    +0.000 C 
ENDROOT
BRANCH   2   3
ATOM      3  C   UNL     1      50.587   8.307  12.462  0.00  0.00    +0.000 A 
ATOM      4  C   UNL     1      50.669   8.099  13.849  0.00  0.00    +0.000 A 
ATOM      5  C   UNL     1      49.712   7.329  14.523  0.00  0.00    +0.000 A 
ATOM      6  C   UNL     1      48.647   6.743  13.829  0.00  0.00    +0.000 A 
ATOM      7  C   UNL     1      48.552   6.959  12.449  0.00  0.00    +0.000 A 
ATOM      8  C   UNL     1      49.522   7.709  11.772  0.00  0.00    +0.000 A 
BRANCH   6   9
ATOM      9  C   UNL     1      47.663   5.845  14.533  0.00  0.00    +0.000 C 
BRANCH   9  10
ATOM     10  N   UNL     1      46.528   5.472  13.731  0.00  0.00    +0.000 N 
ATOM     11  C   UNL     1      46.284   4.145  13.439  0.00  0.00    +0.000 C 
ATOM     12  O   UNL     1      47.008   3.239  13.841  0.00  0.00    +0.000 OA
ATOM     13  H   UNL     1      45.878   6.163  13.369  0.00  0.00    +0.000 HD
BRANCH  11  14
ATOM     14  C   UNL     1      45.112   3.905  12.619  0.00  0.00    +0.000 A 
ATOM     15  N   UNL     1      44.415   4.826  11.975  0.00  0.00    +0.000 NA
ATOM     16  C   UNL     1      43.407   4.144  11.337  0.00  0.00    +0.000 A 
ATOM     17  C   UNL     1      43.489   2.796  11.589  0.00  0.00    +0.000 A 
ATOM     18  N   UNL     1      44.574   2.656  12.407  0.00  0.00    +0.000 N 
ATOM     19  H   UNL     1      44.943   1.800  12.802  0.00  0.00    +0.000 HD
ENDBRANCH  11  14
ENDBRANCH   9  10
ENDBRANCH   6   9
ENDBRANCH   2   3
BRANCH   2  20
ATOM     20  N   UNL     1      52.020   8.544  10.460  0.00  0.00    +0.000 N 
ATOM     21  C   UNL     1      52.798   9.213   9.547  0.00  0.00    +0.000 C 
ATOM     22  O   UNL     1      53.293  10.313   9.777  0.00  0.00    +0.000 OA
ATOM     23  H   UNL     1      51.400   7.825  10.101  0.00  0.00    +0.000 HD
BRANCH  21  24
ATOM     24  C   UNL     1      53.065   8.526   8.279  0.00  0.00    +0.000 A 
ATOM     25  C   UNL     1      53.048   9.248   7.092  0.00  0.00    +0.000 A 
ATOM     26  S   UNL     1      53.321   8.292   5.707  0.00  0.00    +0.000 S 
ATOM     27  C   UNL     1      53.456   6.878   6.645  0.00  0.00    +0.000 A 
ATOM     28  N   UNL     1      53.654   5.667   6.059  0.00  0.00    +0.000 NA
ATOM     29  C   UNL     1      53.722   4.680   6.889  0.00  0.00    +0.000 A 
ATOM     30  N   UNL     1      53.627   4.796   8.252  0.00  0.00    +0.000 N 
ATOM     31  C   UNL     1      53.465   6.004   8.889  0.00  0.00    +0.000 A 
ATOM     32  O   UNL     1      53.465   6.091  10.111  0.00  0.00    +0.000 OA
ATOM     33  C   UNL     1      53.339   7.139   7.998  0.00  0.00    +0.000 A 
ATOM     34  H   UNL     1      53.721   3.986   8.848  0.00  0.00    +0.000 HD
ENDBRANCH  21  24
ENDBRANCH   2  20
TORSDOF 6
ENDMDL
MODEL 8
REMARK VINA RESULT:    -6.422      3.671      8.178
REMARK INTER + INTRA:          -9.632
REMARK INTER:                  -9.116
REMARK INTRA:                  -0.516
REMARK UNBOUND:                -0.957
REMARK  Name = 
REMARK  7 active torsions:
REMARK  status: ('A' for Active; 'I' for Inactive)
REMARK    1  A    between atoms: C_1  and  C_2
REMARK    2  A    between atoms: C_2  and  N_3
REMARK    3  A    between atoms: C_2  and  C_16
REMARK    4  A    between atoms: C_4  and  C_6
REMARK    5  A    between atoms: C_19  and  C_20
REMARK    6  A    between atoms: C_20  and  N_21
REMARK    7  A    between atoms: C_22  and  C_24
REMARK                            x       y       z     vdW  Elec       q    Type
REMARK                         _______ _______ _______ _____ _____    ______ ____
ROOT
ATOM      1  C   UNL     1      50.186   8.588  14.302  0.00  0.00    +0.000 C 
ATOM      2  C   UNL     1      49.059   8.107  15.225  0.00  0.00    +0.000 C 
ENDROOT
BRANCH   2   3
ATOM      3  C   UNL     1      49.584   7.006  16.143  0.00  0.00    +0.000 A 
ATOM      4  C   UNL     1      48.705   6.356  17.025  0.00  0.00    +0.000 A 
ATOM      5  C   UNL     1      49.162   5.366  17.905  0.00  0.00    +0.000 A 
ATOM      6  C   UNL     1      50.514   5.001  17.930  0.00  0.00    +0.000 A 
ATOM      7  C   UNL     1      51.392   5.635  17.044  0.00  0.00    +0.000 A 
ATOM      8  C   UNL     1      50.939   6.641  16.181  0.00  0.00    +0.000 A 
BRANCH   6   9
ATOM      9  C   UNL     1      51.027   3.998  18.931  0.00  0.00    +0.000 C 
BRANCH   9  10
ATOM     10  N   UNL     1      52.159   3.236  18.474  0.00  0.00    +0.000 N 
ATOM     11  C   UNL     1      51.974   2.040  17.810  0.00  0.00    +0.000 C 
ATOM     12  O   UNL     1      50.860   1.579  17.582  0.00  0.00    +0.000 OA
ATOM     13  H   UNL     1      53.112   3.555  18.618  0.00  0.00    +0.000 HD
BRANCH  11  14
ATOM     14  C   UNL     1      53.196   1.370  17.408  0.00  0.00    +0.000 A 
ATOM     15  N   UNL     1      54.412   1.887  17.446  0.00  0.00    +0.000 NA
ATOM     16  C   UNL     1      55.245   0.900  16.978  0.00  0.00    +0.000 A 
ATOM     17  C   UNL     1      54.536  -0.230  16.653  0.00  0.00    +0.000 A 
ATOM     18  N   UNL     1      53.234   0.081  16.927  0.00  0.00    +0.000 N 
ATOM     19  H   UNL     1      52.420  -0.510  16.810  0.00  0.00    +0.000 HD
ENDBRANCH  11  14
ENDBRANCH   9  10
ENDBRANCH   6   9
ENDBRANCH   2   3
BRANCH   2  20
ATOM     20  N   UNL     1      47.884   7.677  14.476  0.00  0.00    +0.000 N 
ATOM     21  C   UNL     1      47.960   6.756  13.460  0.00  0.00    +0.000 C 
ATOM     22  O   UNL     1      49.007   6.194  13.151  0.00  0.00    +0.000 OA
ATOM     23  H   UNL     1      47.097   8.318  14.462  0.00  0.00    +0.000 HD
BRANCH  21  24
ATOM     24  C   UNL     1      46.705   6.422  12.778  0.00  0.00    +0.000 A 
ATOM     25  C   UNL     1      45.976   7.428  12.156  0.00  0.00    +0.000 A 
ATOM     26  S   UNL     1      44.517   6.885  11.461  0.00  0.00    +0.000 S 
ATOM     27  C   UNL     1      44.802   5.289  11.981  0.00  0.00    +0.000 A 
ATOM     28  N   UNL     1      43.896   4.304  11.744  0.00  0.00    +0.000 NA
ATOM     29  C   UNL     1      44.235   3.147  12.207  0.00  0.00    +0.000 A 
ATOM     30  N   UNL     1      45.405   2.882  12.870  0.00  0.00    +0.000 N 
ATOM     31  C   UNL     1      46.366   3.838  13.098  0.00  0.00    +0.000 A 
ATOM     32  O   UNL     1      47.440   3.559  13.620  0.00  0.00    +0.000 OA
ATOM     33  C   UNL     1      46.014   5.165  12.636  0.00  0.00    +0.000 A 
ATOM     34  H   UNL     1      45.625   1.946  13.179  0.00  0.00    +0.000 HD
ENDBRANCH  21  24
ENDBRANCH   2  20
TORSDOF 6
ENDMDL
MODEL 9
REMARK VINA RESULT:    -6.340      1.626      2.316
REMARK INTER + INTRA:          -9.521
REMARK INTER:                  -8.537
REMARK INTRA:                  -0.984
REMARK UNBOUND:                -0.957
REMARK  Name = 
REMARK  7 active torsions:
REMARK  status: ('A' for Active; 'I' for Inactive)
REMARK    1  A    between atoms: C_1  and  C_2
REMARK    2  A    between atoms: C_2  and  N_3
REMARK    3  A    between atoms: C_2  and  C_16
REMARK    4  A    between atoms: C_4  and  C_6
REMARK    5  A    between atoms: C_19  and  C_20
REMARK    6  A    between atoms: C_20  and  N_21
REMARK    7  A    between atoms: C_22  and  C_24
REMARK                            x       y       z     vdW  Elec       q    Type
REMARK                         _______ _______ _______ _____ _____    ______ ____
ROOT
ATOM      1  C   UNL     1      49.044  10.337  14.505  0.00  0.00    +0.000 C 
ATOM      2  C   UNL     1      49.128   8.818  14.701  0.00  0.00    +0.000 C 
ENDROOT
BRANCH   2   3
ATOM      3  C   UNL     1      47.932   8.148  14.029  0.00  0.00    +0.000 A 
ATOM      4  C   UNL     1      47.916   6.753  13.863  0.00  0.00    +0.000 A 
ATOM      5  C   UNL     1      46.850   6.112  13.219  0.00  0.00    +0.000 A 
ATOM      6  C   UNL     1      45.770   6.849  12.718  0.00  0.00    +0.000 A 
ATOM      7  C   UNL     1      45.773   8.238  12.892  0.00  0.00    +0.000 A 
ATOM      8  C   UNL     1      46.850   8.881  13.516  0.00  0.00    +0.000 A 
BRANCH   6   9
ATOM      9  C   UNL     1      44.662   6.176  11.950  0.00  0.00    +0.000 C 
BRANCH   9  10
ATOM     10  N   UNL     1      45.119   5.300  10.903  0.00  0.00    +0.000 N 
ATOM     11  C   UNL     1      44.348   4.227  10.504  0.00  0.00    +0.000 C 
ATOM     12  O   UNL     1      43.259   3.974  11.010  0.00  0.00    +0.000 OA
ATOM     13  H   UNL     1      46.006   5.448  10.430  0.00  0.00    +0.000 HD
BRANCH  11  14
ATOM     14  C   UNL     1      44.925   3.421   9.444  0.00  0.00    +0.000 A 
ATOM     15  N   UNL     1      45.295   3.858   8.252  0.00  0.00    +0.000 NA
ATOM     16  C   UNL     1      45.781   2.756   7.592  0.00  0.00    +0.000 A 
ATOM     17  C   UNL     1      45.713   1.637   8.386  0.00  0.00    +0.000 A 
ATOM     18  N   UNL     1      45.165   2.071   9.559  0.00  0.00    +0.000 N 
ATOM     19  H   UNL     1      44.960   1.522  10.385  0.00  0.00    +0.000 HD
ENDBRANCH  11  14
ENDBRANCH   9  10
ENDBRANCH   6   9
ENDBRANCH   2   3
BRANCH   2  20
ATOM     20  N   UNL     1      49.235   8.453  16.110  0.00  0.00    +0.000 N 
ATOM     21  C   UNL     1      50.109   7.491  16.553  0.00  0.00    +0.000 C 
ATOM     22  O   UNL     1      50.894   6.913  15.807  0.00  0.00    +0.000 OA
ATOM     23  H   UNL     1      48.423   8.645  16.688  0.00  0.00    +0.000 HD
BRANCH  21  24
ATOM     24  C   UNL     1      50.105   7.211  17.993  0.00  0.00    +0.000 A 
ATOM     25  C   UNL     1      50.851   8.013  18.848  0.00  0.00    +0.000 A 
ATOM     26  S   UNL     1      50.783   7.521  20.479  0.00  0.00    +0.000 S 
ATOM     27  C   UNL     1      49.767   6.211  20.097  0.00  0.00    +0.000 A 
ATOM     28  N   UNL     1      49.358   5.339  21.057  0.00  0.00    +0.000 NA
ATOM     29  C   UNL     1      48.603   4.385  20.623  0.00  0.00    +0.000 A 
ATOM     30  N   UNL     1      48.207   4.233  19.319  0.00  0.00    +0.000 N 
ATOM     31  C   UNL     1      48.564   5.111  18.323  0.00  0.00    +0.000 A 
ATOM     32  O   UNL     1      48.130   5.000  17.182  0.00  0.00    +0.000 OA
ATOM     33  C   UNL     1      49.448   6.176  18.751  0.00  0.00    +0.000 A 
ATOM     34  H   UNL     1      47.588   3.482  19.051  0.00  0.00    +0.000 HD
ENDBRANCH  21  24
ENDBRANCH   2  20
TORSDOF 6
ENDMDL
