MODEL 1
REMARK VINA RESULT:    -8.563      0.000      0.000
REMARK INTER + INTRA:         -13.263
REMARK INTER:                 -12.318
REMARK INTRA:                  -0.946
REMARK UNBOUND:                -0.946
REMARK  Name = 
REMARK  8 active torsions:
REMARK  status: ('A' for Active; 'I' for Inactive)
REMARK    1  A    between atoms: N_1  and  C_2
REMARK    2  A    between atoms: C_2  and  C_3
REMARK    3  A    between atoms: C_2  and  C_17
REMARK    4  A    between atoms: C_3  and  N_4
REMARK    5  A    between atoms: C_5  and  C_7
REMARK    6  A    between atoms: C_20  and  C_21
REMARK    7  A    between atoms: C_21  and  N_22
REMARK    8  A    between atoms: C_23  and  C_25
REMARK                            x       y       z     vdW  Elec       q    Type
REMARK                         _______ _______ _______ _____ _____    ______ ____
ROOT
ATOM      1  C   UNL     1      47.614   5.913  14.064  0.00  0.00    +0.000 C 
ENDROOT
BRANCH   1   2
ATOM      2  C   UNL     1      46.744   5.496  12.879  0.00  0.00    +0.000 A 
ATOM      3  C   UNL     1      45.986   4.315  12.930  0.00  0.00    +0.000 A 
ATOM      4  C   UNL     1      45.202   3.905  11.845  0.00  0.00    +0.000 A 
ATOM      5  C   UNL     1      45.145   4.676  10.679  0.00  0.00    +0.000 A 
ATOM      6  C   UNL     1      45.841   5.886  10.643  0.00  0.00    +0.000 A 
ATOM      7  C   UNL     1      46.629   6.288  11.725  0.00  0.00    +0.000 A 
BRANCH   5   8
ATOM      8  C   UNL     1      44.381   4.211   9.470  0.00  0.00    +0.000 C 
BRANCH   8   9
ATOM      9  N   UNL     1      45.238   3.898   8.356  0.00  0.00    +0.000 N 
ATOM     10  C   UNL     1      45.816   2.650   8.255  0.00  0.00    +0.000 C 
ATOM     11  O   UNL     1      45.654   1.777   9.099  0.00  0.00    +0.000 OA
ATOM     12  H   UNL     1      45.311   4.557   7.597  0.00  0.00    +0.000 HD
BRANCH  10  13
ATOM     13  C   UNL     1      46.640   2.450   7.092  0.00  0.00    +0.000 A 
ATOM     14  C   UNL     1      46.619   2.968   5.810  0.00  0.00    +0.000 A 
ATOM     15  C   UNL     1      47.719   2.381   5.157  0.00  0.00    +0.000 A 
ATOM     16  N   UNL     1      48.390   1.544   5.949  0.00  0.00    +0.000 NA
ATOM     17  N   UNL     1      47.719   1.603   7.112  0.00  0.00    +0.000 N 
ATOM     18  H   UNL     1      48.045   1.049   7.899  0.00  0.00    +0.000 HD
ENDBRANCH  10  13
ENDBRANCH   8   9
ENDBRANCH   5   8
ENDBRANCH   1   2
BRANCH   1  19
ATOM     19  N   UNL     1      47.459   7.352  14.364  0.00  0.00    +0.000 NA
ATOM     20  H   UNL     1      48.350   7.815  14.188  0.00  0.00    +0.000 HD
ATOM     21  H   UNL     1      47.333   7.452  15.374  0.00  0.00    +0.000 HD
ENDBRANCH   1  19
BRANCH   1  22
ATOM     22  C   UNL     1      47.364   5.053  15.336  0.00  0.00    +0.000 C 
BRANCH  22  23
ATOM     23  N   UNL     1      48.578   4.700  16.043  0.00  0.00    +0.000 N 
ATOM     24  C   UNL     1      48.651   4.696  17.408  0.00  0.00    +0.000 C 
ATOM     25  O   UNL     1      47.697   5.013  18.115  0.00  0.00    +0.000 OA
ATOM     26  H   UNL     1      49.423   4.594  15.490  0.00  0.00    +0.000 HD
BRANCH  24  27
ATOM     27  C   UNL     1      49.923   4.277  17.989  0.00  0.00    +0.000 A 
ATOM     28  C   UNL     1      50.571   5.116  18.885  0.00  0.00    +0.000 A 
ATOM     29  S   UNL     1      52.055   4.495  19.442  0.00  0.00    +0.000 S 
ATOM     30  C   UNL     1      51.897   3.103  18.474  0.00  0.00    +0.000 A 
ATOM     31  N   UNL     1      52.877   2.161  18.443  0.00  0.00    +0.000 NA
ATOM     32  C   UNL     1      52.644   1.177  17.638  0.00  0.00    +0.000 A 
ATOM     33  N   UNL     1      51.508   1.037  16.882  0.00  0.00    +0.000 N 
ATOM     34  C   UNL     1      50.461   1.927  16.935  0.00  0.00    +0.000 A 
ATOM     35  O   UNL     1      49.408   1.712  16.343  0.00  0.00    +0.000 OA
ATOM     36  C   UNL     1      50.705   3.085  17.774  0.00  0.00    +0.000 A 
ATOM     37  H   UNL     1      51.374   0.221  16.303  0.00  0.00    +0.000 HD
ENDBRANCH  24  27
ENDBRANCH  22  23
ENDBRANCH   1  22
TORSDOF 8
ENDMDL
MODEL 2
REMARK VINA RESULT:    -7.888      3.020      9.236
REMARK INTER + INTRA:         -12.292
REMARK INTER:                 -12.277
REMARK INTRA:                  -0.016
REMARK UNBOUND:                -0.946
REMARK  Name = 
REMARK  8 active torsions:
REMARK  status: ('A' for Active; 'I' for Inactive)
REMARK    1  A    between atoms: N_1  and  C_2
REMARK    2  A    between atoms: C_2  and  C_3
REMARK    3  A    between atoms: C_2  and  C_17
REMARK    4  A    between atoms: C_3  and  N_4
REMARK    5  A    between atoms: C_5  and  C_7
REMARK    6  A    between atoms: C_20  and  C_21
REMARK    7  A    between atoms: C_21  and  N_22
REMARK    8  A    between atoms: C_23  and  C_25
REMARK                            x       y       z     vdW  Elec       q    Type
REMARK                         _______ _______ _______ _____ _____    ______ ____
ROOT
ATOM      1  C   UNL     1      48.431   7.291  13.727  0.00  0.00    +0.000 C 
ENDROOT
BRANCH   1   2
ATOM      2  C   UNL     1      48.349   6.244  14.836  0.00  0.00    +0.000 A 
ATOM      3  C   UNL     1      49.111   6.383  16.008  0.00  0.00    +0.000 A 
ATOM      4  C   UNL     1      49.067   5.422  17.025  0.00  0.00    +0.000 A 
ATOM      5  C   UNL     1      48.245   4.296  16.902  0.00  0.00    +0.000 A 
ATOM      6  C   UNL     1      47.433   4.181  15.772  0.00  0.00    +0.000 A 
ATOM      7  C   UNL     1      47.486   5.139  14.756  0.00  0.00    +0.000 A 
BRANCH   5   8
ATOM      8  C   UNL     1      48.248   3.207  17.940  0.00  0.00    +0.000 C 
BRANCH   8   9
ATOM      9  N   UNL     1      49.570   2.710  18.221  0.00  0.00    +0.000 N 
ATOM     10  C   UNL     1      50.246   1.964  17.279  0.00  0.00    +0.000 C 
ATOM     11  O   UNL     1      49.759   1.673  16.194  0.00  0.00    +0.000 OA
ATOM     12  H   UNL     1      50.036   3.015  19.062  0.00  0.00    +0.000 HD
BRANCH  10  13
ATOM     13  C   UNL     1      51.564   1.536  17.669  0.00  0.00    +0.000 A 
ATOM     14  C   UNL     1      52.783   2.180  17.771  0.00  0.00    +0.000 A 
ATOM     15  C   UNL     1      53.682   1.201  18.233  0.00  0.00    +0.000 A 
ATOM     16  N   UNL     1      53.093   0.017  18.407  0.00  0.00    +0.000 NA
ATOM     17  N   UNL     1      51.814   0.245  18.060  0.00  0.00    +0.000 N 
ATOM     18  H   UNL     1      51.145  -0.516  18.115  0.00  0.00    +0.000 HD
ENDBRANCH  10  13
ENDBRANCH   8   9
ENDBRANCH   5   8
ENDBRANCH   1   2
BRANCH   1  19
ATOM     19  N   UNL     1      49.450   6.927  12.720  0.00  0.00    +0.000 NA
ATOM     20  H   UNL     1      49.115   7.221  11.803  0.00  0.00    +0.000 HD
ATOM     21  H   UNL     1      49.474   5.907  12.650  0.00  0.00    +0.000 HD
ENDBRANCH   1  19
BRANCH   1  22
ATOM     22  C   UNL     1      47.058   7.569  13.048  0.00  0.00    +0.000 C 
BRANCH  22  23
ATOM     23  N   UNL     1      46.351   6.367  12.659  0.00  0.00    +0.000 N 
ATOM     24  C   UNL     1      45.336   6.383  11.745  0.00  0.00    +0.000 C 
ATOM     25  O   UNL     1      44.949   7.422  11.215  0.00  0.00    +0.000 OA
ATOM     26  H   UNL     1      46.535   5.525  13.197  0.00  0.00    +0.000 HD
BRANCH  24  27
ATOM     27  C   UNL     1      44.740   5.092  11.412  0.00  0.00    +0.000 A 
ATOM     28  C   UNL     1      43.931   4.457  12.344  0.00  0.00    +0.000 A 
ATOM     29  S   UNL     1      43.346   2.948  11.814  0.00  0.00    +0.000 S 
ATOM     30  C   UNL     1      44.185   3.080  10.339  0.00  0.00    +0.000 A 
ATOM     31  N   UNL     1      44.150   2.074   9.424  0.00  0.00    +0.000 NA
ATOM     32  C   UNL     1      44.862   2.291   8.367  0.00  0.00    +0.000 A 
ATOM     33  N   UNL     1      45.585   3.432   8.131  0.00  0.00    +0.000 N 
ATOM     34  C   UNL     1      45.594   4.503   8.994  0.00  0.00    +0.000 A 
ATOM     35  O   UNL     1      46.148   5.558   8.700  0.00  0.00    +0.000 OA
ATOM     36  C   UNL     1      44.862   4.280  10.228  0.00  0.00    +0.000 A 
ATOM     37  H   UNL     1      46.088   3.550   7.264  0.00  0.00    +0.000 HD
ENDBRANCH  24  27
ENDBRANCH  22  23
ENDBRANCH   1  22
TORSDOF 8
ENDMDL
MODEL 3
REMARK VINA RESULT:    -7.726      2.829      4.034
REMARK INTER + INTRA:         -12.059
REMARK INTER:                 -11.257
REMARK INTRA:                  -0.802
REMARK UNBOUND:                -0.946
REMARK  Name = 
REMARK  8 active torsions:
REMARK  status: ('A' for Active; 'I' for Inactive)
REMARK    1  A    between atoms: N_1  and  C_2
REMARK    2  A    between atoms: C_2  and  C_3
REMARK    3  A    between atoms: C_2  and  C_17
REMARK    4  A    between atoms: C_3  and  N_4
REMARK    5  A    between atoms: C_5  and  C_7
REMARK    6  A    between atoms: C_20  and  C_21
REMARK    7  A    between atoms: C_21  and  N_22
REMARK    8  A    between atoms: C_23  and  C_25
REMARK                            x       y       z     vdW  Elec       q    Type
REMARK                         _______ _______ _______ _____ _____    ______ ____
ROOT
ATOM      1  C   UNL     1      47.775   7.904  13.629  0.00  0.00    +0.000 C 
ENDROOT
BRANCH   1   2
ATOM      2  C   UNL     1      46.739   7.095  12.851  0.00  0.00    +0.000 A 
ATOM      3  C   UNL     1      46.671   5.699  12.990  0.00  0.00    +0.000 A 
ATOM      4  C   UNL     1      45.744   4.939  12.267  0.00  0.00    +0.000 A 
ATOM      5  C   UNL     1      44.848   5.559  11.390  0.00  0.00    +0.000 A 
ATOM      6  C   UNL     1      44.862   6.952  11.294  0.00  0.00    +0.000 A 
ATOM      7  C   UNL     1      45.793   7.707  12.012  0.00  0.00    +0.000 A 
BRANCH   5   8
ATOM      8  C   UNL     1      43.904   4.756  10.537  0.00  0.00    +0.000 C 
BRANCH   8   9
ATOM      9  N   UNL     1      44.562   3.682   9.838  0.00  0.00    +0.000 N 
ATOM     10  C   UNL     1      45.423   3.957   8.797  0.00  0.00    +0.000 C 
ATOM     11  O   UNL     1      45.646   5.097   8.407  0.00  0.00    +0.000 OA
ATOM     12  H   UNL     1      44.478   2.743  10.197  0.00  0.00    +0.000 HD
BRANCH  10  13
ATOM     13  C   UNL     1      46.032   2.804   8.187  0.00  0.00    +0.000 A 
ATOM     14  C   UNL     1      46.899   2.636   7.124  0.00  0.00    +0.000 A 
ATOM     15  C   UNL     1      47.132   1.249   7.052  0.00  0.00    +0.000 A 
ATOM     16  N   UNL     1      46.461   0.575   7.987  0.00  0.00    +0.000 NA
ATOM     17  N   UNL     1      45.804   1.536   8.660  0.00  0.00    +0.000 N 
ATOM     18  H   UNL     1      45.215   1.274   9.445  0.00  0.00    +0.000 HD
ENDBRANCH  10  13
ENDBRANCH   8   9
ENDBRANCH   5   8
ENDBRANCH   1   2
BRANCH   1  19
ATOM     19  N   UNL     1      47.129   8.788  14.622  0.00  0.00    +0.000 NA
ATOM     20  H   UNL     1      47.540   8.599  15.536  0.00  0.00    +0.000 HD
ATOM     21  H   UNL     1      46.158   8.486  14.731  0.00  0.00    +0.000 HD
ENDBRANCH   1  19
BRANCH   1  22
ATOM     22  C   UNL     1      48.861   7.017  14.303  0.00  0.00    +0.000 C 
BRANCH  22  23
ATOM     23  N   UNL     1      48.751   6.963  15.746  0.00  0.00    +0.000 N 
ATOM     24  C   UNL     1      48.434   5.812  16.410  0.00  0.00    +0.000 C 
ATOM     25  O   UNL     1      48.205   4.759  15.820  0.00  0.00    +0.000 OA
ATOM     26  H   UNL     1      48.772   7.847  16.247  0.00  0.00    +0.000 HD
BRANCH  24  27
ATOM     27  C   UNL     1      48.401   5.890  17.868  0.00  0.00    +0.000 A 
ATOM     28  C   UNL     1      48.655   4.750  18.616  0.00  0.00    +0.000 A 
ATOM     29  S   UNL     1      48.542   5.004  20.296  0.00  0.00    +0.000 S 
ATOM     30  C   UNL     1      48.112   6.636  20.075  0.00  0.00    +0.000 A 
ATOM     31  N   UNL     1      47.819   7.430  21.139  0.00  0.00    +0.000 NA
ATOM     32  C   UNL     1      47.472   8.635  20.824  0.00  0.00    +0.000 A 
ATOM     33  N   UNL     1      47.418   9.124  19.544  0.00  0.00    +0.000 N 
ATOM     34  C   UNL     1      47.773   8.380  18.444  0.00  0.00    +0.000 A 
ATOM     35  O   UNL     1      47.833   8.880  17.324  0.00  0.00    +0.000 OA
ATOM     36  C   UNL     1      48.105   6.999  18.740  0.00  0.00    +0.000 A 
ATOM     37  H   UNL     1      47.176  10.089  19.374  0.00  0.00    +0.000 HD
ENDBRANCH  24  27
ENDBRANCH  22  23
ENDBRANCH   1  22
TORSDOF 8
ENDMDL
MODEL 4
REMARK VINA RESULT:    -7.506      2.507      2.969
REMARK INTER + INTRA:         -11.743
REMARK INTER:                 -10.830
REMARK INTRA:                  -0.913
REMARK UNBOUND:                -0.946
REMARK  Name = 
REMARK  8 active torsions:
REMARK  status: ('A' for Active; 'I' for Inactive)
REMARK    1  A    between atoms: N_1  and  C_2
REMARK    2  A    between atoms: C_2  and  C_3
REMARK    3  A    between atoms: C_2  and  C_17
REMARK    4  A    between atoms: C_3  and  N_4
REMARK    5  A    between atoms: C_5  and  C_7
REMARK    6  A    between atoms: C_20  and  C_21
REMARK    7  A    between atoms: C_21  and  N_22
REMARK    8  A    between atoms: C_23  and  C_25
REMARK                            x       y       z     vdW  Elec       q    Type
REMARK                         _______ _______ _______ _____ _____    ______ ____
ROOT
ATOM      1  C   UNL     1      47.714   8.076  13.453  0.00  0.00    +0.000 C 
ENDROOT
BRANCH   1   2
ATOM      2  C   UNL     1      46.692   7.200  12.731  0.00  0.00    +0.000 A 
ATOM      3  C   UNL     1      46.668   5.811  12.937  0.00  0.00    +0.000 A 
ATOM      4  C   UNL     1      45.754   4.990  12.265  0.00  0.00    +0.000 A 
ATOM      5  C   UNL     1      44.826   5.541  11.374  0.00  0.00    +0.000 A 
ATOM      6  C   UNL     1      44.797   6.928  11.213  0.00  0.00    +0.000 A 
ATOM      7  C   UNL     1      45.716   7.743  11.879  0.00  0.00    +0.000 A 
BRANCH   5   8
ATOM      8  C   UNL     1      43.895   4.671  10.576  0.00  0.00    +0.000 C 
BRANCH   8   9
ATOM      9  N   UNL     1      44.581   3.611   9.882  0.00  0.00    +0.000 N 
ATOM     10  C   UNL     1      45.375   3.896   8.792  0.00  0.00    +0.000 C 
ATOM     11  O   UNL     1      45.512   5.031   8.353  0.00  0.00    +0.000 OA
ATOM     12  H   UNL     1      44.568   2.683  10.277  0.00  0.00    +0.000 HD
BRANCH  10  13
ATOM     13  C   UNL     1      46.020   2.757   8.192  0.00  0.00    +0.000 A 
ATOM     14  C   UNL     1      46.944   2.613   7.174  0.00  0.00    +0.000 A 
ATOM     15  C   UNL     1      47.186   1.230   7.087  0.00  0.00    +0.000 A 
ATOM     16  N   UNL     1      46.468   0.534   7.970  0.00  0.00    +0.000 NA
ATOM     17  N   UNL     1      45.772   1.479   8.626  0.00  0.00    +0.000 N 
ATOM     18  H   UNL     1      45.142   1.200   9.372  0.00  0.00    +0.000 HD
ENDBRANCH  10  13
ENDBRANCH   8   9
ENDBRANCH   5   8
ENDBRANCH   1   2
BRANCH   1  19
ATOM     19  N   UNL     1      47.083   8.850  14.542  0.00  0.00    +0.000 NA
ATOM     20  H   UNL     1      46.512   8.215  15.100  0.00  0.00    +0.000 HD
ATOM     21  H   UNL     1      46.396   9.482  14.123  0.00  0.00    +0.000 HD
ENDBRANCH   1  19
BRANCH   1  22
ATOM     22  C   UNL     1      48.938   7.273  13.983  0.00  0.00    +0.000 C 
BRANCH  22  23
ATOM     23  N   UNL     1      48.955   7.129  15.424  0.00  0.00    +0.000 N 
ATOM     24  C   UNL     1      50.118   7.017  16.131  0.00  0.00    +0.000 C 
ATOM     25  O   UNL     1      51.218   7.010  15.583  0.00  0.00    +0.000 OA
ATOM     26  H   UNL     1      48.064   6.967  15.885  0.00  0.00    +0.000 HD
BRANCH  24  27
ATOM     27  C   UNL     1      49.991   6.922  17.583  0.00  0.00    +0.000 A 
ATOM     28  C   UNL     1      50.540   7.917  18.380  0.00  0.00    +0.000 A 
ATOM     29  S   UNL     1      50.334   7.638  20.047  0.00  0.00    +0.000 S 
ATOM     30  C   UNL     1      49.538   6.162  19.757  0.00  0.00    +0.000 A 
ATOM     31  N   UNL     1      49.132   5.374  20.788  0.00  0.00    +0.000 NA
ATOM     32  C   UNL     1      48.576   4.265  20.424  0.00  0.00    +0.000 A 
ATOM     33  N   UNL     1      48.366   3.886  19.123  0.00  0.00    +0.000 N 
ATOM     34  C   UNL     1      48.695   4.681  18.050  0.00  0.00    +0.000 A 
ATOM     35  O   UNL     1      48.383   4.371  16.904  0.00  0.00    +0.000 OA
ATOM     36  C   UNL     1      49.384   5.907  18.406  0.00  0.00    +0.000 A 
ATOM     37  H   UNL     1      47.889   3.022  18.912  0.00  0.00    +0.000 HD
ENDBRANCH  24  27
ENDBRANCH  22  23
ENDBRANCH   1  22
TORSDOF 8
ENDMDL
MODEL 5
REMARK VINA RESULT:    -7.350      2.752      3.555
REMARK INTER + INTRA:         -11.519
REMARK INTER:                 -10.129
REMARK INTRA:                  -1.390
REMARK UNBOUND:                -0.946
REMARK  Name = 
REMARK  8 active torsions:
REMARK  status: ('A' for Active; 'I' for Inactive)
REMARK    1  A    between atoms: N_1  and  C_2
REMARK    2  A    between atoms: C_2  and  C_3
REMARK    3  A    between atoms: C_2  and  C_17
REMARK    4  A    between atoms: C_3  and  N_4
REMARK    5  A    between atoms: C_5  and  C_7
REMARK    6  A    between atoms: C_20  and  C_21
REMARK    7  A    between atoms: C_21  and  N_22
REMARK    8  A    between atoms: C_23  and  C_25
REMARK                            x       y       z     vdW  Elec       q    Type
REMARK                         _______ _______ _______ _____ _____    ______ ____
ROOT
ATOM      1  C   UNL     1      48.494   9.565  12.978  0.00  0.00    +0.000 C 
ENDROOT
BRANCH   1   2
ATOM      2  C   UNL     1      47.505   8.462  12.604  0.00  0.00    +0.000 A 
ATOM      3  C   UNL     1      47.884   7.426  11.735  0.00  0.00    +0.000 A 
ATOM      4  C   UNL     1      46.984   6.421  11.362  0.00  0.00    +0.000 A 
ATOM      5  C   UNL     1      45.677   6.418  11.861  0.00  0.00    +0.000 A 
ATOM      6  C   UNL     1      45.309   7.405  12.778  0.00  0.00    +0.000 A 
ATOM      7  C   UNL     1      46.208   8.411  13.142  0.00  0.00    +0.000 A 
BRANCH   5   8
ATOM      8  C   UNL     1      44.667   5.400  11.406  0.00  0.00    +0.000 C 
BRANCH   8   9
ATOM      9  N   UNL     1      45.252   4.354  10.608  0.00  0.00    +0.000 N 
ATOM     10  C   UNL     1      44.756   4.080   9.351  0.00  0.00    +0.000 C 
ATOM     11  O   UNL     1      43.801   4.680   8.873  0.00  0.00    +0.000 OA
ATOM     12  H   UNL     1      46.099   3.911  10.931  0.00  0.00    +0.000 HD
BRANCH  10  13
ATOM     13  C   UNL     1      45.432   3.024   8.644  0.00  0.00    +0.000 A 
ATOM     14  C   UNL     1      46.239   2.994   7.522  0.00  0.00    +0.000 A 
ATOM     15  C   UNL     1      46.600   1.643   7.362  0.00  0.00    +0.000 A 
ATOM     16  N   UNL     1      46.062   0.862   8.299  0.00  0.00    +0.000 NA
ATOM     17  N   UNL     1      45.361   1.719   9.062  0.00  0.00    +0.000 N 
ATOM     18  H   UNL     1      44.854   1.363   9.867  0.00  0.00    +0.000 HD
ENDBRANCH  10  13
ENDBRANCH   8   9
ENDBRANCH   5   8
ENDBRANCH   1   2
BRANCH   1  19
ATOM     19  N   UNL     1      47.823  10.664  13.703  0.00  0.00    +0.000 NA
ATOM     20  H   UNL     1      46.866  10.376  13.910  0.00  0.00    +0.000 HD
ATOM     21  H   UNL     1      47.702  11.444  13.053  0.00  0.00    +0.000 HD
ENDBRANCH   1  19
BRANCH   1  22
ATOM     22  C   UNL     1      49.718   9.039  13.783  0.00  0.00    +0.000 C 
BRANCH  22  23
ATOM     23  N   UNL     1      49.357   8.171  14.885  0.00  0.00    +0.000 N 
ATOM     24  C   UNL     1      50.275   7.392  15.529  0.00  0.00    +0.000 C 
ATOM     25  O   UNL     1      51.458   7.365  15.198  0.00  0.00    +0.000 OA
ATOM     26  H   UNL     1      48.366   8.048  15.073  0.00  0.00    +0.000 HD
BRANCH  24  27
ATOM     27  C   UNL     1      49.781   6.599  16.652  0.00  0.00    +0.000 A 
ATOM     28  C   UNL     1      50.321   6.799  17.914  0.00  0.00    +0.000 A 
ATOM     29  S   UNL     1      49.662   5.773  19.102  0.00  0.00    +0.000 S 
ATOM     30  C   UNL     1      48.661   5.004  17.960  0.00  0.00    +0.000 A 
ATOM     31  N   UNL     1      47.857   3.969  18.321  0.00  0.00    +0.000 NA
ATOM     32  C   UNL     1      47.181   3.455  17.347  0.00  0.00    +0.000 A 
ATOM     33  N   UNL     1      47.216   3.899  16.050  0.00  0.00    +0.000 N 
ATOM     34  C   UNL     1      47.959   4.986  15.652  0.00  0.00    +0.000 A 
ATOM     35  O   UNL     1      47.876   5.436  14.514  0.00  0.00    +0.000 OA
ATOM     36  C   UNL     1      48.788   5.555  16.698  0.00  0.00    +0.000 A 
ATOM     37  H   UNL     1      46.630   3.474  15.346  0.00  0.00    +0.000 HD
ENDBRANCH  24  27
ENDBRANCH  22  23
ENDBRANCH   1  22
TORSDOF 8
ENDMDL
MODEL 6
REMARK VINA RESULT:    -7.233      5.115      6.159
REMARK INTER + INTRA:         -11.350
REMARK INTER:                 -10.248
REMARK INTRA:                  -1.102
REMARK UNBOUND:                -0.946
REMARK  Name = 
REMARK  8 active torsions:
REMARK  status: ('A' for Active; 'I' for Inactive)
REMARK    1  A    between atoms: N_1  and  C_2
REMARK    2  A    between atoms: C_2  and  C_3
REMARK    3  A    between atoms: C_2  and  C_17
REMARK    4  A    between atoms: C_3  and  N_4
REMARK    5  A    between atoms: C_5  and  C_7
REMARK    6  A    between atoms: C_20  and  C_21
REMARK    7  A    between atoms: C_21  and  N_22
REMARK    8  A    between atoms: C_23  and  C_25
REMARK                            x       y       z     vdW  Elec       q    Type
REMARK                         _______ _______ _______ _____ _____    ______ ____
ROOT
ATOM      1  C   UNL     1      45.659   7.975  13.169  0.00  0.00    +0.000 C 
ENDROOT
BRANCH   1   2
ATOM      2  C   UNL     1      45.182   6.640  12.600  0.00  0.00    +0.000 A 
ATOM      3  C   UNL     1      45.822   5.441  12.958  0.00  0.00    +0.000 A 
ATOM      4  C   UNL     1      45.414   4.211  12.427  0.00  0.00    +0.000 A 
ATOM      5  C   UNL     1      44.342   4.146  11.530  0.00  0.00    +0.000 A 
ATOM      6  C   UNL     1      43.657   5.322  11.220  0.00  0.00    +0.000 A 
ATOM      7  C   UNL     1      44.072   6.549  11.745  0.00  0.00    +0.000 A 
BRANCH   5   8
ATOM      8  C   UNL     1      43.944   2.849  10.880  0.00  0.00    +0.000 C 
BRANCH   8   9
ATOM      9  N   UNL     1      44.943   2.353   9.969  0.00  0.00    +0.000 N 
ATOM     10  C   UNL     1      45.067   2.901   8.710  0.00  0.00    +0.000 C 
ATOM     11  O   UNL     1      44.336   3.797   8.304  0.00  0.00    +0.000 OA
ATOM     12  H   UNL     1      45.622   1.688  10.306  0.00  0.00    +0.000 HD
BRANCH  10  13
ATOM     13  C   UNL     1      46.110   2.333   7.896  0.00  0.00    +0.000 A 
ATOM     14  C   UNL     1      46.970   2.857   6.950  0.00  0.00    +0.000 A 
ATOM     15  C   UNL     1      47.770   1.774   6.538  0.00  0.00    +0.000 A 
ATOM     16  N   UNL     1      47.445   0.640   7.161  0.00  0.00    +0.000 NA
ATOM     17  N   UNL     1      46.440   1.004   7.976  0.00  0.00    +0.000 N 
ATOM     18  H   UNL     1      46.015   0.305   8.577  0.00  0.00    +0.000 HD
ENDBRANCH  10  13
ENDBRANCH   8   9
ENDBRANCH   5   8
ENDBRANCH   1   2
BRANCH   1  19
ATOM     19  N   UNL     1      46.928   7.820  13.910  0.00  0.00    +0.000 NA
ATOM     20  H   UNL     1      47.700   7.977  13.262  0.00  0.00    +0.000 HD
ATOM     21  H   UNL     1      47.027   6.834  14.164  0.00  0.00    +0.000 HD
ENDBRANCH   1  19
BRANCH   1  22
ATOM     22  C   UNL     1      45.782   9.089  12.090  0.00  0.00    +0.000 C 
BRANCH  22  23
ATOM     23  N   UNL     1      47.138   9.300  11.628  0.00  0.00    +0.000 N 
ATOM     24  C   UNL     1      47.785  10.493  11.790  0.00  0.00    +0.000 C 
ATOM     25  O   UNL     1      47.246  11.463  12.317  0.00  0.00    +0.000 OA
ATOM     26  H   UNL     1      47.548   8.576  11.046  0.00  0.00    +0.000 HD
BRANCH  24  27
ATOM     27  C   UNL     1      49.165  10.553  11.317  0.00  0.00    +0.000 A 
ATOM     28  C   UNL     1      49.523  11.515  10.384  0.00  0.00    +0.000 A 
ATOM     29  S   UNL     1      51.156  11.427   9.912  0.00  0.00    +0.000 S 
ATOM     30  C   UNL     1      51.428  10.076  10.913  0.00  0.00    +0.000 A 
ATOM     31  N   UNL     1      52.639   9.460  10.939  0.00  0.00    +0.000 NA
ATOM     32  C   UNL     1      52.694   8.426  11.713  0.00  0.00    +0.000 A 
ATOM     33  N   UNL     1      51.654   7.968  12.481  0.00  0.00    +0.000 N 
ATOM     34  C   UNL     1      50.434   8.599  12.540  0.00  0.00    +0.000 A 
ATOM     35  O   UNL     1      49.564   8.239  13.328  0.00  0.00    +0.000 OA
ATOM     36  C   UNL     1      50.302   9.727  11.637  0.00  0.00    +0.000 A 
ATOM     37  H   UNL     1      51.779   7.175  13.093  0.00  0.00    +0.000 HD
ENDBRANCH  24  27
ENDBRANCH  22  23
ENDBRANCH   1  22
TORSDOF 8
ENDMDL
MODEL 7
REMARK VINA RESULT:    -7.193      1.964      2.555
REMARK INTER + INTRA:         -11.292
REMARK INTER:                 -10.448
REMARK INTRA:                  -0.844
REMARK UNBOUND:                -0.946
REMARK  Name = 
REMARK  8 active torsions:
REMARK  status: ('A' for Active; 'I' for Inactive)
REMARK    1  A    between atoms: N_1  and  C_2
REMARK    2  A    between atoms: C_2  and  C_3
REMARK    3  A    between atoms: C_2  and  C_17
REMARK    4  A    between atoms: C_3  and  N_4
REMARK    5  A    between atoms: C_5  and  C_7
REMARK    6  A    between atoms: C_20  and  C_21
REMARK    7  A    between atoms: C_21  and  N_22
REMARK    8  A    between atoms: C_23  and  C_25
REMARK                            x       y       z     vdW  Elec       q    Type
REMARK                         _______ _______ _______ _____ _____    ______ ____
ROOT
ATOM      1  C   UNL     1      47.637   8.727  13.353  0.00  0.00    +0.000 C 
ENDROOT
BRANCH   1   2
ATOM      2  C   UNL     1      46.739   7.573  12.909  0.00  0.00    +0.000 A 
ATOM      3  C   UNL     1      47.205   6.248  12.949  0.00  0.00    +0.000 A 
ATOM      4  C   UNL     1      46.405   5.181  12.524  0.00  0.00    +0.000 A 
ATOM      5  C   UNL     1      45.106   5.410  12.057  0.00  0.00    +0.000 A 
ATOM      6  C   UNL     1      44.609   6.715  12.076  0.00  0.00    +0.000 A 
ATOM      7  C   UNL     1      45.413   7.778  12.494  0.00  0.00    +0.000 A 
BRANCH   5   8
ATOM      8  C   UNL     1      44.261   4.291  11.513  0.00  0.00    +0.000 C 
BRANCH   8   9
ATOM      9  N   UNL     1      44.996   3.412  10.640  0.00  0.00    +0.000 N 
ATOM     10  C   UNL     1      44.891   3.547   9.272  0.00  0.00    +0.000 C 
ATOM     11  O   UNL     1      44.167   4.382   8.744  0.00  0.00    +0.000 OA
ATOM     12  H   UNL     1      45.674   2.783  11.041  0.00  0.00    +0.000 HD
BRANCH  10  13
ATOM     13  C   UNL     1      45.684   2.622   8.504  0.00  0.00    +0.000 A 
ATOM     14  C   UNL     1      46.585   2.773   7.467  0.00  0.00    +0.000 A 
ATOM     15  C   UNL     1      47.034   1.472   7.175  0.00  0.00    +0.000 A 
ATOM     16  N   UNL     1      46.461   0.553   7.953  0.00  0.00    +0.000 NA
ATOM     17  N   UNL     1      45.650   1.273   8.748  0.00  0.00    +0.000 N 
ATOM     18  H   UNL     1      45.096   0.793   9.451  0.00  0.00    +0.000 HD
ENDBRANCH  10  13
ENDBRANCH   8   9
ENDBRANCH   5   8
ENDBRANCH   1   2
BRANCH   1  19
ATOM     19  N   UNL     1      47.112  10.026  12.883  0.00  0.00    +0.000 NA
ATOM     20  H   UNL     1      47.125  10.028  11.863  0.00  0.00    +0.000 HD
ATOM     21  H   UNL     1      47.791  10.749  13.132  0.00  0.00    +0.000 HD
ENDBRANCH   1  19
BRANCH   1  22
ATOM     22  C   UNL     1      47.882   8.753  14.889  0.00  0.00    +0.000 C 
BRANCH  22  23
ATOM     23  N   UNL     1      48.804   7.733  15.345  0.00  0.00    +0.000 N 
ATOM     24  C   UNL     1      48.966   7.436  16.669  0.00  0.00    +0.000 C 
ATOM     25  O   UNL     1      48.353   8.031  17.552  0.00  0.00    +0.000 OA
ATOM     26  H   UNL     1      49.441   7.342  14.657  0.00  0.00    +0.000 HD
BRANCH  24  27
ATOM     27  C   UNL     1      49.896   6.356  16.984  0.00  0.00    +0.000 A 
ATOM     28  C   UNL     1      51.229   6.655  17.223  0.00  0.00    +0.000 A 
ATOM     29  S   UNL     1      52.185   5.282  17.540  0.00  0.00    +0.000 S 
ATOM     30  C   UNL     1      50.854   4.241  17.332  0.00  0.00    +0.000 A 
ATOM     31  N   UNL     1      51.003   2.892  17.419  0.00  0.00    +0.000 NA
ATOM     32  C   UNL     1      49.919   2.222  17.202  0.00  0.00    +0.000 A 
ATOM     33  N   UNL     1      48.695   2.780  16.930  0.00  0.00    +0.000 N 
ATOM     34  C   UNL     1      48.482   4.138  16.902  0.00  0.00    +0.000 A 
ATOM     35  O   UNL     1      47.355   4.607  16.780  0.00  0.00    +0.000 OA
ATOM     36  C   UNL     1      49.684   4.933  17.074  0.00  0.00    +0.000 A 
ATOM     37  H   UNL     1      47.881   2.195  16.809  0.00  0.00    +0.000 HD
ENDBRANCH  24  27
ENDBRANCH  22  23
ENDBRANCH   1  22
TORSDOF 8
ENDMDL
MODEL 8
REMARK VINA RESULT:    -6.953      4.072      4.988
REMARK INTER + INTRA:         -10.947
REMARK INTER:                  -9.784
REMARK INTRA:                  -1.164
REMARK UNBOUND:                -0.946
REMARK  Name = 
REMARK  8 active torsions:
REMARK  status: ('A' for Active; 'I' for Inactive)
REMARK    1  A    between atoms: N_1  and  C_2
REMARK    2  A    between atoms: C_2  and  C_3
REMARK    3  A    between atoms: C_2  and  C_17
REMARK    4  A    between atoms: C_3  and  N_4
REMARK    5  A    between atoms: C_5  and  C_7
REMARK    6  A    between atoms: C_20  and  C_21
REMARK    7  A    between atoms: C_21  and  N_22
REMARK    8  A    between atoms: C_23  and  C_25
REMARK                            x       y       z     vdW  Elec       q    Type
REMARK                         _______ _______ _______ _____ _____    ______ ____
ROOT
ATOM      1  C   UNL     1      45.989   8.719  12.618  0.00  0.00    +0.000 C 
ENDROOT
BRANCH   1   2
ATOM      2  C   UNL     1      45.512   7.492  11.843  0.00  0.00    +0.000 A 
ATOM      3  C   UNL     1      46.436   6.634  11.223  0.00  0.00    +0.000 A 
ATOM      4  C   UNL     1      46.016   5.519  10.488  0.00  0.00    +0.000 A 
ATOM      5  C   UNL     1      44.654   5.223  10.364  0.00  0.00    +0.000 A 
ATOM      6  C   UNL     1      43.731   6.030  11.032  0.00  0.00    +0.000 A 
ATOM      7  C   UNL     1      44.153   7.147  11.757  0.00  0.00    +0.000 A 
BRANCH   5   8
ATOM      8  C   UNL     1      44.176   4.082   9.508  0.00  0.00    +0.000 C 
BRANCH   8   9
ATOM      9  N   UNL     1      45.053   3.813   8.399  0.00  0.00    +0.000 N 
ATOM     10  C   UNL     1      45.765   2.633   8.347  0.00  0.00    +0.000 C 
ATOM     11  O   UNL     1      45.708   1.788   9.233  0.00  0.00    +0.000 OA
ATOM     12  H   UNL     1      45.046   4.440   7.609  0.00  0.00    +0.000 HD
BRANCH  10  13
ATOM     13  C   UNL     1      46.596   2.471   7.183  0.00  0.00    +0.000 A 
ATOM     14  C   UNL     1      46.651   3.105   5.956  0.00  0.00    +0.000 A 
ATOM     15  C   UNL     1      47.711   2.487   5.267  0.00  0.00    +0.000 A 
ATOM     16  N   UNL     1      48.289   1.525   5.987  0.00  0.00    +0.000 NA
ATOM     17  N   UNL     1      47.598   1.534   7.140  0.00  0.00    +0.000 N 
ATOM     18  H   UNL     1      47.856   0.882   7.875  0.00  0.00    +0.000 HD
ENDBRANCH  10  13
ENDBRANCH   8   9
ENDBRANCH   5   8
ENDBRANCH   1   2
BRANCH   1  19
ATOM     19  N   UNL     1      44.871   9.642  12.901  0.00  0.00    +0.000 NA
ATOM     20  H   UNL     1      44.123   9.114  13.349  0.00  0.00    +0.000 HD
ATOM     21  H   UNL     1      44.460   9.926  12.008  0.00  0.00    +0.000 HD
ENDBRANCH   1  19
BRANCH   1  22
ATOM     22  C   UNL     1      46.752   8.356  13.925  0.00  0.00    +0.000 C 
BRANCH  22  23
ATOM     23  N   UNL     1      48.185   8.544  13.830  0.00  0.00    +0.000 N 
ATOM     24  C   UNL     1      49.072   7.559  14.160  0.00  0.00    +0.000 C 
ATOM     25  O   UNL     1      48.706   6.463  14.577  0.00  0.00    +0.000 OA
ATOM     26  H   UNL     1      48.518   9.486  13.647  0.00  0.00    +0.000 HD
BRANCH  24  27
ATOM     27  C   UNL     1      50.486   7.869  13.974  0.00  0.00    +0.000 A 
ATOM     28  C   UNL     1      51.345   7.802  15.062  0.00  0.00    +0.000 A 
ATOM     29  S   UNL     1      52.950   8.227  14.683  0.00  0.00    +0.000 S 
ATOM     30  C   UNL     1      52.540   8.549  13.063  0.00  0.00    +0.000 A 
ATOM     31  N   UNL     1      53.470   9.014  12.187  0.00  0.00    +0.000 NA
ATOM     32  C   UNL     1      53.013   9.252  11.001  0.00  0.00    +0.000 A 
ATOM     33  N   UNL     1      51.716   9.043  10.606  0.00  0.00    +0.000 N 
ATOM     34  C   UNL     1      50.759   8.509  11.437  0.00  0.00    +0.000 A 
ATOM     35  O   UNL     1      49.641   8.218  11.022  0.00  0.00    +0.000 OA
ATOM     36  C   UNL     1      51.208   8.288  12.799  0.00  0.00    +0.000 A 
ATOM     37  H   UNL     1      51.437   9.214   9.651  0.00  0.00    +0.000 HD
ENDBRANCH  24  27
ENDBRANCH  22  23
ENDBRANCH   1  22
TORSDOF 8
ENDMDL
MODEL 9
REMARK VINA RESULT:    -6.947      4.073      4.978
REMARK INTER + INTRA:         -10.939
REMARK INTER:                  -9.612
REMARK INTRA:                  -1.327
REMARK UNBOUND:                -0.946
REMARK  Name = 
REMARK  8 active torsions:
REMARK  status: ('A' for Active; 'I' for Inactive)
REMARK    1  A    between atoms: N_1  and  C_2
REMARK    2  A    between atoms: C_2  and  C_3
REMARK    3  A    between atoms: C_2  and  C_17
REMARK    4  A    between atoms: C_3  and  N_4
REMARK    5  A    between atoms: C_5  and  C_7
REMARK    6  A    between atoms: C_20  and  C_21
REMARK    7  A    between atoms: C_21  and  N_22
REMARK    8  A    between atoms: C_23  and  C_25
REMARK                            x       y       z     vdW  Elec       q    Type
REMARK                         _______ _______ _______ _____ _____    ______ ____
ROOT
ATOM      1  C   UNL     1      46.639   8.626  13.498  0.00  0.00    +0.000 C 
ENDROOT
BRANCH   1   2
ATOM      2  C   UNL     1      46.000   7.522  12.657  0.00  0.00    +0.000 A 
ATOM      3  C   UNL     1      46.440   6.193  12.769  0.00  0.00    +0.000 A 
ATOM      4  C   UNL     1      45.882   5.173  11.989  0.00  0.00    +0.000 A 
ATOM      5  C   UNL     1      44.856   5.454  11.081  0.00  0.00    +0.000 A 
ATOM      6  C   UNL     1      44.366   6.760  11.009  0.00  0.00    +0.000 A 
ATOM      7  C   UNL     1      44.930   7.777  11.783  0.00  0.00    +0.000 A 
BRANCH   5   8
ATOM      8  C   UNL     1      44.304   4.392  10.170  0.00  0.00    +0.000 C 
BRANCH   8   9
ATOM      9  N   UNL     1      45.212   4.041   9.109  0.00  0.00    +0.000 N 
ATOM     10  C   UNL     1      45.351   2.725   8.722  0.00  0.00    +0.000 C 
ATOM     11  O   UNL     1      44.744   1.809   9.264  0.00  0.00    +0.000 OA
ATOM     12  H   UNL     1      45.650   4.778   8.579  0.00  0.00    +0.000 HD
BRANCH  10  13
ATOM     13  C   UNL     1      46.276   2.500   7.642  0.00  0.00    +0.000 A 
ATOM     14  C   UNL     1      46.596   3.208   6.499  0.00  0.00    +0.000 A 
ATOM     15  C   UNL     1      47.603   2.456   5.867  0.00  0.00    +0.000 A 
ATOM     16  N   UNL     1      47.903   1.345   6.542  0.00  0.00    +0.000 NA
ATOM     17  N   UNL     1      47.088   1.395   7.610  0.00  0.00    +0.000 N 
ATOM     18  H   UNL     1      47.131   0.649   8.298  0.00  0.00    +0.000 HD
ENDBRANCH  10  13
ENDBRANCH   8   9
ENDBRANCH   5   8
ENDBRANCH   1   2
BRANCH   1  19
ATOM     19  N   UNL     1      47.506   8.062  14.554  0.00  0.00    +0.000 NA
ATOM     20  H   UNL     1      46.925   7.843  15.364  0.00  0.00    +0.000 HD
ATOM     21  H   UNL     1      48.117   8.808  14.894  0.00  0.00    +0.000 HD
ENDBRANCH   1  19
BRANCH   1  22
ATOM     22  C   UNL     1      47.416   9.670  12.645  0.00  0.00    +0.000 C 
BRANCH  22  23
ATOM     23  N   UNL     1      48.855   9.546  12.748  0.00  0.00    +0.000 N 
ATOM     24  C   UNL     1      49.573   8.710  11.940  0.00  0.00    +0.000 C 
ATOM     25  O   UNL     1      49.037   7.999  11.093  0.00  0.00    +0.000 OA
ATOM     26  H   UNL     1      49.305   9.992  13.542  0.00  0.00    +0.000 HD
BRANCH  24  27
ATOM     27  C   UNL     1      51.022   8.716  12.121  0.00  0.00    +0.000 A 
ATOM     28  C   UNL     1      51.837   9.110  11.070  0.00  0.00    +0.000 A 
ATOM     29  S   UNL     1      53.498   9.026  11.434  0.00  0.00    +0.000 S 
ATOM     30  C   UNL     1      53.181   8.426  12.995  0.00  0.00    +0.000 A 
ATOM     31  N   UNL     1      54.198   8.088  13.832  0.00  0.00    +0.000 NA
ATOM     32  C   UNL     1      53.814   7.611  14.971  0.00  0.00    +0.000 A 
ATOM     33  N   UNL     1      52.506   7.464  15.356  0.00  0.00    +0.000 N 
ATOM     34  C   UNL     1      51.447   7.857  14.572  0.00  0.00    +0.000 A 
ATOM     35  O   UNL     1      50.294   7.829  14.992  0.00  0.00    +0.000 OA
ATOM     36  C   UNL     1      51.826   8.338  13.256  0.00  0.00    +0.000 A 
ATOM     37  H   UNL     1      52.279   7.120  16.278  0.00  0.00    +0.000 HD
ENDBRANCH  24  27
ENDBRANCH  22  23
ENDBRANCH   1  22
TORSDOF 8
ENDMDL
