MODEL 1
REMARK VINA RESULT:    -8.660      0.000      0.000
REMARK INTER + INTRA:         -12.754
REMARK INTER:                 -11.698
REMARK INTRA:                  -1.056
REMARK UNBOUND:                -1.056
REMARK  Name = 
REMARK  8 active torsions:
REMARK  status: ('A' for Active; 'I' for Inactive)
REMARK    1  A    between atoms: C_1  and  C_2
REMARK    2  A    between atoms: C_2  and  C_3
REMARK    3  A    between atoms: C_2  and  C_4
REMARK    4  A    between atoms: C_2  and  C_15
REMARK    5  A    between atoms: C_4  and  N_5
REMARK    6  A    between atoms: N_5  and  C_6
REMARK    7  A    between atoms: C_9  and  C_10
REMARK    8  A    between atoms: C_19  and  C_20
REMARK                            x       y       z     vdW  Elec       q    Type
REMARK                         _______ _______ _______ _____ _____    ______ ____
ROOT
ATOM      1  C   UNL     1      43.149   5.628  11.055  0.00  0.00    +0.000 C 
ATOM      2  C   UNL     1      43.802   4.667  12.070  0.00  0.00    +0.000 C 
ATOM      3  C   UNL     1      42.978   4.643  13.377  0.00  0.00    +0.000 C 
ENDROOT
BRANCH   2   4
ATOM      4  C   UNL     1      45.222   5.159  12.412  0.00  0.00    +0.000 A 
ATOM      5  C   UNL     1      45.854   6.148  11.648  0.00  0.00    +0.000 A 
ATOM      6  C   UNL     1      47.111   6.619  12.030  0.00  0.00    +0.000 A 
ATOM      7  C   UNL     1      47.717   6.099  13.164  0.00  0.00    +0.000 A 
ATOM      8  C   UNL     1      47.032   5.124  13.863  0.00  0.00    +0.000 A 
ATOM      9  N   UNL     1      45.815   4.651  13.517  0.00  0.00    +0.000 NA
BRANCH   8  10
ATOM     10  C   UNL     1      47.512   4.620  15.107  0.00  0.00    +0.000 C 
ATOM     11  C   UNL     1      47.792   4.209  16.307  0.00  0.00    +0.000 C 
ATOM     12  C   UNL     1      47.020   4.504  17.509  0.00  0.00    +0.000 C 
ATOM     13  O   UNL     1      47.048   3.110  17.846  0.00  0.00    +0.000 OA
ATOM     14  C   UNL     1      47.978   2.843  16.785  0.00  0.00    +0.000 C 
ENDBRANCH   8  10
ENDBRANCH   2   4
BRANCH   2  15
ATOM     15  C   UNL     1      43.858   3.224  11.468  0.00  0.00    +0.000 C 
BRANCH  15  16
ATOM     16  N   UNL     1      43.648   3.199  10.011  0.00  0.00    +0.000 N 
ATOM     17  H   UNL     1      42.819   2.708   9.697  0.00  0.00    +0.000 HD
BRANCH  16  18
ATOM     18  C   UNL     1      44.720   3.045   9.131  0.00  0.00    +0.000 A 
ATOM     19  C   UNL     1      45.209   4.066   8.309  0.00  0.00    +0.000 A 
ATOM     20  C   UNL     1      46.207   3.815   7.357  0.00  0.00    +0.000 A 
ATOM     21  C   UNL     1      46.724   2.528   7.195  0.00  0.00    +0.000 A 
ATOM     22  C   UNL     1      46.240   1.494   7.997  0.00  0.00    +0.000 A 
ATOM     23  C   UNL     1      45.247   1.756   8.949  0.00  0.00    +0.000 A 
BRANCH  21  24
ATOM     24  C   UNL     1      47.736   2.299   6.130  0.00  0.00    +0.000 C 
ATOM     25  N   UNL     1      47.734   3.144   5.058  0.00  0.00    +0.000 N 
ATOM     26  O   UNL     1      48.536   1.369   6.189  0.00  0.00    +0.000 OA
ATOM     27  H   UNL     1      46.961   3.758   4.850  0.00  0.00    +0.000 HD
ATOM     28  H   UNL     1      48.365   2.906   4.303  0.00  0.00    +0.000 HD
ENDBRANCH  21  24
ENDBRANCH  16  18
ENDBRANCH  15  16
ENDBRANCH   2  15
TORSDOF 6
ENDMDL
MODEL 2
REMARK VINA RESULT:    -7.562      2.375      3.502
REMARK INTER + INTRA:         -11.271
REMARK INTER:                 -10.250
REMARK INTRA:                  -1.021
REMARK UNBOUND:                -1.056
REMARK  Name = 
REMARK  8 active torsions:
REMARK  status: ('A' for Active; 'I' for Inactive)
REMARK    1  A    between atoms: C_1  and  C_2
REMARK    2  A    between atoms: C_2  and  C_3
REMARK    3  A    between atoms: C_2  and  C_4
REMARK    4  A    between atoms: C_2  and  C_15
REMARK    5  A    between atoms: C_4  and  N_5
REMARK    6  A    between atoms: N_5  and  C_6
REMARK    7  A    between atoms: C_9  and  C_10
REMARK    8  A    between atoms: C_19  and  C_20
REMARK                            x       y       z     vdW  Elec       q    Type
REMARK                         _______ _______ _______ _____ _____    ______ ____
ROOT
ATOM      1  C   UNL     1      43.510   6.879  11.274  0.00  0.00    +0.000 C 
ATOM      2  C   UNL     1      43.713   5.549  12.029  0.00  0.00    +0.000 C 
ATOM      3  C   UNL     1      42.709   5.447  13.199  0.00  0.00    +0.000 C 
ENDROOT
BRANCH   2   4
ATOM      4  C   UNL     1      45.137   5.497  12.617  0.00  0.00    +0.000 A 
ATOM      5  C   UNL     1      45.516   4.496  13.520  0.00  0.00    +0.000 A 
ATOM      6  C   UNL     1      46.833   4.439  13.976  0.00  0.00    +0.000 A 
ATOM      7  C   UNL     1      47.750   5.378  13.527  0.00  0.00    +0.000 A 
ATOM      8  C   UNL     1      47.300   6.336  12.640  0.00  0.00    +0.000 A 
ATOM      9  N   UNL     1      46.031   6.414  12.182  0.00  0.00    +0.000 NA
BRANCH   8  10
ATOM     10  C   UNL     1      48.190   7.264  12.026  0.00  0.00    +0.000 C 
ATOM     11  C   UNL     1      48.917   8.235  11.560  0.00  0.00    +0.000 C 
ATOM     12  C   UNL     1      48.637   9.659  11.717  0.00  0.00    +0.000 C 
ATOM     13  O   UNL     1      49.993   9.860  12.138  0.00  0.00    +0.000 OA
ATOM     14  C   UNL     1      50.331   8.508  11.788  0.00  0.00    +0.000 C 
ENDBRANCH   8  10
ENDBRANCH   2   4
BRANCH   2  15
ATOM     15  C   UNL     1      43.487   4.349  11.049  0.00  0.00    +0.000 C 
BRANCH  15  16
ATOM     16  N   UNL     1      43.831   4.672   9.654  0.00  0.00    +0.000 N 
ATOM     17  H   UNL     1      43.044   4.841   9.038  0.00  0.00    +0.000 HD
BRANCH  16  18
ATOM     18  C   UNL     1      44.884   4.028   9.004  0.00  0.00    +0.000 A 
ATOM     19  C   UNL     1      45.808   4.678   8.179  0.00  0.00    +0.000 A 
ATOM     20  C   UNL     1      46.767   3.958   7.456  0.00  0.00    +0.000 A 
ATOM     21  C   UNL     1      46.809   2.564   7.528  0.00  0.00    +0.000 A 
ATOM     22  C   UNL     1      45.887   1.895   8.335  0.00  0.00    +0.000 A 
ATOM     23  C   UNL     1      44.936   2.626   9.058  0.00  0.00    +0.000 A 
BRANCH  21  24
ATOM     24  C   UNL     1      47.805   1.839   6.694  0.00  0.00    +0.000 C 
ATOM     25  N   UNL     1      48.451   2.544   5.719  0.00  0.00    +0.000 N 
ATOM     26  O   UNL     1      48.029   0.641   6.849  0.00  0.00    +0.000 OA
ATOM     27  H   UNL     1      48.134   3.447   5.399  0.00  0.00    +0.000 HD
ATOM     28  H   UNL     1      49.048   2.006   5.103  0.00  0.00    +0.000 HD
ENDBRANCH  21  24
ENDBRANCH  16  18
ENDBRANCH  15  16
ENDBRANCH   2  15
TORSDOF 6
ENDMDL
MODEL 3
REMARK VINA RESULT:    -7.082      3.207      5.123
REMARK INTER + INTRA:         -10.623
REMARK INTER:                  -9.050
REMARK INTRA:                  -1.573
REMARK UNBOUND:                -1.056
REMARK  Name = 
REMARK  8 active torsions:
REMARK  status: ('A' for Active; 'I' for Inactive)
REMARK    1  A    between atoms: C_1  and  C_2
REMARK    2  A    between atoms: C_2  and  C_3
REMARK    3  A    between atoms: C_2  and  C_4
REMARK    4  A    between atoms: C_2  and  C_15
REMARK    5  A    between atoms: C_4  and  N_5
REMARK    6  A    between atoms: N_5  and  C_6
REMARK    7  A    between atoms: C_9  and  C_10
REMARK    8  A    between atoms: C_19  and  C_20
REMARK                            x       y       z     vdW  Elec       q    Type
REMARK                         _______ _______ _______ _____ _____    ______ ____
ROOT
ATOM      1  C   UNL     1      48.850   7.428  11.717  0.00  0.00    +0.000 C 
ATOM      2  C   UNL     1      48.244   8.616  12.494  0.00  0.00    +0.000 C 
ATOM      3  C   UNL     1      48.879   9.940  12.013  0.00  0.00    +0.000 C 
ENDROOT
BRANCH   2   4
ATOM      4  C   UNL     1      48.546   8.462  13.998  0.00  0.00    +0.000 A 
ATOM      5  C   UNL     1      48.773   9.577  14.814  0.00  0.00    +0.000 A 
ATOM      6  C   UNL     1      48.972   9.403  16.183  0.00  0.00    +0.000 A 
ATOM      7  C   UNL     1      48.943   8.123  16.718  0.00  0.00    +0.000 A 
ATOM      8  C   UNL     1      48.717   7.074  15.849  0.00  0.00    +0.000 A 
ATOM      9  N   UNL     1      48.521   7.214  14.520  0.00  0.00    +0.000 NA
BRANCH   8  10
ATOM     10  C   UNL     1      48.544   5.739  16.318  0.00  0.00    +0.000 C 
ATOM     11  C   UNL     1      48.247   4.585  16.836  0.00  0.00    +0.000 C 
ATOM     12  C   UNL     1      47.302   4.359  17.925  0.00  0.00    +0.000 C 
ATOM     13  O   UNL     1      46.691   3.316  17.152  0.00  0.00    +0.000 OA
ATOM     14  C   UNL     1      47.739   3.390  16.172  0.00  0.00    +0.000 C 
ENDBRANCH   8  10
ENDBRANCH   2   4
BRANCH   2  15
ATOM     15  C   UNL     1      46.698   8.667  12.254  0.00  0.00    +0.000 C 
BRANCH  15  16
ATOM     16  N   UNL     1      45.941   7.828  13.198  0.00  0.00    +0.000 N 
ATOM     17  H   UNL     1      46.306   7.794  14.143  0.00  0.00    +0.000 HD
BRANCH  16  18
ATOM     18  C   UNL     1      45.391   6.610  12.798  0.00  0.00    +0.000 A 
ATOM     19  C   UNL     1      45.779   5.370  13.314  0.00  0.00    +0.000 A 
ATOM     20  C   UNL     1      45.278   4.174  12.783  0.00  0.00    +0.000 A 
ATOM     21  C   UNL     1      44.389   4.194  11.706  0.00  0.00    +0.000 A 
ATOM     22  C   UNL     1      43.999   5.422  11.168  0.00  0.00    +0.000 A 
ATOM     23  C   UNL     1      44.502   6.612  11.710  0.00  0.00    +0.000 A 
BRANCH  21  24
ATOM     24  C   UNL     1      43.934   2.899  11.137  0.00  0.00    +0.000 C 
ATOM     25  N   UNL     1      44.651   2.371  10.102  0.00  0.00    +0.000 N 
ATOM     26  O   UNL     1      42.932   2.325  11.558  0.00  0.00    +0.000 OA
ATOM     27  H   UNL     1      45.321   2.910   9.574  0.00  0.00    +0.000 HD
ATOM     28  H   UNL     1      44.263   1.542   9.669  0.00  0.00    +0.000 HD
ENDBRANCH  21  24
ENDBRANCH  16  18
ENDBRANCH  15  16
ENDBRANCH   2  15
TORSDOF 6
ENDMDL
MODEL 4
REMARK VINA RESULT:    -7.011      2.551      4.825
REMARK INTER + INTRA:         -10.527
REMARK INTER:                  -9.267
REMARK INTRA:                  -1.260
REMARK UNBOUND:                -1.056
REMARK  Name = 
REMARK  8 active torsions:
REMARK  status: ('A' for Active; 'I' for Inactive)
REMARK    1  A    between atoms: C_1  and  C_2
REMARK    2  A    between atoms: C_2  and  C_3
REMARK    3  A    between atoms: C_2  and  C_4
REMARK    4  A    between atoms: C_2  and  C_15
REMARK    5  A    between atoms: C_4  and  N_5
REMARK    6  A    between atoms: N_5  and  C_6
REMARK    7  A    between atoms: C_9  and  C_10
REMARK    8  A    between atoms: C_19  and  C_20
REMARK                            x       y       z     vdW  Elec       q    Type
REMARK                         _______ _______ _______ _____ _____    ______ ____
ROOT
ATOM      1  C   UNL     1      49.275   6.959  12.829  0.00  0.00    +0.000 C 
ATOM      2  C   UNL     1      48.446   7.945  13.679  0.00  0.00    +0.000 C 
ATOM      3  C   UNL     1      48.922   9.392  13.421  0.00  0.00    +0.000 C 
ENDROOT
BRANCH   2   4
ATOM      4  C   UNL     1      48.648   7.637  15.176  0.00  0.00    +0.000 A 
ATOM      5  C   UNL     1      48.537   8.638  16.148  0.00  0.00    +0.000 A 
ATOM      6  C   UNL     1      48.654   8.308  17.498  0.00  0.00    +0.000 A 
ATOM      7  C   UNL     1      48.881   6.988  17.859  0.00  0.00    +0.000 A 
ATOM      8  C   UNL     1      48.983   6.058  16.843  0.00  0.00    +0.000 A 
ATOM      9  N   UNL     1      48.872   6.350  15.528  0.00  0.00    +0.000 NA
BRANCH   8  10
ATOM     10  C   UNL     1      49.089   4.663  17.115  0.00  0.00    +0.000 C 
ATOM     11  C   UNL     1      49.104   3.367  17.207  0.00  0.00    +0.000 C 
ATOM     12  C   UNL     1      48.361   2.445  16.353  0.00  0.00    +0.000 C 
ATOM     13  O   UNL     1      49.562   1.685  16.162  0.00  0.00    +0.000 OA
ATOM     14  C   UNL     1      50.246   2.461  17.159  0.00  0.00    +0.000 C 
ENDBRANCH   8  10
ENDBRANCH   2   4
BRANCH   2  15
ATOM     15  C   UNL     1      46.932   7.824  13.300  0.00  0.00    +0.000 C 
BRANCH  15  16
ATOM     16  N   UNL     1      46.366   6.499  13.606  0.00  0.00    +0.000 N 
ATOM     17  H   UNL     1      46.860   5.966  14.312  0.00  0.00    +0.000 HD
BRANCH  16  18
ATOM     18  C   UNL     1      45.843   5.689  12.598  0.00  0.00    +0.000 A 
ATOM     19  C   UNL     1      45.447   4.361  12.789  0.00  0.00    +0.000 A 
ATOM     20  C   UNL     1      45.046   3.561  11.711  0.00  0.00    +0.000 A 
ATOM     21  C   UNL     1      45.053   4.070  10.410  0.00  0.00    +0.000 A 
ATOM     22  C   UNL     1      45.457   5.389  10.197  0.00  0.00    +0.000 A 
ATOM     23  C   UNL     1      45.851   6.181  11.283  0.00  0.00    +0.000 A 
BRANCH  21  24
ATOM     24  C   UNL     1      44.679   3.165   9.292  0.00  0.00    +0.000 C 
ATOM     25  N   UNL     1      44.477   1.846   9.581  0.00  0.00    +0.000 N 
ATOM     26  O   UNL     1      44.577   3.572   8.137  0.00  0.00    +0.000 OA
ATOM     27  H   UNL     1      44.779   1.426  10.448  0.00  0.00    +0.000 HD
ATOM     28  H   UNL     1      44.322   1.235   8.789  0.00  0.00    +0.000 HD
ENDBRANCH  21  24
ENDBRANCH  16  18
ENDBRANCH  15  16
ENDBRANCH   2  15
TORSDOF 6
ENDMDL
MODEL 5
REMARK VINA RESULT:    -6.760      2.186      8.256
REMARK INTER + INTRA:         -10.188
REMARK INTER:                  -9.286
REMARK INTRA:                  -0.902
REMARK UNBOUND:                -1.056
REMARK  Name = 
REMARK  8 active torsions:
REMARK  status: ('A' for Active; 'I' for Inactive)
REMARK    1  A    between atoms: C_1  and  C_2
REMARK    2  A    between atoms: C_2  and  C_3
REMARK    3  A    between atoms: C_2  and  C_4
REMARK    4  A    between atoms: C_2  and  C_15
REMARK    5  A    between atoms: C_4  and  N_5
REMARK    6  A    between atoms: N_5  and  C_6
REMARK    7  A    between atoms: C_9  and  C_10
REMARK    8  A    between atoms: C_19  and  C_20
REMARK                            x       y       z     vdW  Elec       q    Type
REMARK                         _______ _______ _______ _____ _____    ______ ____
ROOT
ATOM      1  C   UNL     1      45.436   8.464  12.363  0.00  0.00    +0.000 C 
ATOM      2  C   UNL     1      46.113   7.077  12.401  0.00  0.00    +0.000 C 
ATOM      3  C   UNL     1      47.189   6.985  11.296  0.00  0.00    +0.000 C 
ENDROOT
BRANCH   2   4
ATOM      4  C   UNL     1      45.064   5.979  12.138  0.00  0.00    +0.000 A 
ATOM      5  C   UNL     1      43.862   5.932  12.855  0.00  0.00    +0.000 A 
ATOM      6  C   UNL     1      42.906   4.967  12.539  0.00  0.00    +0.000 A 
ATOM      7  C   UNL     1      43.160   4.065  11.516  0.00  0.00    +0.000 A 
ATOM      8  C   UNL     1      44.369   4.173  10.857  0.00  0.00    +0.000 A 
ATOM      9  N   UNL     1      45.312   5.098  11.142  0.00  0.00    +0.000 NA
BRANCH   8  10
ATOM     10  C   UNL     1      44.670   3.379   9.713  0.00  0.00    +0.000 C 
ATOM     11  C   UNL     1      45.063   2.780   8.629  0.00  0.00    +0.000 C 
ATOM     12  C   UNL     1      45.901   3.368   7.589  0.00  0.00    +0.000 C 
ATOM     13  O   UNL     1      46.734   2.200   7.626  0.00  0.00    +0.000 OA
ATOM     14  C   UNL     1      45.804   1.531   8.492  0.00  0.00    +0.000 C 
ENDBRANCH   8  10
ENDBRANCH   2   4
BRANCH   2  15
ATOM     15  C   UNL     1      46.787   6.859  13.797  0.00  0.00    +0.000 C 
BRANCH  15  16
ATOM     16  N   UNL     1      47.060   5.442  14.089  0.00  0.00    +0.000 N 
ATOM     17  H   UNL     1      46.359   4.786  13.766  0.00  0.00    +0.000 HD
BRANCH  16  18
ATOM     18  C   UNL     1      47.631   5.053  15.302  0.00  0.00    +0.000 A 
ATOM     19  C   UNL     1      47.244   3.916  16.019  0.00  0.00    +0.000 A 
ATOM     20  C   UNL     1      47.769   3.648  17.290  0.00  0.00    +0.000 A 
ATOM     21  C   UNL     1      48.680   4.525  17.881  0.00  0.00    +0.000 A 
ATOM     22  C   UNL     1      49.069   5.672  17.187  0.00  0.00    +0.000 A 
ATOM     23  C   UNL     1      48.543   5.929  15.914  0.00  0.00    +0.000 A 
BRANCH  21  24
ATOM     24  C   UNL     1      49.160   4.230  19.256  0.00  0.00    +0.000 C 
ATOM     25  N   UNL     1      48.342   3.505  20.075  0.00  0.00    +0.000 N 
ATOM     26  O   UNL     1      50.245   4.640  19.664  0.00  0.00    +0.000 OA
ATOM     27  H   UNL     1      47.364   3.358  19.874  0.00  0.00    +0.000 HD
ATOM     28  H   UNL     1      48.649   3.405  21.034  0.00  0.00    +0.000 HD
ENDBRANCH  21  24
ENDBRANCH  16  18
ENDBRANCH  15  16
ENDBRANCH   2  15
TORSDOF 6
ENDMDL
MODEL 6
REMARK VINA RESULT:    -6.669      2.018      7.570
REMARK INTER + INTRA:         -10.064
REMARK INTER:                  -9.146
REMARK INTRA:                  -0.918
REMARK UNBOUND:                -1.056
REMARK  Name = 
REMARK  8 active torsions:
REMARK  status: ('A' for Active; 'I' for Inactive)
REMARK    1  A    between atoms: C_1  and  C_2
REMARK    2  A    between atoms: C_2  and  C_3
REMARK    3  A    between atoms: C_2  and  C_4
REMARK    4  A    between atoms: C_2  and  C_15
REMARK    5  A    between atoms: C_4  and  N_5
REMARK    6  A    between atoms: N_5  and  C_6
REMARK    7  A    between atoms: C_9  and  C_10
REMARK    8  A    between atoms: C_19  and  C_20
REMARK                            x       y       z     vdW  Elec       q    Type
REMARK                         _______ _______ _______ _____ _____    ______ ____
ROOT
ATOM      1  C   UNL     1      43.366   2.847  11.874  0.00  0.00    +0.000 C 
ATOM      2  C   UNL     1      43.670   4.358  11.963  0.00  0.00    +0.000 C 
ATOM      3  C   UNL     1      42.361   5.168  11.825  0.00  0.00    +0.000 C 
ENDROOT
BRANCH   2   4
ATOM      4  C   UNL     1      44.607   4.768  10.810  0.00  0.00    +0.000 A 
ATOM      5  C   UNL     1      45.238   6.017  10.792  0.00  0.00    +0.000 A 
ATOM      6  C   UNL     1      46.136   6.325   9.770  0.00  0.00    +0.000 A 
ATOM      7  C   UNL     1      46.390   5.385   8.782  0.00  0.00    +0.000 A 
ATOM      8  C   UNL     1      45.726   4.177   8.865  0.00  0.00    +0.000 A 
ATOM      9  N   UNL     1      44.854   3.852   9.844  0.00  0.00    +0.000 NA
BRANCH   8  10
ATOM     10  C   UNL     1      46.013   3.104   7.972  0.00  0.00    +0.000 C 
ATOM     11  C   UNL     1      46.397   2.232   7.088  0.00  0.00    +0.000 C 
ATOM     12  C   UNL     1      47.261   2.506   5.944  0.00  0.00    +0.000 C 
ATOM     13  O   UNL     1      48.057   1.366   6.298  0.00  0.00    +0.000 OA
ATOM     14  C   UNL     1      47.100   0.971   7.293  0.00  0.00    +0.000 C 
ENDBRANCH   8  10
ENDBRANCH   2   4
BRANCH   2  15
ATOM     15  C   UNL     1      44.334   4.681  13.343  0.00  0.00    +0.000 C 
BRANCH  15  16
ATOM     16  N   UNL     1      45.627   4.003  13.533  0.00  0.00    +0.000 N 
ATOM     17  H   UNL     1      45.575   3.009  13.727  0.00  0.00    +0.000 HD
BRANCH  16  18
ATOM     18  C   UNL     1      46.673   4.623  14.218  0.00  0.00    +0.000 A 
ATOM     19  C   UNL     1      47.085   4.263  15.505  0.00  0.00    +0.000 A 
ATOM     20  C   UNL     1      48.059   5.005  16.187  0.00  0.00    +0.000 A 
ATOM     21  C   UNL     1      48.626   6.138  15.602  0.00  0.00    +0.000 A 
ATOM     22  C   UNL     1      48.218   6.521  14.323  0.00  0.00    +0.000 A 
ATOM     23  C   UNL     1      47.249   5.769  13.647  0.00  0.00    +0.000 A 
BRANCH  21  24
ATOM     24  C   UNL     1      49.609   6.928  16.389  0.00  0.00    +0.000 C 
ATOM     25  N   UNL     1      50.927   6.825  16.050  0.00  0.00    +0.000 N 
ATOM     26  O   UNL     1      49.262   7.635  17.333  0.00  0.00    +0.000 OA
ATOM     27  H   UNL     1      51.280   6.089  15.456  0.00  0.00    +0.000 HD
ATOM     28  H   UNL     1      51.583   7.293  16.663  0.00  0.00    +0.000 HD
ENDBRANCH  21  24
ENDBRANCH  16  18
ENDBRANCH  15  16
ENDBRANCH   2  15
TORSDOF 6
ENDMDL
MODEL 7
REMARK VINA RESULT:    -6.505      4.008      6.358
REMARK INTER + INTRA:          -9.842
REMARK INTER:                  -8.347
REMARK INTRA:                  -1.495
REMARK UNBOUND:                -1.056
REMARK  Name = 
REMARK  8 active torsions:
REMARK  status: ('A' for Active; 'I' for Inactive)
REMARK    1  A    between atoms: C_1  and  C_2
REMARK    2  A    between atoms: C_2  and  C_3
REMARK    3  A    between atoms: C_2  and  C_4
REMARK    4  A    between atoms: C_2  and  C_15
REMARK    5  A    between atoms: C_4  and  N_5
REMARK    6  A    between atoms: N_5  and  C_6
REMARK    7  A    between atoms: C_9  and  C_10
REMARK    8  A    between atoms: C_19  and  C_20
REMARK                            x       y       z     vdW  Elec       q    Type
REMARK                         _______ _______ _______ _____ _____    ______ ____
ROOT
ATOM      1  C   UNL     1      51.174   8.507  13.051  0.00  0.00    +0.000 C 
ATOM      2  C   UNL     1      50.302   8.461  14.322  0.00  0.00    +0.000 C 
ATOM      3  C   UNL     1      50.311   9.840  15.019  0.00  0.00    +0.000 C 
ENDROOT
BRANCH   2   4
ATOM      4  C   UNL     1      50.875   7.425  15.309  0.00  0.00    +0.000 A 
ATOM      5  C   UNL     1      52.215   7.469  15.715  0.00  0.00    +0.000 A 
ATOM      6  C   UNL     1      52.680   6.559  16.664  0.00  0.00    +0.000 A 
ATOM      7  C   UNL     1      51.806   5.620  17.193  0.00  0.00    +0.000 A 
ATOM      8  C   UNL     1      50.501   5.638  16.741  0.00  0.00    +0.000 A 
ATOM      9  N   UNL     1      50.024   6.508  15.824  0.00  0.00    +0.000 NA
BRANCH   8  10
ATOM     10  C   UNL     1      49.500   4.800  17.313  0.00  0.00    +0.000 C 
ATOM     11  C   UNL     1      48.470   4.150  17.766  0.00  0.00    +0.000 C 
ATOM     12  C   UNL     1      47.096   4.639  17.782  0.00  0.00    +0.000 C 
ATOM     13  O   UNL     1      46.668   3.399  17.202  0.00  0.00    +0.000 OA
ATOM     14  C   UNL     1      47.977   2.834  17.375  0.00  0.00    +0.000 C 
ENDBRANCH   8  10
ENDBRANCH   2   4
BRANCH   2  15
ATOM     15  C   UNL     1      48.831   8.087  13.938  0.00  0.00    +0.000 C 
BRANCH  15  16
ATOM     16  N   UNL     1      48.750   6.943  13.014  0.00  0.00    +0.000 N 
ATOM     17  H   UNL     1      49.221   7.065  12.125  0.00  0.00    +0.000 HD
BRANCH  16  18
ATOM     18  C   UNL     1      47.579   6.193  12.896  0.00  0.00    +0.000 A 
ATOM     19  C   UNL     1      46.586   6.442  11.944  0.00  0.00    +0.000 A 
ATOM     20  C   UNL     1      45.377   5.733  11.955  0.00  0.00    +0.000 A 
ATOM     21  C   UNL     1      45.129   4.770  12.937  0.00  0.00    +0.000 A 
ATOM     22  C   UNL     1      46.104   4.517  13.903  0.00  0.00    +0.000 A 
ATOM     23  C   UNL     1      47.310   5.227  13.879  0.00  0.00    +0.000 A 
BRANCH  21  24
ATOM     24  C   UNL     1      43.808   4.089  12.945  0.00  0.00    +0.000 C 
ATOM     25  N   UNL     1      43.778   2.756  12.652  0.00  0.00    +0.000 N 
ATOM     26  O   UNL     1      42.768   4.699  13.182  0.00  0.00    +0.000 OA
ATOM     27  H   UNL     1      44.554   2.275  12.223  0.00  0.00    +0.000 HD
ATOM     28  H   UNL     1      42.859   2.340  12.567  0.00  0.00    +0.000 HD
ENDBRANCH  21  24
ENDBRANCH  16  18
ENDBRANCH  15  16
ENDBRANCH   2  15
TORSDOF 6
ENDMDL
MODEL 8
REMARK VINA RESULT:    -6.054      3.400      8.088
REMARK INTER + INTRA:          -9.234
REMARK INTER:                  -8.046
REMARK INTRA:                  -1.188
REMARK UNBOUND:                -1.056
REMARK  Name = 
REMARK  8 active torsions:
REMARK  status: ('A' for Active; 'I' for Inactive)
REMARK    1  A    between atoms: C_1  and  C_2
REMARK    2  A    between atoms: C_2  and  C_3
REMARK    3  A    between atoms: C_2  and  C_4
REMARK    4  A    between atoms: C_2  and  C_15
REMARK    5  A    between atoms: C_4  and  N_5
REMARK    6  A    between atoms: N_5  and  C_6
REMARK    7  A    between atoms: C_9  and  C_10
REMARK    8  A    between atoms: C_19  and  C_20
REMARK                            x       y       z     vdW  Elec       q    Type
REMARK                         _______ _______ _______ _____ _____    ______ ____
ROOT
ATOM      1  C   UNL     1      49.040   9.713  11.996  0.00  0.00    +0.000 C 
ATOM      2  C   UNL     1      48.610   8.397  12.677  0.00  0.00    +0.000 C 
ATOM      3  C   UNL     1      49.485   7.229  12.169  0.00  0.00    +0.000 C 
ENDROOT
BRANCH   2   4
ATOM      4  C   UNL     1      47.143   8.082  12.322  0.00  0.00    +0.000 A 
ATOM      5  C   UNL     1      46.210   9.104  12.105  0.00  0.00    +0.000 A 
ATOM      6  C   UNL     1      44.911   8.782  11.714  0.00  0.00    +0.000 A 
ATOM      7  C   UNL     1      44.560   7.450  11.547  0.00  0.00    +0.000 A 
ATOM      8  C   UNL     1      45.534   6.500  11.783  0.00  0.00    +0.000 A 
ATOM      9  N   UNL     1      46.800   6.783  12.161  0.00  0.00    +0.000 NA
BRANCH   8  10
ATOM     10  C   UNL     1      45.310   5.118  11.517  0.00  0.00    +0.000 C 
ATOM     11  C   UNL     1      44.965   3.872  11.383  0.00  0.00    +0.000 C 
ATOM     12  C   UNL     1      43.983   3.169  12.201  0.00  0.00    +0.000 C 
ATOM     13  O   UNL     1      43.366   2.677  11.003  0.00  0.00    +0.000 OA
ATOM     14  C   UNL     1      44.444   3.190  10.204  0.00  0.00    +0.000 C 
ENDBRANCH   8  10
ENDBRANCH   2   4
BRANCH   2  15
ATOM     15  C   UNL     1      48.775   8.528  14.228  0.00  0.00    +0.000 C 
BRANCH  15  16
ATOM     16  N   UNL     1      48.148   7.422  14.970  0.00  0.00    +0.000 N 
ATOM     17  H   UNL     1      47.219   7.610  15.332  0.00  0.00    +0.000 HD
BRANCH  16  18
ATOM     18  C   UNL     1      48.896   6.612  15.826  0.00  0.00    +0.000 A 
ATOM     19  C   UNL     1      50.258   6.797  16.084  0.00  0.00    +0.000 A 
ATOM     20  C   UNL     1      50.981   5.876  16.854  0.00  0.00    +0.000 A 
ATOM     21  C   UNL     1      50.357   4.737  17.367  0.00  0.00    +0.000 A 
ATOM     22  C   UNL     1      49.001   4.528  17.109  0.00  0.00    +0.000 A 
ATOM     23  C   UNL     1      48.287   5.457  16.343  0.00  0.00    +0.000 A 
BRANCH  21  24
ATOM     24  C   UNL     1      51.179   3.757  18.125  0.00  0.00    +0.000 C 
ATOM     25  N   UNL     1      51.488   4.055  19.422  0.00  0.00    +0.000 N 
ATOM     26  O   UNL     1      51.595   2.723  17.607  0.00  0.00    +0.000 OA
ATOM     27  H   UNL     1      51.380   4.980  19.808  0.00  0.00    +0.000 HD
ATOM     28  H   UNL     1      52.130   3.422  19.882  0.00  0.00    +0.000 HD
ENDBRANCH  21  24
ENDBRANCH  16  18
ENDBRANCH  15  16
ENDBRANCH   2  15
TORSDOF 6
ENDMDL
