MODEL 1
REMARK VINA RESULT:    -7.514      0.000      0.000
REMARK INTER + INTRA:         -10.115
REMARK INTER:                  -9.491
REMARK INTRA:                  -0.624
REMARK UNBOUND:                -0.624
REMARK  Name = 
REMARK  5 active torsions:
REMARK  status: ('A' for Active; 'I' for Inactive)
REMARK    1  A    between atoms: N_1  and  C_2
REMARK    2  A    between atoms: C_2  and  C_3
REMARK    3  A    between atoms: C_3  and  C_4
REMARK    4  A    between atoms: C_7  and  C_8
REMARK    5  A    between atoms: C_8  and  N_9
REMARK                            x       y       z     vdW  Elec       q    Type
REMARK                         _______ _______ _______ _____ _____    ______ ____
ROOT
ATOM      1  C   UNL     1      46.099   2.340   7.807  0.00  0.00    +0.000 A 
ATOM      2  C   UNL     1      45.290   1.729   8.773  0.00  0.00    +0.000 A 
ATOM      3  C   UNL     1      44.583   2.502   9.699  0.00  0.00    +0.000 A 
ATOM      4  C   UNL     1      44.664   3.901   9.675  0.00  0.00    +0.000 A 
ATOM      5  C   UNL     1      45.461   4.509   8.695  0.00  0.00    +0.000 A 
ATOM      6  C   UNL     1      46.167   3.737   7.767  0.00  0.00    +0.000 A 
ENDROOT
BRANCH   1   7
ATOM      7  C   UNL     1      46.888   1.506   6.826  0.00  0.00    +0.000 C 
BRANCH   7   8
ATOM      8  C   UNL     1      48.225   2.152   6.453  0.00  0.00    +0.000 C 
BRANCH   8   9
ATOM      9  N   UNL     1      48.270   2.476   5.026  0.00  0.00    +0.000 NA
ATOM     10  H   UNL     1      49.165   2.176   4.641  0.00  0.00    +0.000 HD
ATOM     11  H   UNL     1      48.231   3.487   4.902  0.00  0.00    +0.000 HD
ENDBRANCH   8   9
ENDBRANCH   7   8
ENDBRANCH   1   7
BRANCH   4  12
ATOM     12  C   UNL     1      43.912   4.736  10.679  0.00  0.00    +0.000 C 
BRANCH  12  13
ATOM     13  N   UNL     1      44.793   5.583  11.477  0.00  0.00    +0.000 N 
ATOM     14  C   UNL     1      44.754   6.958  11.469  0.00  0.00    +0.000 A 
ATOM     15  C   UNL     1      45.617   7.418  12.436  0.00  0.00    +0.000 A 
ATOM     16  C   UNL     1      46.205   6.287  13.066  0.00  0.00    +0.000 A 
ATOM     17  C   UNL     1      47.123   6.127  14.111  0.00  0.00    +0.000 A 
ATOM     18  N   UNL     1      47.508   4.891  14.511  0.00  0.00    +0.000 NA
ATOM     19  C   UNL     1      46.994   3.817  13.877  0.00  0.00    +0.000 A 
ATOM     20  C   UNL     1      46.078   3.866  12.837  0.00  0.00    +0.000 A 
ATOM     21  C   UNL     1      45.684   5.148  12.440  0.00  0.00    +0.000 A 
ENDBRANCH  12  13
ENDBRANCH   4  12
TORSDOF 5
ENDMDL
MODEL 2
REMARK VINA RESULT:    -7.286      1.168      2.599
REMARK INTER + INTRA:          -9.827
REMARK INTER:                  -9.212
REMARK INTRA:                  -0.615
REMARK UNBOUND:                -0.624
REMARK  Name = 
REMARK  5 active torsions:
REMARK  status: ('A' for Active; 'I' for Inactive)
REMARK    1  A    between atoms: N_1  and  C_2
REMARK    2  A    between atoms: C_2  and  C_3
REMARK    3  A    between atoms: C_3  and  C_4
REMARK    4  A    between atoms: C_7  and  C_8
REMARK    5  A    between atoms: C_8  and  N_9
REMARK                            x       y       z     vdW  Elec       q    Type
REMARK                         _______ _______ _______ _____ _____    ______ ____
ROOT
ATOM      1  C   UNL     1      46.094   2.371   7.865  0.00  0.00    +0.000 A 
ATOM      2  C   UNL     1      46.123   3.771   7.829  0.00  0.00    +0.000 A 
ATOM      3  C   UNL     1      45.370   4.521   8.737  0.00  0.00    +0.000 A 
ATOM      4  C   UNL     1      44.578   3.889   9.705  0.00  0.00    +0.000 A 
ATOM      5  C   UNL     1      44.565   2.488   9.750  0.00  0.00    +0.000 A 
ATOM      6  C   UNL     1      45.319   1.737   8.843  0.00  0.00    +0.000 A 
ENDROOT
BRANCH   1   7
ATOM      7  C   UNL     1      46.881   1.560   6.865  0.00  0.00    +0.000 C 
BRANCH   7   8
ATOM      8  C   UNL     1      48.217   2.216   6.503  0.00  0.00    +0.000 C 
BRANCH   8   9
ATOM      9  N   UNL     1      48.274   2.536   5.076  0.00  0.00    +0.000 NA
ATOM     10  H   UNL     1      49.031   2.008   4.643  0.00  0.00    +0.000 HD
ATOM     11  H   UNL     1      48.507   3.521   4.954  0.00  0.00    +0.000 HD
ENDBRANCH   8   9
ENDBRANCH   7   8
ENDBRANCH   1   7
BRANCH   4  12
ATOM     12  C   UNL     1      43.756   4.695  10.678  0.00  0.00    +0.000 C 
BRANCH  12  13
ATOM     13  N   UNL     1      44.569   5.318  11.718  0.00  0.00    +0.000 N 
ATOM     14  C   UNL     1      45.312   4.616  12.638  0.00  0.00    +0.000 A 
ATOM     15  C   UNL     1      46.057   5.514  13.366  0.00  0.00    +0.000 A 
ATOM     16  C   UNL     1      45.767   6.816  12.873  0.00  0.00    +0.000 A 
ATOM     17  C   UNL     1      46.224   8.100  13.196  0.00  0.00    +0.000 A 
ATOM     18  N   UNL     1      45.758   9.187  12.536  0.00  0.00    +0.000 NA
ATOM     19  C   UNL     1      44.841   9.009  11.564  0.00  0.00    +0.000 A 
ATOM     20  C   UNL     1      44.327   7.784  11.165  0.00  0.00    +0.000 A 
ATOM     21  C   UNL     1      44.822   6.670  11.850  0.00  0.00    +0.000 A 
ENDBRANCH  12  13
ENDBRANCH   4  12
TORSDOF 5
ENDMDL
MODEL 3
REMARK VINA RESULT:    -5.855      1.927      6.635
REMARK INTER + INTRA:          -8.019
REMARK INTER:                  -7.534
REMARK INTRA:                  -0.486
REMARK UNBOUND:                -0.624
REMARK  Name = 
REMARK  5 active torsions:
REMARK  status: ('A' for Active; 'I' for Inactive)
REMARK    1  A    between atoms: N_1  and  C_2
REMARK    2  A    between atoms: C_2  and  C_3
REMARK    3  A    between atoms: C_3  and  C_4
REMARK    4  A    between atoms: C_7  and  C_8
REMARK    5  A    between atoms: C_8  and  N_9
REMARK                            x       y       z     vdW  Elec       q    Type
REMARK                         _______ _______ _______ _____ _____    ______ ____
ROOT
ATOM      1  C   UNL     1      47.786   7.460  13.625  0.00  0.00    +0.000 A 
ATOM      2  C   UNL     1      46.822   8.420  13.290  0.00  0.00    +0.000 A 
ATOM      3  C   UNL     1      45.641   8.045  12.642  0.00  0.00    +0.000 A 
ATOM      4  C   UNL     1      45.395   6.703  12.323  0.00  0.00    +0.000 A 
ATOM      5  C   UNL     1      46.353   5.743  12.677  0.00  0.00    +0.000 A 
ATOM      6  C   UNL     1      47.534   6.117  13.325  0.00  0.00    +0.000 A 
ENDROOT
BRANCH   1   7
ATOM      7  C   UNL     1      49.076   7.867  14.295  0.00  0.00    +0.000 C 
BRANCH   7   8
ATOM      8  C   UNL     1      49.286   7.158  15.636  0.00  0.00    +0.000 C 
BRANCH   8   9
ATOM      9  N   UNL     1      48.300   7.601  16.623  0.00  0.00    +0.000 NA
ATOM     10  H   UNL     1      47.371   7.577  16.205  0.00  0.00    +0.000 HD
ATOM     11  H   UNL     1      48.476   8.573  16.871  0.00  0.00    +0.000 HD
ENDBRANCH   8   9
ENDBRANCH   7   8
ENDBRANCH   1   7
BRANCH   4  12
ATOM     12  C   UNL     1      44.127   6.298  11.615  0.00  0.00    +0.000 C 
BRANCH  12  13
ATOM     13  N   UNL     1      44.088   4.871  11.307  0.00  0.00    +0.000 N 
ATOM     14  C   UNL     1      43.390   3.943  12.045  0.00  0.00    +0.000 A 
ATOM     15  C   UNL     1      43.459   2.735  11.392  0.00  0.00    +0.000 A 
ATOM     16  C   UNL     1      44.223   2.925  10.208  0.00  0.00    +0.000 A 
ATOM     17  C   UNL     1      44.607   2.085   9.156  0.00  0.00    +0.000 A 
ATOM     18  N   UNL     1      45.354   2.558   8.129  0.00  0.00    +0.000 NA
ATOM     19  C   UNL     1      45.725   3.854   8.144  0.00  0.00    +0.000 A 
ATOM     20  C   UNL     1      45.395   4.769   9.133  0.00  0.00    +0.000 A 
ATOM     21  C   UNL     1      44.618   4.268  10.182  0.00  0.00    +0.000 A 
ENDBRANCH  12  13
ENDBRANCH   4  12
TORSDOF 5
ENDMDL
MODEL 4
REMARK VINA RESULT:    -5.802      1.613      6.385
REMARK INTER + INTRA:          -7.952
REMARK INTER:                  -7.350
REMARK INTRA:                  -0.602
REMARK UNBOUND:                -0.624
REMARK  Name = 
REMARK  5 active torsions:
REMARK  status: ('A' for Active; 'I' for Inactive)
REMARK    1  A    between atoms: N_1  and  C_2
REMARK    2  A    between atoms: C_2  and  C_3
REMARK    3  A    between atoms: C_3  and  C_4
REMARK    4  A    between atoms: C_7  and  C_8
REMARK    5  A    between atoms: C_8  and  N_9
REMARK                            x       y       z     vdW  Elec       q    Type
REMARK                         _______ _______ _______ _____ _____    ______ ____
ROOT
ATOM      1  C   UNL     1      46.768   6.280  12.674  0.00  0.00    +0.000 A 
ATOM      2  C   UNL     1      45.864   5.224  12.849  0.00  0.00    +0.000 A 
ATOM      3  C   UNL     1      45.187   4.679  11.754  0.00  0.00    +0.000 A 
ATOM      4  C   UNL     1      45.405   5.171  10.461  0.00  0.00    +0.000 A 
ATOM      5  C   UNL     1      46.325   6.215  10.286  0.00  0.00    +0.000 A 
ATOM      6  C   UNL     1      47.002   6.760  11.380  0.00  0.00    +0.000 A 
ENDROOT
BRANCH   1   7
ATOM      7  C   UNL     1      47.475   6.891  13.859  0.00  0.00    +0.000 C 
BRANCH   7   8
ATOM      8  C   UNL     1      48.654   7.775  13.443  0.00  0.00    +0.000 C 
BRANCH   8   9
ATOM      9  N   UNL     1      49.926   7.074  13.628  0.00  0.00    +0.000 NA
ATOM     10  H   UNL     1      49.816   6.099  13.353  0.00  0.00    +0.000 HD
ATOM     11  H   UNL     1      50.172   7.066  14.617  0.00  0.00    +0.000 HD
ENDBRANCH   8   9
ENDBRANCH   7   8
ENDBRANCH   1   7
BRANCH   4  12
ATOM     12  C   UNL     1      44.668   4.592   9.279  0.00  0.00    +0.000 C 
BRANCH  12  13
ATOM     13  N   UNL     1      45.085   3.227   8.972  0.00  0.00    +0.000 N 
ATOM     14  C   UNL     1      44.416   2.103   9.398  0.00  0.00    +0.000 A 
ATOM     15  C   UNL     1      45.000   1.006   8.810  0.00  0.00    +0.000 A 
ATOM     16  C   UNL     1      46.064   1.470   7.989  0.00  0.00    +0.000 A 
ATOM     17  C   UNL     1      46.987   0.837   7.147  0.00  0.00    +0.000 A 
ATOM     18  N   UNL     1      47.912   1.556   6.468  0.00  0.00    +0.000 NA
ATOM     19  C   UNL     1      47.931   2.896   6.624  0.00  0.00    +0.000 A 
ATOM     20  C   UNL     1      47.062   3.619   7.427  0.00  0.00    +0.000 A 
ATOM     21  C   UNL     1      46.107   2.864   8.116  0.00  0.00    +0.000 A 
ENDBRANCH  12  13
ENDBRANCH   4  12
TORSDOF 5
ENDMDL
MODEL 5
REMARK VINA RESULT:    -5.721      2.424      3.948
REMARK INTER + INTRA:          -7.850
REMARK INTER:                  -7.313
REMARK INTRA:                  -0.537
REMARK UNBOUND:                -0.624
REMARK  Name = 
REMARK  5 active torsions:
REMARK  status: ('A' for Active; 'I' for Inactive)
REMARK    1  A    between atoms: N_1  and  C_2
REMARK    2  A    between atoms: C_2  and  C_3
REMARK    3  A    between atoms: C_3  and  C_4
REMARK    4  A    between atoms: C_7  and  C_8
REMARK    5  A    between atoms: C_8  and  N_9
REMARK                            x       y       z     vdW  Elec       q    Type
REMARK                         _______ _______ _______ _____ _____    ______ ____
ROOT
ATOM      1  C   UNL     1      44.950   3.245   9.825  0.00  0.00    +0.000 A 
ATOM      2  C   UNL     1      45.234   4.577   9.499  0.00  0.00    +0.000 A 
ATOM      3  C   UNL     1      45.279   5.557  10.495  0.00  0.00    +0.000 A 
ATOM      4  C   UNL     1      45.049   5.226  11.837  0.00  0.00    +0.000 A 
ATOM      5  C   UNL     1      44.783   3.888  12.161  0.00  0.00    +0.000 A 
ATOM      6  C   UNL     1      44.739   2.907  11.166  0.00  0.00    +0.000 A 
ENDROOT
BRANCH   1   7
ATOM      7  C   UNL     1      44.870   2.191   8.747  0.00  0.00    +0.000 C 
BRANCH   7   8
ATOM      8  C   UNL     1      46.226   1.924   8.089  0.00  0.00    +0.000 C 
BRANCH   8   9
ATOM      9  N   UNL     1      46.499   0.488   8.014  0.00  0.00    +0.000 NA
ATOM     10  H   UNL     1      46.392   0.174   7.050  0.00  0.00    +0.000 HD
ATOM     11  H   UNL     1      45.804  -0.022   8.558  0.00  0.00    +0.000 HD
ENDBRANCH   8   9
ENDBRANCH   7   8
ENDBRANCH   1   7
BRANCH   4  12
ATOM     12  C   UNL     1      45.085   6.283  12.911  0.00  0.00    +0.000 C 
BRANCH  12  13
ATOM     13  N   UNL     1      46.263   7.141  12.815  0.00  0.00    +0.000 N 
ATOM     14  C   UNL     1      47.556   6.691  12.950  0.00  0.00    +0.000 A 
ATOM     15  C   UNL     1      48.406   7.732  12.660  0.00  0.00    +0.000 A 
ATOM     16  C   UNL     1      47.610   8.863  12.330  0.00  0.00    +0.000 A 
ATOM     17  C   UNL     1      47.902  10.175  11.937  0.00  0.00    +0.000 A 
ATOM     18  N   UNL     1      46.908  11.058  11.678  0.00  0.00    +0.000 NA
ATOM     19  C   UNL     1      45.629  10.650  11.812  0.00  0.00    +0.000 A 
ATOM     20  C   UNL     1      45.233   9.376  12.190  0.00  0.00    +0.000 A 
ATOM     21  C   UNL     1      46.269   8.473  12.446  0.00  0.00    +0.000 A 
ENDBRANCH  12  13
ENDBRANCH   4  12
TORSDOF 5
ENDMDL
MODEL 6
REMARK VINA RESULT:    -5.683      2.252      3.263
REMARK INTER + INTRA:          -7.802
REMARK INTER:                  -7.297
REMARK INTRA:                  -0.505
REMARK UNBOUND:                -0.624
REMARK  Name = 
REMARK  5 active torsions:
REMARK  status: ('A' for Active; 'I' for Inactive)
REMARK    1  A    between atoms: N_1  and  C_2
REMARK    2  A    between atoms: C_2  and  C_3
REMARK    3  A    between atoms: C_3  and  C_4
REMARK    4  A    between atoms: C_7  and  C_8
REMARK    5  A    between atoms: C_8  and  N_9
REMARK                            x       y       z     vdW  Elec       q    Type
REMARK                         _______ _______ _______ _____ _____    ______ ____
ROOT
ATOM      1  C   UNL     1      44.953   3.233   9.870  0.00  0.00    +0.000 A 
ATOM      2  C   UNL     1      45.107   4.578   9.514  0.00  0.00    +0.000 A 
ATOM      3  C   UNL     1      45.133   5.574  10.495  0.00  0.00    +0.000 A 
ATOM      4  C   UNL     1      45.014   5.246  11.852  0.00  0.00    +0.000 A 
ATOM      5  C   UNL     1      44.879   3.896  12.206  0.00  0.00    +0.000 A 
ATOM      6  C   UNL     1      44.854   2.900  11.226  0.00  0.00    +0.000 A 
ENDROOT
BRANCH   1   7
ATOM      7  C   UNL     1      44.893   2.159   8.810  0.00  0.00    +0.000 C 
BRANCH   7   8
ATOM      8  C   UNL     1      46.250   1.922   8.142  0.00  0.00    +0.000 C 
BRANCH   8   9
ATOM      9  N   UNL     1      46.508   0.490   7.975  0.00  0.00    +0.000 NA
ATOM     10  H   UNL     1      45.809  -0.041   8.494  0.00  0.00    +0.000 HD
ATOM     11  H   UNL     1      47.409   0.254   8.387  0.00  0.00    +0.000 HD
ENDBRANCH   8   9
ENDBRANCH   7   8
ENDBRANCH   1   7
BRANCH   4  12
ATOM     12  C   UNL     1      45.030   6.319  12.911  0.00  0.00    +0.000 C 
BRANCH  12  13
ATOM     13  N   UNL     1      45.796   7.495  12.507  0.00  0.00    +0.000 N 
ATOM     14  C   UNL     1      45.233   8.716  12.215  0.00  0.00    +0.000 A 
ATOM     15  C   UNL     1      46.249   9.620  12.014  0.00  0.00    +0.000 A 
ATOM     16  C   UNL     1      47.482   8.934  12.193  0.00  0.00    +0.000 A 
ATOM     17  C   UNL     1      48.826   9.323  12.139  0.00  0.00    +0.000 A 
ATOM     18  N   UNL     1      49.816   8.426  12.363  0.00  0.00    +0.000 NA
ATOM     19  C   UNL     1      49.481   7.148  12.633  0.00  0.00    +0.000 A 
ATOM     20  C   UNL     1      48.185   6.661  12.714  0.00  0.00    +0.000 A 
ATOM     21  C   UNL     1      47.173   7.600  12.488  0.00  0.00    +0.000 A 
ENDBRANCH  12  13
ENDBRANCH   4  12
TORSDOF 5
ENDMDL
MODEL 7
REMARK VINA RESULT:    -5.305      2.411      6.273
REMARK INTER + INTRA:          -7.325
REMARK INTER:                  -6.818
REMARK INTRA:                  -0.506
REMARK UNBOUND:                -0.624
REMARK  Name = 
REMARK  5 active torsions:
REMARK  status: ('A' for Active; 'I' for Inactive)
REMARK    1  A    between atoms: N_1  and  C_2
REMARK    2  A    between atoms: C_2  and  C_3
REMARK    3  A    between atoms: C_3  and  C_4
REMARK    4  A    between atoms: C_7  and  C_8
REMARK    5  A    between atoms: C_8  and  N_9
REMARK                            x       y       z     vdW  Elec       q    Type
REMARK                         _______ _______ _______ _____ _____    ______ ____
ROOT
ATOM      1  C   UNL     1      47.257   8.146  12.727  0.00  0.00    +0.000 A 
ATOM      2  C   UNL     1      47.044   6.798  13.044  0.00  0.00    +0.000 A 
ATOM      3  C   UNL     1      45.875   6.149  12.635  0.00  0.00    +0.000 A 
ATOM      4  C   UNL     1      44.899   6.829  11.896  0.00  0.00    +0.000 A 
ATOM      5  C   UNL     1      45.124   8.173  11.565  0.00  0.00    +0.000 A 
ATOM      6  C   UNL     1      46.292   8.823  11.972  0.00  0.00    +0.000 A 
ENDROOT
BRANCH   1   7
ATOM      7  C   UNL     1      48.503   8.858  13.195  0.00  0.00    +0.000 C 
BRANCH   7   8
ATOM      8  C   UNL     1      49.175   9.655  12.074  0.00  0.00    +0.000 C 
BRANCH   8   9
ATOM      9  N   UNL     1      49.062  11.095  12.314  0.00  0.00    +0.000 NA
ATOM     10  H   UNL     1      48.375  11.490  11.673  0.00  0.00    +0.000 HD
ATOM     11  H   UNL     1      49.948  11.550  12.099  0.00  0.00    +0.000 HD
ENDBRANCH   8   9
ENDBRANCH   7   8
ENDBRANCH   1   7
BRANCH   4  12
ATOM     12  C   UNL     1      43.633   6.134  11.463  0.00  0.00    +0.000 C 
BRANCH  12  13
ATOM     13  N   UNL     1      43.842   4.720  11.165  0.00  0.00    +0.000 N 
ATOM     14  C   UNL     1      43.247   3.691  11.858  0.00  0.00    +0.000 A 
ATOM     15  C   UNL     1      43.554   2.511  11.222  0.00  0.00    +0.000 A 
ATOM     16  C   UNL     1      44.363   2.823  10.095  0.00  0.00    +0.000 A 
ATOM     17  C   UNL     1      44.951   2.059   9.081  0.00  0.00    +0.000 A 
ATOM     18  N   UNL     1      45.687   2.647   8.108  0.00  0.00    +0.000 NA
ATOM     19  C   UNL     1      45.847   3.986   8.139  0.00  0.00    +0.000 A 
ATOM     20  C   UNL     1      45.305   4.833   9.093  0.00  0.00    +0.000 A 
ATOM     21  C   UNL     1      44.542   4.213  10.087  0.00  0.00    +0.000 A 
ENDBRANCH  12  13
ENDBRANCH   4  12
TORSDOF 5
ENDMDL
MODEL 8
REMARK VINA RESULT:    -5.282      3.601      7.535
REMARK INTER + INTRA:          -7.295
REMARK INTER:                  -6.759
REMARK INTRA:                  -0.537
REMARK UNBOUND:                -0.624
REMARK  Name = 
REMARK  5 active torsions:
REMARK  status: ('A' for Active; 'I' for Inactive)
REMARK    1  A    between atoms: N_1  and  C_2
REMARK    2  A    between atoms: C_2  and  C_3
REMARK    3  A    between atoms: C_3  and  C_4
REMARK    4  A    between atoms: C_7  and  C_8
REMARK    5  A    between atoms: C_8  and  N_9
REMARK                            x       y       z     vdW  Elec       q    Type
REMARK                         _______ _______ _______ _____ _____    ______ ____
ROOT
ATOM      1  C   UNL     1      48.229   5.488  17.225  0.00  0.00    +0.000 A 
ATOM      2  C   UNL     1      47.487   4.497  16.569  0.00  0.00    +0.000 A 
ATOM      3  C   UNL     1      47.290   4.556  15.187  0.00  0.00    +0.000 A 
ATOM      4  C   UNL     1      47.836   5.600  14.429  0.00  0.00    +0.000 A 
ATOM      5  C   UNL     1      48.595   6.579  15.085  0.00  0.00    +0.000 A 
ATOM      6  C   UNL     1      48.793   6.521  16.468  0.00  0.00    +0.000 A 
ENDROOT
BRANCH   1   7
ATOM      7  C   UNL     1      48.416   5.444  18.722  0.00  0.00    +0.000 C 
BRANCH   7   8
ATOM      8  C   UNL     1      48.496   4.012  19.259  0.00  0.00    +0.000 C 
BRANCH   8   9
ATOM      9  N   UNL     1      48.464   3.998  20.722  0.00  0.00    +0.000 NA
ATOM     10  H   UNL     1      49.417   3.926  21.079  0.00  0.00    +0.000 HD
ATOM     11  H   UNL     1      47.975   3.165  21.047  0.00  0.00    +0.000 HD
ENDBRANCH   8   9
ENDBRANCH   7   8
ENDBRANCH   1   7
BRANCH   4  12
ATOM     12  C   UNL     1      47.616   5.672  12.939  0.00  0.00    +0.000 C 
BRANCH  12  13
ATOM     13  N   UNL     1      46.231   5.976  12.590  0.00  0.00    +0.000 N 
ATOM     14  C   UNL     1      45.744   7.250  12.418  0.00  0.00    +0.000 A 
ATOM     15  C   UNL     1      44.450   7.157  11.960  0.00  0.00    +0.000 A 
ATOM     16  C   UNL     1      44.131   5.777  11.842  0.00  0.00    +0.000 A 
ATOM     17  C   UNL     1      42.996   5.076  11.416  0.00  0.00    +0.000 A 
ATOM     18  N   UNL     1      42.980   3.722  11.408  0.00  0.00    +0.000 NA
ATOM     19  C   UNL     1      44.079   3.060  11.823  0.00  0.00    +0.000 A 
ATOM     20  C   UNL     1      45.253   3.656  12.259  0.00  0.00    +0.000 A 
ATOM     21  C   UNL     1      45.258   5.055  12.255  0.00  0.00    +0.000 A 
ENDBRANCH  12  13
ENDBRANCH   4  12
TORSDOF 5
ENDMDL
MODEL 9
REMARK VINA RESULT:    -5.091      2.684      6.493
REMARK INTER + INTRA:          -7.055
REMARK INTER:                  -6.487
REMARK INTRA:                  -0.568
REMARK UNBOUND:                -0.624
REMARK  Name = 
REMARK  5 active torsions:
REMARK  status: ('A' for Active; 'I' for Inactive)
REMARK    1  A    between atoms: N_1  and  C_2
REMARK    2  A    between atoms: C_2  and  C_3
REMARK    3  A    between atoms: C_3  and  C_4
REMARK    4  A    between atoms: C_7  and  C_8
REMARK    5  A    between atoms: C_8  and  N_9
REMARK                            x       y       z     vdW  Elec       q    Type
REMARK                         _______ _______ _______ _____ _____    ______ ____
ROOT
ATOM      1  C   UNL     1      49.274   7.856  13.721  0.00  0.00    +0.000 A 
ATOM      2  C   UNL     1      49.191   7.142  12.519  0.00  0.00    +0.000 A 
ATOM      3  C   UNL     1      47.966   7.000  11.861  0.00  0.00    +0.000 A 
ATOM      4  C   UNL     1      46.801   7.575  12.385  0.00  0.00    +0.000 A 
ATOM      5  C   UNL     1      46.891   8.305  13.579  0.00  0.00    +0.000 A 
ATOM      6  C   UNL     1      48.116   8.448  14.237  0.00  0.00    +0.000 A 
ENDROOT
BRANCH   1   7
ATOM      7  C   UNL     1      50.591   7.983  14.450  0.00  0.00    +0.000 C 
BRANCH   7   8
ATOM      8  C   UNL     1      51.612   8.814  13.670  0.00  0.00    +0.000 C 
BRANCH   8   9
ATOM      9  N   UNL     1      52.601   7.952  13.019  0.00  0.00    +0.000 NA
ATOM     10  H   UNL     1      53.437   7.900  13.600  0.00  0.00    +0.000 HD
ATOM     11  H   UNL     1      52.893   8.371  12.137  0.00  0.00    +0.000 HD
ENDBRANCH   8   9
ENDBRANCH   7   8
ENDBRANCH   1   7
BRANCH   4  12
ATOM     12  C   UNL     1      45.476   7.414  11.683  0.00  0.00    +0.000 C 
BRANCH  12  13
ATOM     13  N   UNL     1      44.957   6.052  11.769  0.00  0.00    +0.000 N 
ATOM     14  C   UNL     1      44.269   5.558  12.853  0.00  0.00    +0.000 A 
ATOM     15  C   UNL     1      43.812   4.301  12.535  0.00  0.00    +0.000 A 
ATOM     16  C   UNL     1      44.228   4.012  11.206  0.00  0.00    +0.000 A 
ATOM     17  C   UNL     1      44.047   2.919  10.349  0.00  0.00    +0.000 A 
ATOM     18  N   UNL     1      44.571   2.925   9.100  0.00  0.00    +0.000 NA
ATOM     19  C   UNL     1      45.276   4.003   8.699  0.00  0.00    +0.000 A 
ATOM     20  C   UNL     1      45.509   5.135   9.466  0.00  0.00    +0.000 A 
ATOM     21  C   UNL     1      44.955   5.118  10.750  0.00  0.00    +0.000 A 
ENDBRANCH  12  13
ENDBRANCH   4  12
TORSDOF 5
ENDMDL
