MODEL 1
REMARK VINA RESULT:    -7.092      0.000      0.000
REMARK INTER + INTRA:          -8.263
REMARK INTER:                  -8.336
REMARK INTRA:                   0.072
REMARK UNBOUND:                 0.072
REMARK  Name = 
REMARK  6 active torsions:
REMARK  status: ('A' for Active; 'I' for Inactive)
REMARK    1  A    between atoms: C_1  and  C_2
REMARK    2  A    between atoms: C_2  and  N_3
REMARK    3  A    between atoms: C_2  and  C_13
REMARK    4  A    between atoms: C_7  and  C_8
REMARK    5  A    between atoms: C_16  and  C_17
REMARK    6  A    between atoms: C_16  and  C_18
REMARK                            x       y       z     vdW  Elec       q    Type
REMARK                         _______ _______ _______ _____ _____    ______ ____
ROOT
ATOM      1  N   UNL     1      44.586   4.226  10.257  0.00  0.00    +0.000 N 
ATOM      2  C   UNL     1      45.384   3.708   9.266  0.00  0.00    +0.000 A 
ATOM      3  C   UNL     1      45.779   2.378   9.137  0.00  0.00    +0.000 A 
ATOM      4  N   UNL     1      46.502   1.882   8.089  0.00  0.00    +0.000 NA
ATOM      5  C   UNL     1      46.815   2.804   7.139  0.00  0.00    +0.000 A 
ATOM      6  C   UNL     1      46.443   4.130   7.253  0.00  0.00    +0.000 A 
ATOM      7  N   UNL     1      45.728   4.604   8.312  0.00  0.00    +0.000 NA
ATOM      8  H   UNL     1      44.560   5.236  10.139  0.00  0.00    +0.000 HD
ENDROOT
BRANCH   5   9
ATOM      9  C   UNL     1      47.567   2.343   5.937  0.00  0.00    +0.000 C 
ATOM     10  N   UNL     1      47.311   3.009   4.767  0.00  0.00    +0.000 N 
ATOM     11  O   UNL     1      48.378   1.425   5.985  0.00  0.00    +0.000 OA
ATOM     12  H   UNL     1      46.655   3.783   4.756  0.00  0.00    +0.000 HD
ATOM     13  H   UNL     1      47.819   2.761   3.930  0.00  0.00    +0.000 HD
ENDBRANCH   5   9
BRANCH   1  15
ATOM     14  C   UNL     1      43.196   2.741  11.594  0.00  0.00    +0.000 C 
ATOM     15  C   UNL     1      44.402   3.698  11.608  0.00  0.00    +0.000 C 
BRANCH  15  16
ATOM     16  C   UNL     1      44.146   4.886  12.601  0.00  0.00    +0.000 C 
ATOM     17  C   UNL     1      43.960   6.251  11.909  0.00  0.00    +0.000 C 
ATOM     18  C   UNL     1      45.244   6.796  11.285  0.00  0.00    +0.000 C 
ATOM     19  C   UNL     1      46.457   6.822  12.244  0.00  0.00    +0.000 C 
ATOM     20  C   UNL     1      47.741   6.988  11.408  0.00  0.00    +0.000 C 
ATOM     21  C   UNL     1      46.337   8.029  13.196  0.00  0.00    +0.000 C 
ATOM     22  C   UNL     1      46.574   5.523  13.073  0.00  0.00    +0.000 C 
ATOM     23  C   UNL     1      45.245   5.062  13.668  0.00  0.00    +0.000 C 
ENDBRANCH  15  16
ENDBRANCH   1  15
TORSDOF 3
ENDMDL
MODEL 2
REMARK VINA RESULT:    -6.009      4.264      6.645
REMARK INTER + INTRA:          -6.991
REMARK INTER:                  -6.520
REMARK INTRA:                  -0.470
REMARK UNBOUND:                 0.072
REMARK  Name = 
REMARK  6 active torsions:
REMARK  status: ('A' for Active; 'I' for Inactive)
REMARK    1  A    between atoms: C_1  and  C_2
REMARK    2  A    between atoms: C_2  and  N_3
REMARK    3  A    between atoms: C_2  and  C_13
REMARK    4  A    between atoms: C_7  and  C_8
REMARK    5  A    between atoms: C_16  and  C_17
REMARK    6  A    between atoms: C_16  and  C_18
REMARK                            x       y       z     vdW  Elec       q    Type
REMARK                         _______ _______ _______ _____ _____    ______ ____
ROOT
ATOM      1  N   UNL     1      46.339   7.388  13.192  0.00  0.00    +0.000 N 
ATOM      2  C   UNL     1      47.687   7.594  13.032  0.00  0.00    +0.000 A 
ATOM      3  C   UNL     1      48.340   7.883  11.835  0.00  0.00    +0.000 A 
ATOM      4  N   UNL     1      49.673   8.168  11.729  0.00  0.00    +0.000 NA
ATOM      5  C   UNL     1      50.344   8.160  12.913  0.00  0.00    +0.000 A 
ATOM      6  C   UNL     1      49.717   7.865  14.108  0.00  0.00    +0.000 A 
ATOM      7  N   UNL     1      48.388   7.576  14.190  0.00  0.00    +0.000 NA
ATOM      8  H   UNL     1      46.180   7.100  14.154  0.00  0.00    +0.000 HD
ENDROOT
BRANCH   5   9
ATOM      9  C   UNL     1      51.795   8.502  12.898  0.00  0.00    +0.000 C 
ATOM     10  N   UNL     1      52.574   7.890  13.845  0.00  0.00    +0.000 N 
ATOM     11  O   UNL     1      52.275   9.279  12.081  0.00  0.00    +0.000 OA
ATOM     12  H   UNL     1      52.159   7.229  14.494  0.00  0.00    +0.000 HD
ATOM     13  H   UNL     1      53.569   8.058  13.858  0.00  0.00    +0.000 HD
ENDBRANCH   5   9
BRANCH   1  15
ATOM     14  C   UNL     1      44.675   8.145  11.584  0.00  0.00    +0.000 C 
ATOM     15  C   UNL     1      45.392   6.921  12.180  0.00  0.00    +0.000 C 
BRANCH  15  16
ATOM     16  C   UNL     1      44.353   5.952  12.848  0.00  0.00    +0.000 C 
ATOM     17  C   UNL     1      44.961   4.620  13.334  0.00  0.00    +0.000 C 
ATOM     18  C   UNL     1      45.384   3.694  12.194  0.00  0.00    +0.000 C 
ATOM     19  C   UNL     1      44.285   3.446  11.134  0.00  0.00    +0.000 C 
ATOM     20  C   UNL     1      44.945   2.862   9.870  0.00  0.00    +0.000 C 
ATOM     21  C   UNL     1      43.270   2.419  11.673  0.00  0.00    +0.000 C 
ATOM     22  C   UNL     1      43.545   4.746  10.746  0.00  0.00    +0.000 C 
ATOM     23  C   UNL     1      43.150   5.602  11.949  0.00  0.00    +0.000 C 
ENDBRANCH  15  16
ENDBRANCH   1  15
TORSDOF 3
ENDMDL
MODEL 3
REMARK VINA RESULT:    -5.919      4.131      6.065
REMARK INTER + INTRA:          -6.885
REMARK INTER:                  -6.382
REMARK INTRA:                  -0.503
REMARK UNBOUND:                 0.072
REMARK  Name = 
REMARK  6 active torsions:
REMARK  status: ('A' for Active; 'I' for Inactive)
REMARK    1  A    between atoms: C_1  and  C_2
REMARK    2  A    between atoms: C_2  and  N_3
REMARK    3  A    between atoms: C_2  and  C_13
REMARK    4  A    between atoms: C_7  and  C_8
REMARK    5  A    between atoms: C_16  and  C_17
REMARK    6  A    between atoms: C_16  and  C_18
REMARK                            x       y       z     vdW  Elec       q    Type
REMARK                         _______ _______ _______ _____ _____    ______ ____
ROOT
ATOM      1  N   UNL     1      47.090   7.331  13.975  0.00  0.00    +0.000 N 
ATOM      2  C   UNL     1      46.347   6.322  13.413  0.00  0.00    +0.000 A 
ATOM      3  C   UNL     1      46.697   4.974  13.359  0.00  0.00    +0.000 A 
ATOM      4  N   UNL     1      45.894   3.983  12.867  0.00  0.00    +0.000 NA
ATOM      5  C   UNL     1      44.680   4.414  12.426  0.00  0.00    +0.000 A 
ATOM      6  C   UNL     1      44.319   5.747  12.460  0.00  0.00    +0.000 A 
ATOM      7  N   UNL     1      45.140   6.719  12.948  0.00  0.00    +0.000 NA
ATOM      8  H   UNL     1      46.623   8.212  13.771  0.00  0.00    +0.000 HD
ENDROOT
BRANCH   5   9
ATOM      9  C   UNL     1      43.720   3.396  11.912  0.00  0.00    +0.000 C 
ATOM     10  N   UNL     1      43.781   2.155  12.491  0.00  0.00    +0.000 N 
ATOM     11  O   UNL     1      42.913   3.648  11.026  0.00  0.00    +0.000 OA
ATOM     12  H   UNL     1      44.441   1.977  13.241  0.00  0.00    +0.000 HD
ATOM     13  H   UNL     1      43.130   1.438  12.206  0.00  0.00    +0.000 HD
ENDBRANCH   5   9
BRANCH   1  15
ATOM     14  C   UNL     1      48.851   6.925  15.606  0.00  0.00    +0.000 C 
ATOM     15  C   UNL     1      48.539   7.361  14.164  0.00  0.00    +0.000 C 
BRANCH  15  16
ATOM     16  C   UNL     1      49.068   8.816  13.907  0.00  0.00    +0.000 C 
ATOM     17  C   UNL     1      48.701   9.380  12.519  0.00  0.00    +0.000 C 
ATOM     18  C   UNL     1      49.445   8.699  11.371  0.00  0.00    +0.000 C 
ATOM     19  C   UNL     1      50.980   8.638  11.555  0.00  0.00    +0.000 C 
ATOM     20  C   UNL     1      51.551   7.596  10.573  0.00  0.00    +0.000 C 
ATOM     21  C   UNL     1      51.596  10.011  11.220  0.00  0.00    +0.000 C 
ATOM     22  C   UNL     1      51.379   8.231  12.992  0.00  0.00    +0.000 C 
ATOM     23  C   UNL     1      50.593   8.971  14.072  0.00  0.00    +0.000 C 
ENDBRANCH  15  16
ENDBRANCH   1  15
TORSDOF 3
ENDMDL
MODEL 4
REMARK VINA RESULT:    -5.884      3.341      5.629
REMARK INTER + INTRA:          -6.844
REMARK INTER:                  -6.823
REMARK INTRA:                  -0.021
REMARK UNBOUND:                 0.072
REMARK  Name = 
REMARK  6 active torsions:
REMARK  status: ('A' for Active; 'I' for Inactive)
REMARK    1  A    between atoms: C_1  and  C_2
REMARK    2  A    between atoms: C_2  and  N_3
REMARK    3  A    between atoms: C_2  and  C_13
REMARK    4  A    between atoms: C_7  and  C_8
REMARK    5  A    between atoms: C_16  and  C_17
REMARK    6  A    between atoms: C_16  and  C_18
REMARK                            x       y       z     vdW  Elec       q    Type
REMARK                         _______ _______ _______ _____ _____    ______ ____
ROOT
ATOM      1  N   UNL     1      46.854   7.017  13.546  0.00  0.00    +0.000 N 
ATOM      2  C   UNL     1      46.128   6.090  12.838  0.00  0.00    +0.000 A 
ATOM      3  C   UNL     1      45.953   6.062  11.456  0.00  0.00    +0.000 A 
ATOM      4  N   UNL     1      45.296   5.073  10.778  0.00  0.00    +0.000 NA
ATOM      5  C   UNL     1      44.814   4.076  11.569  0.00  0.00    +0.000 A 
ATOM      6  C   UNL     1      44.967   4.092  12.942  0.00  0.00    +0.000 A 
ATOM      7  N   UNL     1      45.620   5.092  13.598  0.00  0.00    +0.000 NA
ATOM      8  H   UNL     1      46.712   6.833  14.536  0.00  0.00    +0.000 HD
ENDROOT
BRANCH   5   9
ATOM      9  C   UNL     1      44.119   2.934  10.910  0.00  0.00    +0.000 C 
ATOM     10  N   UNL     1      44.783   2.336   9.870  0.00  0.00    +0.000 N 
ATOM     11  O   UNL     1      43.019   2.539  11.277  0.00  0.00    +0.000 OA
ATOM     12  H   UNL     1      45.705   2.664   9.601  0.00  0.00    +0.000 HD
ATOM     13  H   UNL     1      44.374   1.535   9.411  0.00  0.00    +0.000 HD
ENDBRANCH   5   9
BRANCH   1  15
ATOM     14  C   UNL     1      45.841   9.071  12.719  0.00  0.00    +0.000 C 
ATOM     15  C   UNL     1      47.154   8.392  13.149  0.00  0.00    +0.000 C 
BRANCH  15  16
ATOM     16  C   UNL     1      48.177   8.379  11.959  0.00  0.00    +0.000 C 
ATOM     17  C   UNL     1      49.432   7.522  12.222  0.00  0.00    +0.000 C 
ATOM     18  C   UNL     1      50.366   8.119  13.273  0.00  0.00    +0.000 C 
ATOM     19  C   UNL     1      50.749   9.597  13.019  0.00  0.00    +0.000 C 
ATOM     20  C   UNL     1      51.329  10.185  14.320  0.00  0.00    +0.000 C 
ATOM     21  C   UNL     1      51.833   9.669  11.926  0.00  0.00    +0.000 C 
ATOM     22  C   UNL     1      49.532  10.449  12.593  0.00  0.00    +0.000 C 
ATOM     23  C   UNL     1      48.663   9.778  11.531  0.00  0.00    +0.000 C 
ENDBRANCH  15  16
ENDBRANCH   1  15
TORSDOF 3
ENDMDL
MODEL 5
REMARK VINA RESULT:    -5.850      4.700      6.995
REMARK INTER + INTRA:          -6.804
REMARK INTER:                  -6.275
REMARK INTRA:                  -0.529
REMARK UNBOUND:                 0.072
REMARK  Name = 
REMARK  6 active torsions:
REMARK  status: ('A' for Active; 'I' for Inactive)
REMARK    1  A    between atoms: C_1  and  C_2
REMARK    2  A    between atoms: C_2  and  N_3
REMARK    3  A    between atoms: C_2  and  C_13
REMARK    4  A    between atoms: C_7  and  C_8
REMARK    5  A    between atoms: C_16  and  C_17
REMARK    6  A    between atoms: C_16  and  C_18
REMARK                            x       y       z     vdW  Elec       q    Type
REMARK                         _______ _______ _______ _____ _____    ______ ____
ROOT
ATOM      1  N   UNL     1      48.881   6.639  13.074  0.00  0.00    +0.000 N 
ATOM      2  C   UNL     1      47.570   6.235  13.142  0.00  0.00    +0.000 A 
ATOM      3  C   UNL     1      46.451   7.028  12.894  0.00  0.00    +0.000 A 
ATOM      4  N   UNL     1      45.163   6.570  12.887  0.00  0.00    +0.000 NA
ATOM      5  C   UNL     1      45.041   5.238  13.137  0.00  0.00    +0.000 A 
ATOM      6  C   UNL     1      46.137   4.438  13.397  0.00  0.00    +0.000 A 
ATOM      7  N   UNL     1      47.412   4.918  13.406  0.00  0.00    +0.000 NA
ATOM      8  H   UNL     1      49.461   5.870  13.404  0.00  0.00    +0.000 HD
ENDROOT
BRANCH   5   9
ATOM      9  C   UNL     1      43.675   4.643  13.107  0.00  0.00    +0.000 C 
ATOM     10  N   UNL     1      42.632   5.519  12.955  0.00  0.00    +0.000 N 
ATOM     11  O   UNL     1      43.485   3.436  13.204  0.00  0.00    +0.000 OA
ATOM     12  H   UNL     1      42.815   6.512  12.850  0.00  0.00    +0.000 HD
ATOM     13  H   UNL     1      41.688   5.166  12.892  0.00  0.00    +0.000 HD
ENDBRANCH   5   9
BRANCH   1  15
ATOM     14  C   UNL     1      49.975   8.467  11.897  0.00  0.00    +0.000 C 
ATOM     15  C   UNL     1      49.397   7.996  13.243  0.00  0.00    +0.000 C 
BRANCH  15  16
ATOM     16  C   UNL     1      50.513   7.995  14.346  0.00  0.00    +0.000 C 
ATOM     17  C   UNL     1      50.196   7.095  15.557  0.00  0.00    +0.000 C 
ATOM     18  C   UNL     1      49.061   7.629  16.431  0.00  0.00    +0.000 C 
ATOM     19  C   UNL     1      49.235   9.103  16.868  0.00  0.00    +0.000 C 
ATOM     20  C   UNL     1      47.877   9.629  17.370  0.00  0.00    +0.000 C 
ATOM     21  C   UNL     1      50.247   9.182  18.028  0.00  0.00    +0.000 C 
ATOM     22  C   UNL     1      49.713  10.004  15.706  0.00  0.00    +0.000 C 
ATOM     23  C   UNL     1      50.856   9.394  14.897  0.00  0.00    +0.000 C 
ENDBRANCH  15  16
ENDBRANCH   1  15
TORSDOF 3
ENDMDL
MODEL 6
REMARK VINA RESULT:    -5.735      5.218      6.941
REMARK INTER + INTRA:          -6.668
REMARK INTER:                  -6.203
REMARK INTRA:                  -0.466
REMARK UNBOUND:                 0.072
REMARK  Name = 
REMARK  6 active torsions:
REMARK  status: ('A' for Active; 'I' for Inactive)
REMARK    1  A    between atoms: C_1  and  C_2
REMARK    2  A    between atoms: C_2  and  N_3
REMARK    3  A    between atoms: C_2  and  C_13
REMARK    4  A    between atoms: C_7  and  C_8
REMARK    5  A    between atoms: C_16  and  C_17
REMARK    6  A    between atoms: C_16  and  C_18
REMARK                            x       y       z     vdW  Elec       q    Type
REMARK                         _______ _______ _______ _____ _____    ______ ____
ROOT
ATOM      1  N   UNL     1      47.165   3.549  15.638  0.00  0.00    +0.000 N 
ATOM      2  C   UNL     1      46.794   4.417  14.641  0.00  0.00    +0.000 A 
ATOM      3  C   UNL     1      47.616   5.354  14.016  0.00  0.00    +0.000 A 
ATOM      4  N   UNL     1      47.235   6.142  12.967  0.00  0.00    +0.000 NA
ATOM      5  C   UNL     1      45.956   5.939  12.549  0.00  0.00    +0.000 A 
ATOM      6  C   UNL     1      45.121   5.025  13.163  0.00  0.00    +0.000 A 
ATOM      7  N   UNL     1      45.521   4.254  14.213  0.00  0.00    +0.000 NA
ATOM      8  H   UNL     1      46.328   3.066  15.957  0.00  0.00    +0.000 HD
ENDROOT
BRANCH   5   9
ATOM      9  C   UNL     1      45.467   6.726  11.381  0.00  0.00    +0.000 C 
ATOM     10  N   UNL     1      45.375   6.054  10.191  0.00  0.00    +0.000 N 
ATOM     11  O   UNL     1      45.155   7.907  11.474  0.00  0.00    +0.000 OA
ATOM     12  H   UNL     1      45.614   5.069  10.144  0.00  0.00    +0.000 HD
ATOM     13  H   UNL     1      45.016   6.529   9.375  0.00  0.00    +0.000 HD
ENDBRANCH   5   9
BRANCH   1  15
ATOM     14  C   UNL     1      49.078   2.421  16.635  0.00  0.00    +0.000 C 
ATOM     15  C   UNL     1      48.254   3.721  16.598  0.00  0.00    +0.000 C 
BRANCH  15  16
ATOM     16  C   UNL     1      47.655   4.029  18.016  0.00  0.00    +0.000 C 
ATOM     17  C   UNL     1      47.137   5.472  18.177  0.00  0.00    +0.000 C 
ATOM     18  C   UNL     1      48.251   6.517  18.208  0.00  0.00    +0.000 C 
ATOM     19  C   UNL     1      49.378   6.217  19.225  0.00  0.00    +0.000 C 
ATOM     20  C   UNL     1      50.600   7.087  18.874  0.00  0.00    +0.000 C 
ATOM     21  C   UNL     1      48.905   6.590  20.644  0.00  0.00    +0.000 C 
ATOM     22  C   UNL     1      49.806   4.732  19.199  0.00  0.00    +0.000 C 
ATOM     23  C   UNL     1      48.628   3.761  19.182  0.00  0.00    +0.000 C 
ENDBRANCH  15  16
ENDBRANCH   1  15
TORSDOF 3
ENDMDL
MODEL 7
REMARK VINA RESULT:    -5.630      4.705      6.718
REMARK INTER + INTRA:          -6.546
REMARK INTER:                  -6.235
REMARK INTRA:                  -0.310
REMARK UNBOUND:                 0.072
REMARK  Name = 
REMARK  6 active torsions:
REMARK  status: ('A' for Active; 'I' for Inactive)
REMARK    1  A    between atoms: C_1  and  C_2
REMARK    2  A    between atoms: C_2  and  N_3
REMARK    3  A    between atoms: C_2  and  C_13
REMARK    4  A    between atoms: C_7  and  C_8
REMARK    5  A    between atoms: C_16  and  C_17
REMARK    6  A    between atoms: C_16  and  C_18
REMARK                            x       y       z     vdW  Elec       q    Type
REMARK                         _______ _______ _______ _____ _____    ______ ____
ROOT
ATOM      1  N   UNL     1      47.681   5.096  14.684  0.00  0.00    +0.000 N 
ATOM      2  C   UNL     1      46.609   5.204  13.832  0.00  0.00    +0.000 A 
ATOM      3  C   UNL     1      46.167   6.370  13.209  0.00  0.00    +0.000 A 
ATOM      4  N   UNL     1      45.148   6.425  12.299  0.00  0.00    +0.000 NA
ATOM      5  C   UNL     1      44.580   5.220  12.023  0.00  0.00    +0.000 A 
ATOM      6  C   UNL     1      44.996   4.054  12.638  0.00  0.00    +0.000 A 
ATOM      7  N   UNL     1      46.009   4.025  13.548  0.00  0.00    +0.000 NA
ATOM      8  H   UNL     1      47.691   4.147  15.052  0.00  0.00    +0.000 HD
ENDROOT
BRANCH   5   9
ATOM      9  C   UNL     1      43.488   5.177  11.009  0.00  0.00    +0.000 C 
ATOM     10  N   UNL     1      43.852   4.812   9.738  0.00  0.00    +0.000 N 
ATOM     11  O   UNL     1      42.325   5.443  11.288  0.00  0.00    +0.000 OA
ATOM     12  H   UNL     1      44.816   4.570   9.536  0.00  0.00    +0.000 HD
ATOM     13  H   UNL     1      43.146   4.732   9.021  0.00  0.00    +0.000 HD
ENDBRANCH   5   9
BRANCH   1  15
ATOM     14  C   UNL     1      49.239   6.966  14.655  0.00  0.00    +0.000 C 
ATOM     15  C   UNL     1      48.257   6.151  15.516  0.00  0.00    +0.000 C 
BRANCH  15  16
ATOM     16  C   UNL     1      49.007   5.502  16.733  0.00  0.00    +0.000 C 
ATOM     17  C   UNL     1      48.069   4.896  17.796  0.00  0.00    +0.000 C 
ATOM     18  C   UNL     1      47.289   5.946  18.587  0.00  0.00    +0.000 C 
ATOM     19  C   UNL     1      48.166   7.065  19.197  0.00  0.00    +0.000 C 
ATOM     20  C   UNL     1      47.254   8.242  19.594  0.00  0.00    +0.000 C 
ATOM     21  C   UNL     1      48.865   6.539  20.466  0.00  0.00    +0.000 C 
ATOM     22  C   UNL     1      49.229   7.581  18.200  0.00  0.00    +0.000 C 
ATOM     23  C   UNL     1      49.966   6.462  17.466  0.00  0.00    +0.000 C 
ENDBRANCH  15  16
ENDBRANCH   1  15
TORSDOF 3
ENDMDL
MODEL 8
REMARK VINA RESULT:    -5.362      4.644      6.163
REMARK INTER + INTRA:          -6.230
REMARK INTER:                  -6.483
REMARK INTRA:                   0.253
REMARK UNBOUND:                 0.072
REMARK  Name = 
REMARK  6 active torsions:
REMARK  status: ('A' for Active; 'I' for Inactive)
REMARK    1  A    between atoms: C_1  and  C_2
REMARK    2  A    between atoms: C_2  and  N_3
REMARK    3  A    between atoms: C_2  and  C_13
REMARK    4  A    between atoms: C_7  and  C_8
REMARK    5  A    between atoms: C_16  and  C_17
REMARK    6  A    between atoms: C_16  and  C_18
REMARK                            x       y       z     vdW  Elec       q    Type
REMARK                         _______ _______ _______ _____ _____    ______ ____
ROOT
ATOM      1  N   UNL     1      47.034   5.329  15.139  0.00  0.00    +0.000 N 
ATOM      2  C   UNL     1      46.442   4.858  13.993  0.00  0.00    +0.000 A 
ATOM      3  C   UNL     1      46.357   3.523  13.600  0.00  0.00    +0.000 A 
ATOM      4  N   UNL     1      45.685   3.082  12.494  0.00  0.00    +0.000 NA
ATOM      5  C   UNL     1      45.072   4.067  11.782  0.00  0.00    +0.000 A 
ATOM      6  C   UNL     1      45.153   5.397  12.149  0.00  0.00    +0.000 A 
ATOM      7  N   UNL     1      45.837   5.814  13.252  0.00  0.00    +0.000 NA
ATOM      8  H   UNL     1      47.025   6.346  15.098  0.00  0.00    +0.000 HD
ENDROOT
BRANCH   5   9
ATOM      9  C   UNL     1      44.278   3.673  10.583  0.00  0.00    +0.000 C 
ATOM     10  N   UNL     1      44.110   4.636   9.622  0.00  0.00    +0.000 N 
ATOM     11  O   UNL     1      43.806   2.551  10.452  0.00  0.00    +0.000 OA
ATOM     12  H   UNL     1      44.533   5.551   9.741  0.00  0.00    +0.000 HD
ATOM     13  H   UNL     1      43.611   4.412   8.773  0.00  0.00    +0.000 HD
ENDBRANCH   5   9
BRANCH   1  15
ATOM     14  C   UNL     1      47.704   3.230  16.174  0.00  0.00    +0.000 C 
ATOM     15  C   UNL     1      48.102   4.692  15.907  0.00  0.00    +0.000 C 
BRANCH  15  16
ATOM     16  C   UNL     1      48.299   5.460  17.262  0.00  0.00    +0.000 C 
ATOM     17  C   UNL     1      48.929   6.859  17.104  0.00  0.00    +0.000 C 
ATOM     18  C   UNL     1      50.400   6.819  16.690  0.00  0.00    +0.000 C 
ATOM     19  C   UNL     1      51.285   5.910  17.575  0.00  0.00    +0.000 C 
ATOM     20  C   UNL     1      52.606   5.635  16.829  0.00  0.00    +0.000 C 
ATOM     21  C   UNL     1      51.613   6.635  18.895  0.00  0.00    +0.000 C 
ATOM     22  C   UNL     1      50.605   4.558  17.886  0.00  0.00    +0.000 C 
ATOM     23  C   UNL     1      49.142   4.696  18.303  0.00  0.00    +0.000 C 
ENDBRANCH  15  16
ENDBRANCH   1  15
TORSDOF 3
ENDMDL
MODEL 9
REMARK VINA RESULT:    -5.351      5.089      7.792
REMARK INTER + INTRA:          -6.217
REMARK INTER:                  -7.201
REMARK INTRA:                   0.984
REMARK UNBOUND:                 0.072
REMARK  Name = 
REMARK  6 active torsions:
REMARK  status: ('A' for Active; 'I' for Inactive)
REMARK    1  A    between atoms: C_1  and  C_2
REMARK    2  A    between atoms: C_2  and  N_3
REMARK    3  A    between atoms: C_2  and  C_13
REMARK    4  A    between atoms: C_7  and  C_8
REMARK    5  A    between atoms: C_16  and  C_17
REMARK    6  A    between atoms: C_16  and  C_18
REMARK                            x       y       z     vdW  Elec       q    Type
REMARK                         _______ _______ _______ _____ _____    ______ ____
ROOT
ATOM      1  N   UNL     1      46.769   5.559  13.906  0.00  0.00    +0.000 N 
ATOM      2  C   UNL     1      47.439   5.173  15.042  0.00  0.00    +0.000 A 
ATOM      3  C   UNL     1      48.624   5.724  15.526  0.00  0.00    +0.000 A 
ATOM      4  N   UNL     1      49.217   5.373  16.707  0.00  0.00    +0.000 NA
ATOM      5  C   UNL     1      48.544   4.420  17.409  0.00  0.00    +0.000 A 
ATOM      6  C   UNL     1      47.375   3.852  16.940  0.00  0.00    +0.000 A 
ATOM      7  N   UNL     1      46.806   4.214  15.756  0.00  0.00    +0.000 NA
ATOM      8  H   UNL     1      46.001   4.908  13.762  0.00  0.00    +0.000 HD
ENDROOT
BRANCH   5   9
ATOM      9  C   UNL     1      49.096   4.005  18.730  0.00  0.00    +0.000 C 
ATOM     10  N   UNL     1      48.350   3.103  19.444  0.00  0.00    +0.000 N 
ATOM     11  O   UNL     1      50.160   4.435  19.159  0.00  0.00    +0.000 OA
ATOM     12  H   UNL     1      47.485   2.741  19.058  0.00  0.00    +0.000 HD
ATOM     13  H   UNL     1      48.694   2.761  20.330  0.00  0.00    +0.000 HD
ENDBRANCH   5   9
BRANCH   1  15
ATOM     14  C   UNL     1      48.251   7.354  13.195  0.00  0.00    +0.000 C 
ATOM     15  C   UNL     1      47.336   6.209  12.726  0.00  0.00    +0.000 C 
BRANCH  15  16
ATOM     16  C   UNL     1      46.173   6.770  11.833  0.00  0.00    +0.000 C 
ATOM     17  C   UNL     1      44.844   6.970  12.588  0.00  0.00    +0.000 C 
ATOM     18  C   UNL     1      44.167   5.659  12.985  0.00  0.00    +0.000 C 
ATOM     19  C   UNL     1      43.996   4.653  11.822  0.00  0.00    +0.000 C 
ATOM     20  C   UNL     1      43.697   3.263  12.415  0.00  0.00    +0.000 C 
ATOM     21  C   UNL     1      42.800   5.076  10.945  0.00  0.00    +0.000 C 
ATOM     22  C   UNL     1      45.265   4.553  10.946  0.00  0.00    +0.000 C 
ATOM     23  C   UNL     1      45.865   5.912  10.589  0.00  0.00    +0.000 C 
ENDBRANCH  15  16
ENDBRANCH   1  15
TORSDOF 3
ENDMDL
