MODEL 1
REMARK VINA RESULT:    -5.479      0.000      0.000
REMARK INTER + INTRA:          -7.337
REMARK INTER:                  -6.440
REMARK INTRA:                  -0.898
REMARK UNBOUND:                -0.898
REMARK  Name = 
REMARK  4 active torsions:
REMARK  status: ('A' for Active; 'I' for Inactive)
REMARK    1  A    between atoms: C_1  and  C_2
REMARK    2  A    between atoms: C_2  and  C_3
REMARK    3  A    between atoms: C_6  and  C_7
REMARK    4  A    between atoms: C_14  and  C_15
REMARK                            x       y       z     vdW  Elec       q    Type
REMARK                         _______ _______ _______ _____ _____    ______ ____
ROOT
ATOM      1  C   UNL     1      48.239   9.437  11.754  0.00  0.00    +0.000 C 
ATOM      2  C   UNL     1      48.603   8.297  12.729  0.00  0.00    +0.000 C 
ATOM      3  C   UNL     1      49.991   7.673  12.361  0.00  0.00    +0.000 C 
ATOM      4  C   UNL     1      50.665   8.659  13.324  0.00  0.00    +0.000 C 
ATOM      5  C   UNL     1      49.295   8.842  14.041  0.00  0.00    +0.000 C 
ENDROOT
BRANCH   5   6
ATOM      6  C   UNL     1      49.105   8.115  15.460  0.00  0.00    +0.000 A 
ATOM      7  C   UNL     1      48.440   8.762  16.523  0.00  0.00    +0.000 A 
ATOM      8  C   UNL     1      48.387   8.218  17.812  0.00  0.00    +0.000 A 
ATOM      9  C   UNL     1      48.999   6.998  18.071  0.00  0.00    +0.000 A 
ATOM     10 CL   UNL     1      49.007   6.359  19.667  0.00  0.00    +0.000 Cl
ATOM     11  C   UNL     1      49.625   6.304  17.044  0.00  0.00    +0.000 A 
ATOM     12  C   UNL     1      49.664   6.853  15.758  0.00  0.00    +0.000 A 
ENDBRANCH   5   6
BRANCH   2  13
ATOM     13  C   UNL     1      47.343   7.304  12.857  0.00  0.00    +0.000 A 
ATOM     14  C   UNL     1      47.470   5.909  13.004  0.00  0.00    +0.000 A 
ATOM     15  C   UNL     1      46.358   5.071  13.080  0.00  0.00    +0.000 A 
ATOM     16  C   UNL     1      45.104   5.647  12.999  0.00  0.00    +0.000 A 
ATOM     17  N   UNL     1      44.899   6.982  12.844  0.00  0.00    +0.000 NA
ATOM     18  C   UNL     1      46.013   7.754  12.784  0.00  0.00    +0.000 A 
BRANCH  16  19
ATOM     19  C   UNL     1      43.883   4.778  13.081  0.00  0.00    +0.000 C 
ATOM     20  N   UNL     1      42.691   5.447  13.068  0.00  0.00    +0.000 N 
ATOM     21  O   UNL     1      43.942   3.560  13.157  0.00  0.00    +0.000 OA
ATOM     22  H   UNL     1      42.687   6.459  13.025  0.00  0.00    +0.000 HD
ATOM     23  H   UNL     1      41.826   4.928  13.147  0.00  0.00    +0.000 HD
ENDBRANCH  16  19
ENDBRANCH   2  13
TORSDOF 3
ENDMDL
MODEL 2
REMARK VINA RESULT:    -5.348      3.577      5.353
REMARK INTER + INTRA:          -7.184
REMARK INTER:                  -7.115
REMARK INTRA:                  -0.068
REMARK UNBOUND:                -0.898
REMARK  Name = 
REMARK  4 active torsions:
REMARK  status: ('A' for Active; 'I' for Inactive)
REMARK    1  A    between atoms: C_1  and  C_2
REMARK    2  A    between atoms: C_2  and  C_3
REMARK    3  A    between atoms: C_6  and  C_7
REMARK    4  A    between atoms: C_14  and  C_15
REMARK                            x       y       z     vdW  Elec       q    Type
REMARK                         _______ _______ _______ _____ _____    ______ ____
ROOT
ATOM      1  C   UNL     1      50.151   7.759  13.143  0.00  0.00    +0.000 C 
ATOM      2  C   UNL     1      48.620   7.709  13.339  0.00  0.00    +0.000 C 
ATOM      3  C   UNL     1      48.046   9.143  13.592  0.00  0.00    +0.000 C 
ATOM      4  C   UNL     1      47.808   9.290  12.083  0.00  0.00    +0.000 C 
ATOM      5  C   UNL     1      47.847   7.738  11.961  0.00  0.00    +0.000 C 
ENDROOT
BRANCH   5   6
ATOM      6  C   UNL     1      46.446   6.980  11.763  0.00  0.00    +0.000 A 
ATOM      7  C   UNL     1      45.352   7.247  12.614  0.00  0.00    +0.000 A 
ATOM      8  C   UNL     1      44.168   6.501  12.563  0.00  0.00    +0.000 A 
ATOM      9  C   UNL     1      44.045   5.465  11.646  0.00  0.00    +0.000 A 
ATOM     10 CL   UNL     1      42.627   4.493  11.627  0.00  0.00    +0.000 Cl
ATOM     11  C   UNL     1      45.079   5.198  10.758  0.00  0.00    +0.000 A 
ATOM     12  C   UNL     1      46.254   5.955  10.812  0.00  0.00    +0.000 A 
ENDBRANCH   5   6
BRANCH   2  13
ATOM     13  C   UNL     1      48.275   6.561  14.413  0.00  0.00    +0.000 A 
ATOM     14  C   UNL     1      47.498   5.426  14.107  0.00  0.00    +0.000 A 
ATOM     15  C   UNL     1      47.190   4.464  15.067  0.00  0.00    +0.000 A 
ATOM     16  C   UNL     1      47.663   4.652  16.353  0.00  0.00    +0.000 A 
ATOM     17  N   UNL     1      48.407   5.726  16.728  0.00  0.00    +0.000 NA
ATOM     18  C   UNL     1      48.687   6.629  15.756  0.00  0.00    +0.000 A 
BRANCH  16  19
ATOM     19  C   UNL     1      47.355   3.636  17.412  0.00  0.00    +0.000 C 
ATOM     20  N   UNL     1      48.237   3.599  18.457  0.00  0.00    +0.000 N 
ATOM     21  O   UNL     1      46.389   2.891  17.353  0.00  0.00    +0.000 OA
ATOM     22  H   UNL     1      49.036   4.220  18.457  0.00  0.00    +0.000 HD
ATOM     23  H   UNL     1      48.107   2.921  19.196  0.00  0.00    +0.000 HD
ENDBRANCH  16  19
ENDBRANCH   2  13
TORSDOF 3
ENDMDL
MODEL 3
REMARK VINA RESULT:    -5.248      3.402      5.099
REMARK INTER + INTRA:          -7.066
REMARK INTER:                  -6.301
REMARK INTRA:                  -0.765
REMARK UNBOUND:                -0.898
REMARK  Name = 
REMARK  4 active torsions:
REMARK  status: ('A' for Active; 'I' for Inactive)
REMARK    1  A    between atoms: C_1  and  C_2
REMARK    2  A    between atoms: C_2  and  C_3
REMARK    3  A    between atoms: C_6  and  C_7
REMARK    4  A    between atoms: C_14  and  C_15
REMARK                            x       y       z     vdW  Elec       q    Type
REMARK                         _______ _______ _______ _____ _____    ______ ____
ROOT
ATOM      1  C   UNL     1      43.920   5.488  13.055  0.00  0.00    +0.000 C 
ATOM      2  C   UNL     1      45.408   5.616  12.666  0.00  0.00    +0.000 C 
ATOM      3  C   UNL     1      45.619   5.269  11.155  0.00  0.00    +0.000 C 
ATOM      4  C   UNL     1      45.443   6.754  10.812  0.00  0.00    +0.000 C 
ATOM      5  C   UNL     1      45.794   7.101  12.290  0.00  0.00    +0.000 C 
ENDROOT
BRANCH   5   6
ATOM      6  C   UNL     1      47.259   7.692  12.578  0.00  0.00    +0.000 A 
ATOM      7  C   UNL     1      47.460   8.680  13.565  0.00  0.00    +0.000 A 
ATOM      8  C   UNL     1      48.694   9.320  13.739  0.00  0.00    +0.000 A 
ATOM      9  C   UNL     1      49.768   8.979  12.928  0.00  0.00    +0.000 A 
ATOM     10 CL   UNL     1      51.264   9.813  13.082  0.00  0.00    +0.000 Cl
ATOM     11  C   UNL     1      49.628   7.979  11.975  0.00  0.00    +0.000 A 
ATOM     12  C   UNL     1      48.393   7.340  11.815  0.00  0.00    +0.000 A 
ENDBRANCH   5   6
BRANCH   2  13
ATOM     13  C   UNL     1      46.294   4.822  13.750  0.00  0.00    +0.000 A 
ATOM     14  C   UNL     1      46.732   5.396  14.961  0.00  0.00    +0.000 A 
ATOM     15  C   UNL     1      47.525   4.692  15.865  0.00  0.00    +0.000 A 
ATOM     16  C   UNL     1      47.889   3.398  15.543  0.00  0.00    +0.000 A 
ATOM     17  N   UNL     1      47.517   2.779  14.391  0.00  0.00    +0.000 NA
ATOM     18  C   UNL     1      46.739   3.503  13.548  0.00  0.00    +0.000 A 
BRANCH  16  19
ATOM     19  C   UNL     1      48.738   2.608  16.494  0.00  0.00    +0.000 C 
ATOM     20  N   UNL     1      48.641   2.978  17.807  0.00  0.00    +0.000 N 
ATOM     21  O   UNL     1      49.468   1.699  16.130  0.00  0.00    +0.000 OA
ATOM     22  H   UNL     1      48.039   3.751  18.064  0.00  0.00    +0.000 HD
ATOM     23  H   UNL     1      49.204   2.506  18.502  0.00  0.00    +0.000 HD
ENDBRANCH  16  19
ENDBRANCH   2  13
TORSDOF 3
ENDMDL
MODEL 4
REMARK VINA RESULT:    -4.978      1.844      2.209
REMARK INTER + INTRA:          -6.749
REMARK INTER:                  -6.831
REMARK INTRA:                   0.083
REMARK UNBOUND:                -0.898
REMARK  Name = 
REMARK  4 active torsions:
REMARK  status: ('A' for Active; 'I' for Inactive)
REMARK    1  A    between atoms: C_1  and  C_2
REMARK    2  A    between atoms: C_2  and  C_3
REMARK    3  A    between atoms: C_6  and  C_7
REMARK    4  A    between atoms: C_14  and  C_15
REMARK                            x       y       z     vdW  Elec       q    Type
REMARK                         _______ _______ _______ _____ _____    ______ ____
ROOT
ATOM      1  C   UNL     1      48.371   9.930  12.885  0.00  0.00    +0.000 C 
ATOM      2  C   UNL     1      48.540   8.404  13.040  0.00  0.00    +0.000 C 
ATOM      3  C   UNL     1      49.908   7.933  12.443  0.00  0.00    +0.000 C 
ATOM      4  C   UNL     1      50.548   8.105  13.827  0.00  0.00    +0.000 C 
ATOM      5  C   UNL     1      49.126   8.016  14.456  0.00  0.00    +0.000 C 
ENDROOT
BRANCH   5   6
ATOM      6  C   UNL     1      48.730   6.642  15.185  0.00  0.00    +0.000 A 
ATOM      7  C   UNL     1      47.821   5.741  14.590  0.00  0.00    +0.000 A 
ATOM      8  C   UNL     1      47.343   4.609  15.262  0.00  0.00    +0.000 A 
ATOM      9  C   UNL     1      47.771   4.345  16.557  0.00  0.00    +0.000 A 
ATOM     10 CL   UNL     1      47.131   3.002  17.420  0.00  0.00    +0.000 Cl
ATOM     11  C   UNL     1      48.700   5.179  17.165  0.00  0.00    +0.000 A 
ATOM     12  C   UNL     1      49.177   6.302  16.480  0.00  0.00    +0.000 A 
ENDBRANCH   5   6
BRANCH   2  13
ATOM     13  C   UNL     1      47.202   7.680  12.515  0.00  0.00    +0.000 A 
ATOM     14  C   UNL     1      47.211   6.613  11.595  0.00  0.00    +0.000 A 
ATOM     15  C   UNL     1      46.032   6.027  11.135  0.00  0.00    +0.000 A 
ATOM     16  C   UNL     1      44.831   6.528  11.601  0.00  0.00    +0.000 A 
ATOM     17  N   UNL     1      44.740   7.562  12.480  0.00  0.00    +0.000 NA
ATOM     18  C   UNL     1      45.915   8.092  12.904  0.00  0.00    +0.000 A 
BRANCH  16  19
ATOM     19  C   UNL     1      43.543   5.921  11.132  0.00  0.00    +0.000 C 
ATOM     20  N   UNL     1      42.437   6.712  11.282  0.00  0.00    +0.000 N 
ATOM     21  O   UNL     1      43.476   4.800  10.651  0.00  0.00    +0.000 OA
ATOM     22  H   UNL     1      42.532   7.627  11.705  0.00  0.00    +0.000 HD
ATOM     23  H   UNL     1      41.530   6.358  11.012  0.00  0.00    +0.000 HD
ENDBRANCH  16  19
ENDBRANCH   2  13
TORSDOF 3
ENDMDL
MODEL 5
REMARK VINA RESULT:    -4.718      2.826      4.786
REMARK INTER + INTRA:          -6.443
REMARK INTER:                  -5.797
REMARK INTRA:                  -0.646
REMARK UNBOUND:                -0.898
REMARK  Name = 
REMARK  4 active torsions:
REMARK  status: ('A' for Active; 'I' for Inactive)
REMARK    1  A    between atoms: C_1  and  C_2
REMARK    2  A    between atoms: C_2  and  C_3
REMARK    3  A    between atoms: C_6  and  C_7
REMARK    4  A    between atoms: C_14  and  C_15
REMARK                            x       y       z     vdW  Elec       q    Type
REMARK                         _______ _______ _______ _____ _____    ______ ____
ROOT
ATOM      1  C   UNL     1      50.631   3.621  17.756  0.00  0.00    +0.000 C 
ATOM      2  C   UNL     1      49.429   4.540  18.063  0.00  0.00    +0.000 C 
ATOM      3  C   UNL     1      48.707   4.089  19.376  0.00  0.00    +0.000 C 
ATOM      4  C   UNL     1      49.596   5.053  20.171  0.00  0.00    +0.000 C 
ATOM      5  C   UNL     1      49.865   5.837  18.853  0.00  0.00    +0.000 C 
ENDROOT
BRANCH   5   6
ATOM      6  C   UNL     1      49.102   7.237  18.662  0.00  0.00    +0.000 A 
ATOM      7  C   UNL     1      49.761   8.350  18.096  0.00  0.00    +0.000 A 
ATOM      8  C   UNL     1      49.174   9.621  18.051  0.00  0.00    +0.000 A 
ATOM      9  C   UNL     1      47.900   9.810  18.570  0.00  0.00    +0.000 A 
ATOM     10 CL   UNL     1      47.202  11.382  18.590  0.00  0.00    +0.000 Cl
ATOM     11  C   UNL     1      47.197   8.734  19.094  0.00  0.00    +0.000 A 
ATOM     12  C   UNL     1      47.789   7.467  19.126  0.00  0.00    +0.000 A 
ENDBRANCH   5   6
BRANCH   2  13
ATOM     13  C   UNL     1      48.540   4.689  16.730  0.00  0.00    +0.000 A 
ATOM     14  C   UNL     1      48.660   5.775  15.839  0.00  0.00    +0.000 A 
ATOM     15  C   UNL     1      47.853   5.892  14.708  0.00  0.00    +0.000 A 
ATOM     16  C   UNL     1      46.909   4.909  14.477  0.00  0.00    +0.000 A 
ATOM     17  N   UNL     1      46.725   3.839  15.295  0.00  0.00    +0.000 NA
ATOM     18  C   UNL     1      47.540   3.766  16.377  0.00  0.00    +0.000 A 
BRANCH  16  19
ATOM     19  C   UNL     1      46.026   4.999  13.268  0.00  0.00    +0.000 C 
ATOM     20  N   UNL     1      44.896   4.231  13.314  0.00  0.00    +0.000 N 
ATOM     21  O   UNL     1      46.292   5.704  12.306  0.00  0.00    +0.000 OA
ATOM     22  H   UNL     1      44.723   3.645  14.121  0.00  0.00    +0.000 HD
ATOM     23  H   UNL     1      44.266   4.221  12.523  0.00  0.00    +0.000 HD
ENDBRANCH  16  19
ENDBRANCH   2  13
TORSDOF 3
ENDMDL
MODEL 6
REMARK VINA RESULT:    -4.422      1.447      1.829
REMARK INTER + INTRA:          -6.095
REMARK INTER:                  -5.209
REMARK INTRA:                  -0.886
REMARK UNBOUND:                -0.898
REMARK  Name = 
REMARK  4 active torsions:
REMARK  status: ('A' for Active; 'I' for Inactive)
REMARK    1  A    between atoms: C_1  and  C_2
REMARK    2  A    between atoms: C_2  and  C_3
REMARK    3  A    between atoms: C_6  and  C_7
REMARK    4  A    between atoms: C_14  and  C_15
REMARK                            x       y       z     vdW  Elec       q    Type
REMARK                         _______ _______ _______ _____ _____    ______ ____
ROOT
ATOM      1  C   UNL     1      48.704  10.618  11.140  0.00  0.00    +0.000 C 
ATOM      2  C   UNL     1      49.053   9.329  11.915  0.00  0.00    +0.000 C 
ATOM      3  C   UNL     1      50.354   8.673  11.343  0.00  0.00    +0.000 C 
ATOM      4  C   UNL     1      51.177   9.465  12.368  0.00  0.00    +0.000 C 
ATOM      5  C   UNL     1      49.885   9.634  13.223  0.00  0.00    +0.000 C 
ENDROOT
BRANCH   5   6
ATOM      6  C   UNL     1      49.751   8.725  14.539  0.00  0.00    +0.000 A 
ATOM      7  C   UNL     1      48.777   9.010  15.520  0.00  0.00    +0.000 A 
ATOM      8  C   UNL     1      48.729   8.331  16.744  0.00  0.00    +0.000 A 
ATOM      9  C   UNL     1      49.659   7.337  17.017  0.00  0.00    +0.000 A 
ATOM     10 CL   UNL     1      49.658   6.552  18.547  0.00  0.00    +0.000 Cl
ATOM     11  C   UNL     1      50.607   6.992  16.063  0.00  0.00    +0.000 A 
ATOM     12  C   UNL     1      50.640   7.671  14.840  0.00  0.00    +0.000 A 
ENDBRANCH   5   6
BRANCH   2  13
ATOM     13  C   UNL     1      47.732   8.415  12.016  0.00  0.00    +0.000 A 
ATOM     14  C   UNL     1      46.491   8.898  12.476  0.00  0.00    +0.000 A 
ATOM     15  C   UNL     1      45.372   8.073  12.582  0.00  0.00    +0.000 A 
ATOM     16  C   UNL     1      45.508   6.744  12.228  0.00  0.00    +0.000 A 
ATOM     17  N   UNL     1      46.674   6.200  11.787  0.00  0.00    +0.000 NA
ATOM     18  C   UNL     1      47.730   7.046  11.694  0.00  0.00    +0.000 A 
BRANCH  16  19
ATOM     19  C   UNL     1      44.325   5.827  12.325  0.00  0.00    +0.000 C 
ATOM     20  N   UNL     1      44.523   4.699  13.073  0.00  0.00    +0.000 N 
ATOM     21  O   UNL     1      43.259   6.062  11.776  0.00  0.00    +0.000 OA
ATOM     22  H   UNL     1      45.428   4.531  13.494  0.00  0.00    +0.000 HD
ATOM     23  H   UNL     1      43.777   4.022  13.161  0.00  0.00    +0.000 HD
ENDBRANCH  16  19
ENDBRANCH   2  13
TORSDOF 3
ENDMDL
MODEL 7
REMARK VINA RESULT:    -4.336      3.078      5.074
REMARK INTER + INTRA:          -5.994
REMARK INTER:                  -6.118
REMARK INTRA:                   0.124
REMARK UNBOUND:                -0.898
REMARK  Name = 
REMARK  4 active torsions:
REMARK  status: ('A' for Active; 'I' for Inactive)
REMARK    1  A    between atoms: C_1  and  C_2
REMARK    2  A    between atoms: C_2  and  C_3
REMARK    3  A    between atoms: C_6  and  C_7
REMARK    4  A    between atoms: C_14  and  C_15
REMARK                            x       y       z     vdW  Elec       q    Type
REMARK                         _______ _______ _______ _____ _____    ______ ____
ROOT
ATOM      1  C   UNL     1      45.650   5.564  10.545  0.00  0.00    +0.000 C 
ATOM      2  C   UNL     1      45.867   6.068  11.988  0.00  0.00    +0.000 C 
ATOM      3  C   UNL     1      44.499   6.244  12.727  0.00  0.00    +0.000 C 
ATOM      4  C   UNL     1      44.623   4.808  13.252  0.00  0.00    +0.000 C 
ATOM      5  C   UNL     1      46.156   4.881  12.990  0.00  0.00    +0.000 C 
ENDROOT
BRANCH   5   6
ATOM      6  C   UNL     1      47.112   5.068  14.267  0.00  0.00    +0.000 A 
ATOM      7  C   UNL     1      47.123   4.116  15.308  0.00  0.00    +0.000 A 
ATOM      8  C   UNL     1      47.832   4.321  16.499  0.00  0.00    +0.000 A 
ATOM      9  C   UNL     1      48.558   5.492  16.676  0.00  0.00    +0.000 A 
ATOM     10 CL   UNL     1      49.367   5.788  18.164  0.00  0.00    +0.000 Cl
ATOM     11  C   UNL     1      48.612   6.435  15.658  0.00  0.00    +0.000 A 
ATOM     12  C   UNL     1      47.908   6.215  14.470  0.00  0.00    +0.000 A 
ENDBRANCH   5   6
BRANCH   2  13
ATOM     13  C   UNL     1      46.868   7.328  11.949  0.00  0.00    +0.000 A 
ATOM     14  C   UNL     1      48.199   7.244  11.493  0.00  0.00    +0.000 A 
ATOM     15  C   UNL     1      49.051   8.347  11.501  0.00  0.00    +0.000 A 
ATOM     16  C   UNL     1      48.559   9.547  11.981  0.00  0.00    +0.000 A 
ATOM     17  N   UNL     1      47.292   9.705  12.448  0.00  0.00    +0.000 NA
ATOM     18  C   UNL     1      46.500   8.604  12.412  0.00  0.00    +0.000 A 
BRANCH  16  19
ATOM     19  C   UNL     1      49.445  10.757  12.001  0.00  0.00    +0.000 C 
ATOM     20  N   UNL     1      50.186  10.954  10.869  0.00  0.00    +0.000 N 
ATOM     21  O   UNL     1      49.507  11.516  12.957  0.00  0.00    +0.000 OA
ATOM     22  H   UNL     1      50.121  10.290  10.108  0.00  0.00    +0.000 HD
ATOM     23  H   UNL     1      50.826  11.736  10.821  0.00  0.00    +0.000 HD
ENDBRANCH  16  19
ENDBRANCH   2  13
TORSDOF 3
ENDMDL
MODEL 8
REMARK VINA RESULT:    -4.220      3.638      5.621
REMARK INTER + INTRA:          -5.858
REMARK INTER:                  -5.015
REMARK INTRA:                  -0.842
REMARK UNBOUND:                -0.898
REMARK  Name = 
REMARK  4 active torsions:
REMARK  status: ('A' for Active; 'I' for Inactive)
REMARK    1  A    between atoms: C_1  and  C_2
REMARK    2  A    between atoms: C_2  and  C_3
REMARK    3  A    between atoms: C_6  and  C_7
REMARK    4  A    between atoms: C_14  and  C_15
REMARK                            x       y       z     vdW  Elec       q    Type
REMARK                         _______ _______ _______ _____ _____    ______ ____
ROOT
ATOM      1  C   UNL     1      47.632   6.313  20.461  0.00  0.00    +0.000 C 
ATOM      2  C   UNL     1      48.764   6.488  19.427  0.00  0.00    +0.000 C 
ATOM      3  C   UNL     1      49.267   7.970  19.401  0.00  0.00    +0.000 C 
ATOM      4  C   UNL     1      50.331   7.604  20.444  0.00  0.00    +0.000 C 
ATOM      5  C   UNL     1      50.176   6.111  20.028  0.00  0.00    +0.000 C 
ENDROOT
BRANCH   5   6
ATOM      6  C   UNL     1      51.338   5.477  19.120  0.00  0.00    +0.000 A 
ATOM      7  C   UNL     1      51.663   4.107  19.212  0.00  0.00    +0.000 A 
ATOM      8  C   UNL     1      52.764   3.554  18.545  0.00  0.00    +0.000 A 
ATOM      9  C   UNL     1      53.570   4.366  17.757  0.00  0.00    +0.000 A 
ATOM     10 CL   UNL     1      54.969   3.714  16.998  0.00  0.00    +0.000 Cl
ATOM     11  C   UNL     1      53.261   5.710  17.601  0.00  0.00    +0.000 A 
ATOM     12  C   UNL     1      52.153   6.249  18.265  0.00  0.00    +0.000 A 
ENDBRANCH   5   6
BRANCH   2  13
ATOM     13  C   UNL     1      48.298   5.828  18.035  0.00  0.00    +0.000 A 
ATOM     14  C   UNL     1      47.527   4.651  17.958  0.00  0.00    +0.000 A 
ATOM     15  C   UNL     1      47.165   4.086  16.736  0.00  0.00    +0.000 A 
ATOM     16  C   UNL     1      47.593   4.710  15.578  0.00  0.00    +0.000 A 
ATOM     17  N   UNL     1      48.348   5.840  15.570  0.00  0.00    +0.000 NA
ATOM     18  C   UNL     1      48.666   6.355  16.784  0.00  0.00    +0.000 A 
BRANCH  16  19
ATOM     19  C   UNL     1      47.220   4.133  14.245  0.00  0.00    +0.000 C 
ATOM     20  N   UNL     1      46.884   5.050  13.288  0.00  0.00    +0.000 N 
ATOM     21  O   UNL     1      47.212   2.932  14.022  0.00  0.00    +0.000 OA
ATOM     22  H   UNL     1      46.882   6.036  13.519  0.00  0.00    +0.000 HD
ATOM     23  H   UNL     1      46.596   4.733  12.371  0.00  0.00    +0.000 HD
ENDBRANCH  16  19
ENDBRANCH   2  13
TORSDOF 3
ENDMDL
MODEL 9
REMARK VINA RESULT:    -3.981     12.929     14.685
REMARK INTER + INTRA:          -5.577
REMARK INTER:                  -4.933
REMARK INTRA:                  -0.644
REMARK UNBOUND:                -0.898
REMARK  Name = 
REMARK  4 active torsions:
REMARK  status: ('A' for Active; 'I' for Inactive)
REMARK    1  A    between atoms: C_1  and  C_2
REMARK    2  A    between atoms: C_2  and  C_3
REMARK    3  A    between atoms: C_6  and  C_7
REMARK    4  A    between atoms: C_14  and  C_15
REMARK                            x       y       z     vdW  Elec       q    Type
REMARK                         _______ _______ _______ _____ _____    ______ ____
ROOT
ATOM      1  C   UNL     1      43.364  -4.761  21.139  0.00  0.00    +0.000 C 
ATOM      2  C   UNL     1      42.997  -5.338  19.755  0.00  0.00    +0.000 C 
ATOM      3  C   UNL     1      41.944  -6.488  19.893  0.00  0.00    +0.000 C 
ATOM      4  C   UNL     1      40.824  -5.455  19.716  0.00  0.00    +0.000 C 
ATOM      5  C   UNL     1      41.858  -4.499  19.049  0.00  0.00    +0.000 C 
ENDROOT
BRANCH   5   6
ATOM      6  C   UNL     1      41.792  -4.342  17.453  0.00  0.00    +0.000 A 
ATOM      7  C   UNL     1      41.302  -3.158  16.861  0.00  0.00    +0.000 A 
ATOM      8  C   UNL     1      41.093  -3.045  15.481  0.00  0.00    +0.000 A 
ATOM      9  C   UNL     1      41.377  -4.121  14.651  0.00  0.00    +0.000 A 
ATOM     10 CL   UNL     1      41.051  -4.019  12.965  0.00  0.00    +0.000 Cl
ATOM     11  C   UNL     1      41.904  -5.290  15.184  0.00  0.00    +0.000 A 
ATOM     12  C   UNL     1      42.118  -5.388  16.563  0.00  0.00    +0.000 A 
ENDBRANCH   5   6
BRANCH   2  13
ATOM     13  C   UNL     1      44.355  -5.655  18.952  0.00  0.00    +0.000 A 
ATOM     14  C   UNL     1      45.296  -4.665  18.603  0.00  0.00    +0.000 A 
ATOM     15  C   UNL     1      46.448  -4.966  17.879  0.00  0.00    +0.000 A 
ATOM     16  C   UNL     1      46.651  -6.279  17.495  0.00  0.00    +0.000 A 
ATOM     17  N   UNL     1      45.786  -7.287  17.782  0.00  0.00    +0.000 NA
ATOM     18  C   UNL     1      44.684  -6.944  18.495  0.00  0.00    +0.000 A 
BRANCH  16  19
ATOM     19  C   UNL     1      47.882  -6.642  16.719  0.00  0.00    +0.000 C 
ATOM     20  N   UNL     1      49.052  -6.592  17.425  0.00  0.00    +0.000 N 
ATOM     21  O   UNL     1      47.851  -6.959  15.539  0.00  0.00    +0.000 OA
ATOM     22  H   UNL     1      49.037  -6.305  18.396  0.00  0.00    +0.000 HD
ATOM     23  H   UNL     1      49.926  -6.800  16.961  0.00  0.00    +0.000 HD
ENDBRANCH  16  19
ENDBRANCH   2  13
TORSDOF 3
ENDMDL
