MODEL 1
REMARK VINA RESULT:    -9.034      0.000      0.000
REMARK INTER + INTRA:         -13.038
REMARK INTER:                 -12.467
REMARK INTRA:                  -0.571
REMARK UNBOUND:                -0.571
REMARK  Name = 
REMARK  7 active torsions:
REMARK  status: ('A' for Active; 'I' for Inactive)
REMARK    1  A    between atoms: N_1  and  C_2
REMARK    2  A    between atoms: C_2  and  C_3
REMARK    3  A    between atoms: C_3  and  N_4
REMARK    4  A    between atoms: C_3  and  C_17
REMARK    5  A    between atoms: C_5  and  C_7
REMARK    6  A    between atoms: C_20  and  O_21
REMARK    7  A    between atoms: O_21  and  C_22
REMARK                            x       y       z     vdW  Elec       q    Type
REMARK                         _______ _______ _______ _____ _____    ______ ____
ROOT
ATOM      1  C   UNL     1      44.191   4.506  12.914  0.00  0.00    +0.000 C 
ENDROOT
BRANCH   1   2
ATOM      2  C   UNL     1      44.537   4.520  11.431  0.00  0.00    +0.000 A 
ATOM      3  C   UNL     1      44.057   3.469  10.635  0.00  0.00    +0.000 A 
ATOM      4  C   UNL     1      44.432   3.351   9.297  0.00  0.00    +0.000 A 
ATOM      5  C   UNL     1      45.236   4.323   8.701  0.00  0.00    +0.000 A 
ATOM      6  C   UNL     1      45.734   5.368   9.482  0.00  0.00    +0.000 A 
ATOM      7  C   UNL     1      45.396   5.460  10.841  0.00  0.00    +0.000 A 
BRANCH   5   8
ATOM      8  O   UNL     1      45.629   4.304   7.379  0.00  0.00    +0.000 OA
BRANCH   8   9
ATOM      9  C   UNL     1      46.461   3.298   6.937  0.00  0.00    +0.000 A 
ATOM     10  C   UNL     1      46.759   2.160   7.687  0.00  0.00    +0.000 A 
ATOM     11  C   UNL     1      47.660   1.253   7.161  0.00  0.00    +0.000 A 
ATOM     12  N   UNL     1      48.212   1.370   5.936  0.00  0.00    +0.000 NA
ATOM     13  C   UNL     1      47.843   2.443   5.203  0.00  0.00    +0.000 A 
ATOM     14  C   UNL     1      46.980   3.426   5.654  0.00  0.00    +0.000 A 
ENDBRANCH   8   9
ENDBRANCH   5   8
ENDBRANCH   1   2
BRANCH   1  15
ATOM     15  N   UNL     1      45.285   5.143  13.640  0.00  0.00    +0.000 N 
ATOM     16  C   UNL     1      46.400   4.461  14.047  0.00  0.00    +0.000 C 
ATOM     17  O   UNL     1      46.552   3.270  13.779  0.00  0.00    +0.000 OA
ATOM     18  H   UNL     1      45.155   6.118  13.894  0.00  0.00    +0.000 HD
BRANCH  16  19
ATOM     19  C   UNL     1      47.415   5.204  14.811  0.00  0.00    +0.000 A 
ATOM     20  C   UNL     1      48.128   6.218  14.181  0.00  0.00    +0.000 A 
ATOM     21  S   UNL     1      49.265   6.994  15.184  0.00  0.00    +0.000 S 
ATOM     22  C   UNL     1      48.861   5.994  16.500  0.00  0.00    +0.000 A 
ATOM     23  N   UNL     1      49.496   6.136  17.697  0.00  0.00    +0.000 NA
ATOM     24  C   UNL     1      49.109   5.306  18.606  0.00  0.00    +0.000 A 
ATOM     25  N   UNL     1      48.145   4.351  18.431  0.00  0.00    +0.000 N 
ATOM     26  C   UNL     1      47.471   4.176  17.241  0.00  0.00    +0.000 A 
ATOM     27  O   UNL     1      46.613   3.311  17.125  0.00  0.00    +0.000 OA
ATOM     28  C   UNL     1      47.868   5.083  16.181  0.00  0.00    +0.000 A 
ATOM     29  H   UNL     1      47.884   3.732  19.185  0.00  0.00    +0.000 HD
ENDBRANCH  16  19
ENDBRANCH   1  15
BRANCH   1  30
ATOM     30  C   UNL     1      42.818   5.124  13.309  0.00  0.00    +0.000 C 
BRANCH  30  31
ATOM     31  N   UNL     1      42.179   5.903  12.239  0.00  0.00    +0.000 NA
ATOM     32  H   UNL     1      41.958   5.280  11.463  0.00  0.00    +0.000 HD
ATOM     33  H   UNL     1      42.852   6.576  11.871  0.00  0.00    +0.000 HD
ENDBRANCH  30  31
ENDBRANCH   1  30
TORSDOF 7
ENDMDL
MODEL 2
REMARK VINA RESULT:    -8.573      1.640      2.733
REMARK INTER + INTRA:         -12.402
REMARK INTER:                 -11.667
REMARK INTRA:                  -0.735
REMARK UNBOUND:                -0.571
REMARK  Name = 
REMARK  7 active torsions:
REMARK  status: ('A' for Active; 'I' for Inactive)
REMARK    1  A    between atoms: N_1  and  C_2
REMARK    2  A    between atoms: C_2  and  C_3
REMARK    3  A    between atoms: C_3  and  N_4
REMARK    4  A    between atoms: C_3  and  C_17
REMARK    5  A    between atoms: C_5  and  C_7
REMARK    6  A    between atoms: C_20  and  O_21
REMARK    7  A    between atoms: O_21  and  C_22
REMARK                            x       y       z     vdW  Elec       q    Type
REMARK                         _______ _______ _______ _____ _____    ______ ____
ROOT
ATOM      1  C   UNL     1      44.419   4.299  13.018  0.00  0.00    +0.000 C 
ENDROOT
BRANCH   1   2
ATOM      2  C   UNL     1      44.575   4.261  11.504  0.00  0.00    +0.000 A 
ATOM      3  C   UNL     1      44.057   3.152  10.817  0.00  0.00    +0.000 A 
ATOM      4  C   UNL     1      44.267   2.991   9.449  0.00  0.00    +0.000 A 
ATOM      5  C   UNL     1      44.936   3.972   8.717  0.00  0.00    +0.000 A 
ATOM      6  C   UNL     1      45.472   5.074   9.386  0.00  0.00    +0.000 A 
ATOM      7  C   UNL     1      45.302   5.213  10.771  0.00  0.00    +0.000 A 
BRANCH   5   8
ATOM      8  O   UNL     1      45.162   3.910   7.357  0.00  0.00    +0.000 OA
BRANCH   8   9
ATOM      9  C   UNL     1      46.205   3.148   6.880  0.00  0.00    +0.000 A 
ATOM     10  C   UNL     1      46.884   3.429   5.694  0.00  0.00    +0.000 A 
ATOM     11  C   UNL     1      47.871   2.551   5.286  0.00  0.00    +0.000 A 
ATOM     12  N   UNL     1      48.261   1.478   6.003  0.00  0.00    +0.000 NA
ATOM     13  C   UNL     1      47.637   1.276   7.185  0.00  0.00    +0.000 A 
ATOM     14  C   UNL     1      46.613   2.073   7.662  0.00  0.00    +0.000 A 
ENDBRANCH   8   9
ENDBRANCH   5   8
ENDBRANCH   1   2
BRANCH   1  15
ATOM     15  N   UNL     1      45.504   5.107  13.564  0.00  0.00    +0.000 N 
ATOM     16  C   UNL     1      46.662   4.561  14.050  0.00  0.00    +0.000 C 
ATOM     17  O   UNL     1      46.860   3.347  14.009  0.00  0.00    +0.000 OA
ATOM     18  H   UNL     1      45.336   6.106  13.632  0.00  0.00    +0.000 HD
BRANCH  16  19
ATOM     19  C   UNL     1      47.664   5.478  14.617  0.00  0.00    +0.000 A 
ATOM     20  C   UNL     1      48.057   5.315  15.941  0.00  0.00    +0.000 A 
ATOM     21  S   UNL     1      49.223   6.442  16.462  0.00  0.00    +0.000 S 
ATOM     22  C   UNL     1      49.239   7.204  14.942  0.00  0.00    +0.000 A 
ATOM     23  N   UNL     1      50.042   8.282  14.716  0.00  0.00    +0.000 NA
ATOM     24  C   UNL     1      49.948   8.777  13.528  0.00  0.00    +0.000 A 
ATOM     25  N   UNL     1      49.129   8.292  12.544  0.00  0.00    +0.000 N 
ATOM     26  C   UNL     1      48.306   7.201  12.724  0.00  0.00    +0.000 A 
ATOM     27  O   UNL     1      47.590   6.797  11.818  0.00  0.00    +0.000 OA
ATOM     28  C   UNL     1      48.371   6.605  14.045  0.00  0.00    +0.000 A 
ATOM     29  H   UNL     1      49.103   8.723  11.632  0.00  0.00    +0.000 HD
ENDBRANCH  16  19
ENDBRANCH   1  15
BRANCH   1  30
ATOM     30  C   UNL     1      43.037   4.772  13.558  0.00  0.00    +0.000 C 
BRANCH  30  31
ATOM     31  N   UNL     1      42.319   5.683  12.656  0.00  0.00    +0.000 NA
ATOM     32  H   UNL     1      42.972   6.043  11.961  0.00  0.00    +0.000 HD
ATOM     33  H   UNL     1      42.001   6.494  13.186  0.00  0.00    +0.000 HD
ENDBRANCH  30  31
ENDBRANCH   1  30
TORSDOF 7
ENDMDL
MODEL 3
REMARK VINA RESULT:    -7.812      1.898      2.457
REMARK INTER + INTRA:         -11.352
REMARK INTER:                 -11.687
REMARK INTRA:                   0.335
REMARK UNBOUND:                -0.571
REMARK  Name = 
REMARK  7 active torsions:
REMARK  status: ('A' for Active; 'I' for Inactive)
REMARK    1  A    between atoms: N_1  and  C_2
REMARK    2  A    between atoms: C_2  and  C_3
REMARK    3  A    between atoms: C_3  and  N_4
REMARK    4  A    between atoms: C_3  and  C_17
REMARK    5  A    between atoms: C_5  and  C_7
REMARK    6  A    between atoms: C_20  and  O_21
REMARK    7  A    between atoms: O_21  and  C_22
REMARK                            x       y       z     vdW  Elec       q    Type
REMARK                         _______ _______ _______ _____ _____    ______ ____
ROOT
ATOM      1  C   UNL     1      44.844   7.264  12.296  0.00  0.00    +0.000 C 
ENDROOT
BRANCH   1   2
ATOM      2  C   UNL     1      44.746   6.124  11.292  0.00  0.00    +0.000 A 
ATOM      3  C   UNL     1      43.813   5.106  11.544  0.00  0.00    +0.000 A 
ATOM      4  C   UNL     1      43.751   3.972  10.735  0.00  0.00    +0.000 A 
ATOM      5  C   UNL     1      44.568   3.862   9.609  0.00  0.00    +0.000 A 
ATOM      6  C   UNL     1      45.512   4.858   9.353  0.00  0.00    +0.000 A 
ATOM      7  C   UNL     1      45.609   5.976  10.195  0.00  0.00    +0.000 A 
BRANCH   5   8
ATOM      8  O   UNL     1      44.552   2.793   8.738  0.00  0.00    +0.000 OA
BRANCH   8   9
ATOM      9  C   UNL     1      45.711   2.436   8.085  0.00  0.00    +0.000 A 
ATOM     10  C   UNL     1      46.506   3.339   7.378  0.00  0.00    +0.000 A 
ATOM     11  C   UNL     1      47.611   2.847   6.709  0.00  0.00    +0.000 A 
ATOM     12  N   UNL     1      48.004   1.558   6.759  0.00  0.00    +0.000 NA
ATOM     13  C   UNL     1      47.257   0.723   7.515  0.00  0.00    +0.000 A 
ATOM     14  C   UNL     1      46.113   1.109   8.190  0.00  0.00    +0.000 A 
ENDBRANCH   8   9
ENDBRANCH   5   8
ENDBRANCH   1   2
BRANCH   1  15
ATOM     15  N   UNL     1      45.769   6.862  13.350  0.00  0.00    +0.000 N 
ATOM     16  C   UNL     1      47.112   7.127  13.298  0.00  0.00    +0.000 C 
ATOM     17  O   UNL     1      47.600   7.764  12.365  0.00  0.00    +0.000 OA
ATOM     18  H   UNL     1      45.382   6.308  14.108  0.00  0.00    +0.000 HD
BRANCH  16  19
ATOM     19  C   UNL     1      47.950   6.629  14.401  0.00  0.00    +0.000 A 
ATOM     20  C   UNL     1      48.990   7.422  14.871  0.00  0.00    +0.000 A 
ATOM     21  S   UNL     1      49.873   6.723  16.149  0.00  0.00    +0.000 S 
ATOM     22  C   UNL     1      48.908   5.323  16.116  0.00  0.00    +0.000 A 
ATOM     23  N   UNL     1      49.150   4.296  16.978  0.00  0.00    +0.000 NA
ATOM     24  C   UNL     1      48.358   3.287  16.839  0.00  0.00    +0.000 A 
ATOM     25  N   UNL     1      47.345   3.211  15.922  0.00  0.00    +0.000 N 
ATOM     26  C   UNL     1      47.059   4.227  15.036  0.00  0.00    +0.000 A 
ATOM     27  O   UNL     1      46.143   4.121  14.232  0.00  0.00    +0.000 OA
ATOM     28  C   UNL     1      47.921   5.388  15.147  0.00  0.00    +0.000 A 
ATOM     29  H   UNL     1      46.757   2.392  15.865  0.00  0.00    +0.000 HD
ENDBRANCH  16  19
ENDBRANCH   1  15
BRANCH   1  30
ATOM     30  C   UNL     1      45.219   8.661  11.720  0.00  0.00    +0.000 C 
BRANCH  30  31
ATOM     31  N   UNL     1      44.923   9.783  12.621  0.00  0.00    +0.000 NA
ATOM     32  H   UNL     1      45.482   9.684  13.468  0.00  0.00    +0.000 HD
ATOM     33  H   UNL     1      43.950   9.720  12.922  0.00  0.00    +0.000 HD
ENDBRANCH  30  31
ENDBRANCH   1  30
TORSDOF 7
ENDMDL
MODEL 4
REMARK VINA RESULT:    -7.493      3.943      8.801
REMARK INTER + INTRA:         -10.912
REMARK INTER:                 -10.513
REMARK INTRA:                  -0.399
REMARK UNBOUND:                -0.571
REMARK  Name = 
REMARK  7 active torsions:
REMARK  status: ('A' for Active; 'I' for Inactive)
REMARK    1  A    between atoms: N_1  and  C_2
REMARK    2  A    between atoms: C_2  and  C_3
REMARK    3  A    between atoms: C_3  and  N_4
REMARK    4  A    between atoms: C_3  and  C_17
REMARK    5  A    between atoms: C_5  and  C_7
REMARK    6  A    between atoms: C_20  and  O_21
REMARK    7  A    between atoms: O_21  and  C_22
REMARK                            x       y       z     vdW  Elec       q    Type
REMARK                         _______ _______ _______ _____ _____    ______ ____
ROOT
ATOM      1  C   UNL     1      48.704   5.880  17.197  0.00  0.00    +0.000 C 
ENDROOT
BRANCH   1   2
ATOM      2  C   UNL     1      49.442   4.553  17.308  0.00  0.00    +0.000 A 
ATOM      3  C   UNL     1      50.816   4.586  17.594  0.00  0.00    +0.000 A 
ATOM      4  C   UNL     1      51.579   3.420  17.592  0.00  0.00    +0.000 A 
ATOM      5  C   UNL     1      50.974   2.181  17.379  0.00  0.00    +0.000 A 
ATOM      6  C   UNL     1      49.612   2.130  17.078  0.00  0.00    +0.000 A 
ATOM      7  C   UNL     1      48.853   3.309  17.031  0.00  0.00    +0.000 A 
BRANCH   5   8
ATOM      8  O   UNL     1      51.645   0.975  17.390  0.00  0.00    +0.000 OA
BRANCH   8   9
ATOM      9  C   UNL     1      53.011   0.964  17.569  0.00  0.00    +0.000 A 
ATOM     10  C   UNL     1      53.889   0.260  16.744  0.00  0.00    +0.000 A 
ATOM     11  C   UNL     1      55.234   0.273  17.066  0.00  0.00    +0.000 A 
ATOM     12  N   UNL     1      55.752   0.984  18.088  0.00  0.00    +0.000 NA
ATOM     13  C   UNL     1      54.886   1.717  18.820  0.00  0.00    +0.000 A 
ATOM     14  C   UNL     1      53.519   1.740  18.604  0.00  0.00    +0.000 A 
ENDBRANCH   8   9
ENDBRANCH   5   8
ENDBRANCH   1   2
BRANCH   1  15
ATOM     15  N   UNL     1      47.854   5.828  16.012  0.00  0.00    +0.000 N 
ATOM     16  C   UNL     1      48.276   6.248  14.779  0.00  0.00    +0.000 C 
ATOM     17  O   UNL     1      49.423   6.656  14.602  0.00  0.00    +0.000 OA
ATOM     18  H   UNL     1      46.896   5.523  16.154  0.00  0.00    +0.000 HD
BRANCH  16  19
ATOM     19  C   UNL     1      47.310   6.187  13.670  0.00  0.00    +0.000 A 
ATOM     20  C   UNL     1      46.962   7.361  13.011  0.00  0.00    +0.000 A 
ATOM     21  S   UNL     1      45.839   7.141  11.749  0.00  0.00    +0.000 S 
ATOM     22  C   UNL     1      45.761   5.467  12.042  0.00  0.00    +0.000 A 
ATOM     23  N   UNL     1      44.950   4.670  11.291  0.00  0.00    +0.000 NA
ATOM     24  C   UNL     1      44.970   3.424  11.625  0.00  0.00    +0.000 A 
ATOM     25  N   UNL     1      45.729   2.901  12.637  0.00  0.00    +0.000 N 
ATOM     26  C   UNL     1      46.568   3.666  13.417  0.00  0.00    +0.000 A 
ATOM     27  O   UNL     1      47.232   3.159  14.311  0.00  0.00    +0.000 OA
ATOM     28  C   UNL     1      46.585   5.078  13.085  0.00  0.00    +0.000 A 
ATOM     29  H   UNL     1      45.702   1.914  12.848  0.00  0.00    +0.000 HD
ENDBRANCH  16  19
ENDBRANCH   1  15
BRANCH   1  30
ATOM     30  C   UNL     1      47.897   6.329  18.451  0.00  0.00    +0.000 C 
BRANCH  30  31
ATOM     31  N   UNL     1      46.677   5.547  18.691  0.00  0.00    +0.000 NA
ATOM     32  H   UNL     1      46.649   5.269  19.671  0.00  0.00    +0.000 HD
ATOM     33  H   UNL     1      46.728   4.678  18.158  0.00  0.00    +0.000 HD
ENDBRANCH  30  31
ENDBRANCH   1  30
TORSDOF 7
ENDMDL
MODEL 5
REMARK VINA RESULT:    -7.443      2.597      3.713
REMARK INTER + INTRA:         -10.842
REMARK INTER:                  -9.368
REMARK INTRA:                  -1.474
REMARK UNBOUND:                -0.571
REMARK  Name = 
REMARK  7 active torsions:
REMARK  status: ('A' for Active; 'I' for Inactive)
REMARK    1  A    between atoms: N_1  and  C_2
REMARK    2  A    between atoms: C_2  and  C_3
REMARK    3  A    between atoms: C_3  and  N_4
REMARK    4  A    between atoms: C_3  and  C_17
REMARK    5  A    between atoms: C_5  and  C_7
REMARK    6  A    between atoms: C_20  and  O_21
REMARK    7  A    between atoms: O_21  and  C_22
REMARK                            x       y       z     vdW  Elec       q    Type
REMARK                         _______ _______ _______ _____ _____    ______ ____
ROOT
ATOM      1  C   UNL     1      47.213   8.215  13.750  0.00  0.00    +0.000 C 
ENDROOT
BRANCH   1   2
ATOM      2  C   UNL     1      46.323   7.324  12.895  0.00  0.00    +0.000 A 
ATOM      3  C   UNL     1      46.599   5.948  12.871  0.00  0.00    +0.000 A 
ATOM      4  C   UNL     1      45.904   5.090  12.019  0.00  0.00    +0.000 A 
ATOM      5  C   UNL     1      44.863   5.573  11.226  0.00  0.00    +0.000 A 
ATOM      6  C   UNL     1      44.585   6.941  11.226  0.00  0.00    +0.000 A 
ATOM      7  C   UNL     1      45.317   7.813  12.046  0.00  0.00    +0.000 A 
BRANCH   5   8
ATOM      8  O   UNL     1      44.104   4.793  10.379  0.00  0.00    +0.000 OA
BRANCH   8   9
ATOM      9  C   UNL     1      44.731   3.905   9.533  0.00  0.00    +0.000 A 
ATOM     10  C   UNL     1      44.604   2.519   9.639  0.00  0.00    +0.000 A 
ATOM     11  C   UNL     1      45.337   1.732   8.772  0.00  0.00    +0.000 A 
ATOM     12  N   UNL     1      46.113   2.225   7.785  0.00  0.00    +0.000 NA
ATOM     13  C   UNL     1      46.154   3.570   7.659  0.00  0.00    +0.000 A 
ATOM     14  C   UNL     1      45.490   4.444   8.501  0.00  0.00    +0.000 A 
ENDBRANCH   8   9
ENDBRANCH   5   8
ENDBRANCH   1   2
BRANCH   1  15
ATOM     15  N   UNL     1      48.092   7.356  14.536  0.00  0.00    +0.000 N 
ATOM     16  C   UNL     1      48.554   7.705  15.776  0.00  0.00    +0.000 C 
ATOM     17  O   UNL     1      48.211   8.758  16.311  0.00  0.00    +0.000 OA
ATOM     18  H   UNL     1      48.407   6.499  14.090  0.00  0.00    +0.000 HD
BRANCH  16  19
ATOM     19  C   UNL     1      49.472   6.773  16.451  0.00  0.00    +0.000 A 
ATOM     20  C   UNL     1      50.725   7.225  16.847  0.00  0.00    +0.000 A 
ATOM     21  S   UNL     1      51.679   6.043  17.617  0.00  0.00    +0.000 S 
ATOM     22  C   UNL     1      50.460   4.870  17.437  0.00  0.00    +0.000 A 
ATOM     23  N   UNL     1      50.650   3.599  17.890  0.00  0.00    +0.000 NA
ATOM     24  C   UNL     1      49.656   2.804  17.677  0.00  0.00    +0.000 A 
ATOM     25  N   UNL     1      48.489   3.163  17.058  0.00  0.00    +0.000 N 
ATOM     26  C   UNL     1      48.250   4.438  16.592  0.00  0.00    +0.000 A 
ATOM     27  O   UNL     1      47.192   4.719  16.045  0.00  0.00    +0.000 OA
ATOM     28  C   UNL     1      49.337   5.375  16.804  0.00  0.00    +0.000 A 
ATOM     29  H   UNL     1      47.746   2.493  16.924  0.00  0.00    +0.000 HD
ENDBRANCH  16  19
ENDBRANCH   1  15
BRANCH   1  30
ATOM     30  C   UNL     1      48.022   9.310  12.996  0.00  0.00    +0.000 C 
BRANCH  30  31
ATOM     31  N   UNL     1      48.089  10.599  13.698  0.00  0.00    +0.000 NA
ATOM     32  H   UNL     1      47.515  11.278  13.199  0.00  0.00    +0.000 HD
ATOM     33  H   UNL     1      49.044  10.955  13.651  0.00  0.00    +0.000 HD
ENDBRANCH  30  31
ENDBRANCH   1  30
TORSDOF 7
ENDMDL
MODEL 6
REMARK VINA RESULT:    -7.286      4.087      8.530
REMARK INTER + INTRA:         -10.626
REMARK INTER:                  -9.331
REMARK INTRA:                  -1.295
REMARK UNBOUND:                -0.571
REMARK  Name = 
REMARK  7 active torsions:
REMARK  status: ('A' for Active; 'I' for Inactive)
REMARK    1  A    between atoms: N_1  and  C_2
REMARK    2  A    between atoms: C_2  and  C_3
REMARK    3  A    between atoms: C_3  and  N_4
REMARK    4  A    between atoms: C_3  and  C_17
REMARK    5  A    between atoms: C_5  and  C_7
REMARK    6  A    between atoms: C_20  and  O_21
REMARK    7  A    between atoms: O_21  and  C_22
REMARK                            x       y       z     vdW  Elec       q    Type
REMARK                         _______ _______ _______ _____ _____    ______ ____
ROOT
ATOM      1  C   UNL     1      48.526   7.512  14.445  0.00  0.00    +0.000 C 
ENDROOT
BRANCH   1   2
ATOM      2  C   UNL     1      48.994   6.602  15.572  0.00  0.00    +0.000 A 
ATOM      3  C   UNL     1      50.310   6.754  16.036  0.00  0.00    +0.000 A 
ATOM      4  C   UNL     1      50.846   5.879  16.980  0.00  0.00    +0.000 A 
ATOM      5  C   UNL     1      50.055   4.875  17.540  0.00  0.00    +0.000 A 
ATOM      6  C   UNL     1      48.749   4.700  17.079  0.00  0.00    +0.000 A 
ATOM      7  C   UNL     1      48.225   5.550  16.094  0.00  0.00    +0.000 A 
BRANCH   5   8
ATOM      8  O   UNL     1      50.492   3.986  18.501  0.00  0.00    +0.000 OA
BRANCH   8   9
ATOM      9  C   UNL     1      51.460   3.062  18.175  0.00  0.00    +0.000 A 
ATOM     10  C   UNL     1      51.203   1.904  17.441  0.00  0.00    +0.000 A 
ATOM     11  C   UNL     1      52.246   1.020  17.235  0.00  0.00    +0.000 A 
ATOM     12  N   UNL     1      53.511   1.247  17.643  0.00  0.00    +0.000 NA
ATOM     13  C   UNL     1      53.744   2.414  18.283  0.00  0.00    +0.000 A 
ATOM     14  C   UNL     1      52.762   3.344  18.572  0.00  0.00    +0.000 A 
ENDBRANCH   8   9
ENDBRANCH   5   8
ENDBRANCH   1   2
BRANCH   1  15
ATOM     15  N   UNL     1      47.289   6.962  13.903  0.00  0.00    +0.000 N 
ATOM     16  C   UNL     1      47.021   6.920  12.561  0.00  0.00    +0.000 C 
ATOM     17  O   UNL     1      47.844   7.313  11.735  0.00  0.00    +0.000 OA
ATOM     18  H   UNL     1      46.590   6.664  14.578  0.00  0.00    +0.000 HD
BRANCH  16  19
ATOM     19  C   UNL     1      45.718   6.381  12.140  0.00  0.00    +0.000 A 
ATOM     20  C   UNL     1      44.794   7.233  11.545  0.00  0.00    +0.000 A 
ATOM     21  S   UNL     1      43.333   6.476  11.107  0.00  0.00    +0.000 S 
ATOM     22  C   UNL     1      43.870   4.979  11.710  0.00  0.00    +0.000 A 
ATOM     23  N   UNL     1      43.066   3.880  11.650  0.00  0.00    +0.000 NA
ATOM     24  C   UNL     1      43.585   2.812  12.156  0.00  0.00    +0.000 A 
ATOM     25  N   UNL     1      44.834   2.741  12.713  0.00  0.00    +0.000 N 
ATOM     26  C   UNL     1      45.683   3.823  12.789  0.00  0.00    +0.000 A 
ATOM     27  O   UNL     1      46.793   3.717  13.292  0.00  0.00    +0.000 OA
ATOM     28  C   UNL     1      45.150   5.053  12.234  0.00  0.00    +0.000 A 
ATOM     29  H   UNL     1      45.184   1.872  13.091  0.00  0.00    +0.000 HD
ENDBRANCH  16  19
ENDBRANCH   1  15
BRANCH   1  30
ATOM     30  C   UNL     1      48.366   9.021  14.797  0.00  0.00    +0.000 C 
BRANCH  30  31
ATOM     31  N   UNL     1      47.562   9.275  16.000  0.00  0.00    +0.000 NA
ATOM     32  H   UNL     1      47.707  10.239  16.298  0.00  0.00    +0.000 HD
ATOM     33  H   UNL     1      47.911   8.693  16.762  0.00  0.00    +0.000 HD
ENDBRANCH  30  31
ENDBRANCH   1  30
TORSDOF 7
ENDMDL
MODEL 7
REMARK VINA RESULT:    -7.190      3.589      6.269
REMARK INTER + INTRA:         -10.493
REMARK INTER:                  -9.357
REMARK INTRA:                  -1.137
REMARK UNBOUND:                -0.571
REMARK  Name = 
REMARK  7 active torsions:
REMARK  status: ('A' for Active; 'I' for Inactive)
REMARK    1  A    between atoms: N_1  and  C_2
REMARK    2  A    between atoms: C_2  and  C_3
REMARK    3  A    between atoms: C_3  and  N_4
REMARK    4  A    between atoms: C_3  and  C_17
REMARK    5  A    between atoms: C_5  and  C_7
REMARK    6  A    between atoms: C_20  and  O_21
REMARK    7  A    between atoms: O_21  and  C_22
REMARK                            x       y       z     vdW  Elec       q    Type
REMARK                         _______ _______ _______ _____ _____    ______ ____
ROOT
ATOM      1  C   UNL     1      49.400   6.750  16.147  0.00  0.00    +0.000 C 
ENDROOT
BRANCH   1   2
ATOM      2  C   UNL     1      48.366   5.958  15.358  0.00  0.00    +0.000 A 
ATOM      3  C   UNL     1      47.762   4.857  15.985  0.00  0.00    +0.000 A 
ATOM      4  C   UNL     1      46.898   4.016  15.285  0.00  0.00    +0.000 A 
ATOM      5  C   UNL     1      46.556   4.297  13.962  0.00  0.00    +0.000 A 
ATOM      6  C   UNL     1      47.159   5.380  13.319  0.00  0.00    +0.000 A 
ATOM      7  C   UNL     1      48.066   6.198  14.007  0.00  0.00    +0.000 A 
BRANCH   5   8
ATOM      8  O   UNL     1      45.687   3.539  13.205  0.00  0.00    +0.000 OA
BRANCH   8   9
ATOM      9  C   UNL     1      44.702   4.167  12.475  0.00  0.00    +0.000 A 
ATOM     10  C   UNL     1      43.656   4.888  13.053  0.00  0.00    +0.000 A 
ATOM     11  C   UNL     1      42.692   5.417  12.216  0.00  0.00    +0.000 A 
ATOM     12  N   UNL     1      42.742   5.338  10.871  0.00  0.00    +0.000 NA
ATOM     13  C   UNL     1      43.809   4.702  10.338  0.00  0.00    +0.000 A 
ATOM     14  C   UNL     1      44.805   4.104  11.090  0.00  0.00    +0.000 A 
ENDBRANCH   8   9
ENDBRANCH   5   8
ENDBRANCH   1   2
BRANCH   1  15
ATOM     15  N   UNL     1      50.398   5.813  16.651  0.00  0.00    +0.000 N 
ATOM     16  C   UNL     1      50.523   5.509  17.980  0.00  0.00    +0.000 C 
ATOM     17  O   UNL     1      49.760   5.987  18.819  0.00  0.00    +0.000 OA
ATOM     18  H   UNL     1      51.053   5.438  15.972  0.00  0.00    +0.000 HD
BRANCH  16  19
ATOM     19  C   UNL     1      51.599   4.583  18.371  0.00  0.00    +0.000 A 
ATOM     20  C   UNL     1      52.646   5.055  19.154  0.00  0.00    +0.000 A 
ATOM     21  S   UNL     1      53.816   3.876  19.532  0.00  0.00    +0.000 S 
ATOM     22  C   UNL     1      52.977   2.688  18.650  0.00  0.00    +0.000 A 
ATOM     23  N   UNL     1      53.464   1.419  18.562  0.00  0.00    +0.000 NA
ATOM     24  C   UNL     1      52.742   0.620  17.851  0.00  0.00    +0.000 A 
ATOM     25  N   UNL     1      51.577   0.971  17.224  0.00  0.00    +0.000 N 
ATOM     26  C   UNL     1      51.043   2.240  17.292  0.00  0.00    +0.000 A 
ATOM     27  O   UNL     1      49.997   2.513  16.718  0.00  0.00    +0.000 OA
ATOM     28  C   UNL     1      51.816   3.182  18.079  0.00  0.00    +0.000 A 
ATOM     29  H   UNL     1      51.055   0.296  16.683  0.00  0.00    +0.000 HD
ENDBRANCH  16  19
ENDBRANCH   1  15
BRANCH   1  30
ATOM     30  C   UNL     1      50.070   7.943  15.404  0.00  0.00    +0.000 C 
BRANCH  30  31
ATOM     31  N   UNL     1      51.327   7.598  14.726  0.00  0.00    +0.000 NA
ATOM     32  H   UNL     1      51.388   6.584  14.636  0.00  0.00    +0.000 HD
ATOM     33  H   UNL     1      52.111   7.872  15.319  0.00  0.00    +0.000 HD
ENDBRANCH  30  31
ENDBRANCH   1  30
TORSDOF 7
ENDMDL
MODEL 8
REMARK VINA RESULT:    -7.174      2.932      4.104
REMARK INTER + INTRA:         -10.472
REMARK INTER:                  -9.063
REMARK INTRA:                  -1.409
REMARK UNBOUND:                -0.571
REMARK  Name = 
REMARK  7 active torsions:
REMARK  status: ('A' for Active; 'I' for Inactive)
REMARK    1  A    between atoms: N_1  and  C_2
REMARK    2  A    between atoms: C_2  and  C_3
REMARK    3  A    between atoms: C_3  and  N_4
REMARK    4  A    between atoms: C_3  and  C_17
REMARK    5  A    between atoms: C_5  and  C_7
REMARK    6  A    between atoms: C_20  and  O_21
REMARK    7  A    between atoms: O_21  and  C_22
REMARK                            x       y       z     vdW  Elec       q    Type
REMARK                         _______ _______ _______ _____ _____    ______ ____
ROOT
ATOM      1  C   UNL     1      47.856   4.988  15.262  0.00  0.00    +0.000 C 
ENDROOT
BRANCH   1   2
ATOM      2  C   UNL     1      46.964   4.880  14.033  0.00  0.00    +0.000 A 
ATOM      3  C   UNL     1      46.415   3.624  13.727  0.00  0.00    +0.000 A 
ATOM      4  C   UNL     1      45.690   3.423  12.554  0.00  0.00    +0.000 A 
ATOM      5  C   UNL     1      45.429   4.489  11.693  0.00  0.00    +0.000 A 
ATOM      6  C   UNL     1      45.980   5.741  11.974  0.00  0.00    +0.000 A 
ATOM      7  C   UNL     1      46.751   5.933  13.129  0.00  0.00    +0.000 A 
BRANCH   5   8
ATOM      8  O   UNL     1      44.696   4.388  10.529  0.00  0.00    +0.000 OA
BRANCH   8   9
ATOM      9  C   UNL     1      45.207   3.673   9.468  0.00  0.00    +0.000 A 
ATOM     10  C   UNL     1      45.162   2.281   9.386  0.00  0.00    +0.000 A 
ATOM     11  C   UNL     1      45.768   1.675   8.302  0.00  0.00    +0.000 A 
ATOM     12  N   UNL     1      46.338   2.354   7.286  0.00  0.00    +0.000 NA
ATOM     13  C   UNL     1      46.296   3.703   7.357  0.00  0.00    +0.000 A 
ATOM     14  C   UNL     1      45.749   4.403   8.417  0.00  0.00    +0.000 A 
ENDBRANCH   8   9
ENDBRANCH   5   8
ENDBRANCH   1   2
BRANCH   1  15
ATOM     15  N   UNL     1      47.859   6.380  15.698  0.00  0.00    +0.000 N 
ATOM     16  C   UNL     1      49.006   7.120  15.808  0.00  0.00    +0.000 C 
ATOM     17  O   UNL     1      50.100   6.648  15.500  0.00  0.00    +0.000 OA
ATOM     18  H   UNL     1      46.965   6.768  15.984  0.00  0.00    +0.000 HD
BRANCH  16  19
ATOM     19  C   UNL     1      48.884   8.501  16.302  0.00  0.00    +0.000 A 
ATOM     20  C   UNL     1      49.390   9.542  15.531  0.00  0.00    +0.000 A 
ATOM     21  S   UNL     1      49.176  11.084  16.223  0.00  0.00    +0.000 S 
ATOM     22  C   UNL     1      48.412  10.421  17.590  0.00  0.00    +0.000 A 
ATOM     23  N   UNL     1      47.978  11.227  18.599  0.00  0.00    +0.000 NA
ATOM     24  C   UNL     1      47.431  10.598  19.584  0.00  0.00    +0.000 A 
ATOM     25  N   UNL     1      47.274   9.240  19.652  0.00  0.00    +0.000 N 
ATOM     26  C   UNL     1      47.690   8.387  18.653  0.00  0.00    +0.000 A 
ATOM     27  O   UNL     1      47.529   7.178  18.751  0.00  0.00    +0.000 OA
ATOM     28  C   UNL     1      48.314   9.041  17.519  0.00  0.00    +0.000 A 
ATOM     29  H   UNL     1      46.833   8.808  20.452  0.00  0.00    +0.000 HD
ENDBRANCH  16  19
ENDBRANCH   1  15
BRANCH   1  30
ATOM     30  C   UNL     1      47.524   4.028  16.442  0.00  0.00    +0.000 C 
BRANCH  30  31
ATOM     31  N   UNL     1      46.797   4.666  17.549  0.00  0.00    +0.000 NA
ATOM     32  H   UNL     1      46.326   5.500  17.199  0.00  0.00    +0.000 HD
ATOM     33  H   UNL     1      47.469   4.997  18.241  0.00  0.00    +0.000 HD
ENDBRANCH  30  31
ENDBRANCH   1  30
TORSDOF 7
ENDMDL
MODEL 9
REMARK VINA RESULT:    -7.135      2.795      4.270
REMARK INTER + INTRA:         -10.418
REMARK INTER:                  -9.084
REMARK INTRA:                  -1.334
REMARK UNBOUND:                -0.571
REMARK  Name = 
REMARK  7 active torsions:
REMARK  status: ('A' for Active; 'I' for Inactive)
REMARK    1  A    between atoms: N_1  and  C_2
REMARK    2  A    between atoms: C_2  and  C_3
REMARK    3  A    between atoms: C_3  and  N_4
REMARK    4  A    between atoms: C_3  and  C_17
REMARK    5  A    between atoms: C_5  and  C_7
REMARK    6  A    between atoms: C_20  and  O_21
REMARK    7  A    between atoms: O_21  and  C_22
REMARK                            x       y       z     vdW  Elec       q    Type
REMARK                         _______ _______ _______ _____ _____    ______ ____
ROOT
ATOM      1  C   UNL     1      47.919   8.307  13.797  0.00  0.00    +0.000 C 
ENDROOT
BRANCH   1   2
ATOM      2  C   UNL     1      46.887   7.486  13.036  0.00  0.00    +0.000 A 
ATOM      3  C   UNL     1      46.914   6.091  13.190  0.00  0.00    +0.000 A 
ATOM      4  C   UNL     1      46.080   5.268  12.435  0.00  0.00    +0.000 A 
ATOM      5  C   UNL     1      45.146   5.822  11.560  0.00  0.00    +0.000 A 
ATOM      6  C   UNL     1      45.116   7.206  11.382  0.00  0.00    +0.000 A 
ATOM      7  C   UNL     1      45.988   8.032  12.107  0.00  0.00    +0.000 A 
BRANCH   5   8
ATOM      8  O   UNL     1      44.262   5.087  10.797  0.00  0.00    +0.000 OA
BRANCH   8   9
ATOM      9  C   UNL     1      44.751   4.174   9.889  0.00  0.00    +0.000 A 
ATOM     10  C   UNL     1      44.513   2.802   9.972  0.00  0.00    +0.000 A 
ATOM     11  C   UNL     1      45.114   1.980   9.036  0.00  0.00    +0.000 A 
ATOM     12  N   UNL     1      45.858   2.435   8.008  0.00  0.00    +0.000 NA
ATOM     13  C   UNL     1      46.005   3.775   7.910  0.00  0.00    +0.000 A 
ATOM     14  C   UNL     1      45.478   4.678   8.816  0.00  0.00    +0.000 A 
ENDBRANCH   8   9
ENDBRANCH   5   8
ENDBRANCH   1   2
BRANCH   1  15
ATOM     15  N   UNL     1      47.904   7.875  15.190  0.00  0.00    +0.000 N 
ATOM     16  C   UNL     1      48.276   8.692  16.224  0.00  0.00    +0.000 C 
ATOM     17  O   UNL     1      48.606   9.861  16.025  0.00  0.00    +0.000 OA
ATOM     18  H   UNL     1      47.664   6.903  15.361  0.00  0.00    +0.000 HD
BRANCH  16  19
ATOM     19  C   UNL     1      48.261   8.126  17.582  0.00  0.00    +0.000 A 
ATOM     20  C   UNL     1      47.867   8.930  18.646  0.00  0.00    +0.000 A 
ATOM     21  S   UNL     1      47.894   8.144  20.157  0.00  0.00    +0.000 S 
ATOM     22  C   UNL     1      48.450   6.699  19.452  0.00  0.00    +0.000 A 
ATOM     23  N   UNL     1      48.693   5.602  20.223  0.00  0.00    +0.000 NA
ATOM     24  C   UNL     1      49.125   4.577  19.569  0.00  0.00    +0.000 A 
ATOM     25  N   UNL     1      49.334   4.547  18.216  0.00  0.00    +0.000 N 
ATOM     26  C   UNL     1      49.095   5.629  17.397  0.00  0.00    +0.000 A 
ATOM     27  O   UNL     1      49.293   5.560  16.191  0.00  0.00    +0.000 OA
ATOM     28  C   UNL     1      48.607   6.811  18.081  0.00  0.00    +0.000 A 
ATOM     29  H   UNL     1      49.673   3.711  17.763  0.00  0.00    +0.000 HD
ENDBRANCH  16  19
ENDBRANCH   1  15
BRANCH   1  30
ATOM     30  C   UNL     1      49.366   8.303  13.221  0.00  0.00    +0.000 C 
BRANCH  30  31
ATOM     31  N   UNL     1      50.201   7.194  13.703  0.00  0.00    +0.000 NA
ATOM     32  H   UNL     1      50.325   6.521  12.948  0.00  0.00    +0.000 HD
ATOM     33  H   UNL     1      49.700   6.697  14.439  0.00  0.00    +0.000 HD
ENDBRANCH  30  31
ENDBRANCH   1  30
TORSDOF 7
ENDMDL
