MODEL 1
REMARK VINA RESULT:    -8.324      0.000      0.000
REMARK INTER + INTRA:         -12.954
REMARK INTER:                 -11.730
REMARK INTRA:                  -1.223
REMARK UNBOUND:                -1.223
REMARK  Name = 
REMARK  8 active torsions:
REMARK  status: ('A' for Active; 'I' for Inactive)
REMARK    1  A    between atoms: C_1  and  O_2
REMARK    2  A    between atoms: O_2  and  C_3
REMARK    3  A    between atoms: C_5  and  C_6
REMARK    4  A    between atoms: C_6  and  N_7
REMARK    5  A    between atoms: C_8  and  C_10
REMARK    6  A    between atoms: C_22  and  O_23
REMARK    7  A    between atoms: O_23  and  C_24
REMARK    8  A    between atoms: C_24  and  C_25
REMARK                            x       y       z     vdW  Elec       q    Type
REMARK                         _______ _______ _______ _____ _____    ______ ____
ROOT
ATOM      1  C   UNL     1      44.364   6.154  12.006  0.00  0.00    +0.000 A 
ATOM      2  C   UNL     1      45.094   6.986  12.869  0.00  0.00    +0.000 A 
ATOM      3  C   UNL     1      46.416   7.352  12.582  0.00  0.00    +0.000 A 
ATOM      4  C   UNL     1      46.991   6.916  11.389  0.00  0.00    +0.000 A 
ATOM      5  C   UNL     1      46.261   6.125  10.505  0.00  0.00    +0.000 A 
ATOM      6  C   UNL     1      44.931   5.773  10.777  0.00  0.00    +0.000 A 
ENDROOT
BRANCH   1   8
ATOM      7  C   UNL     1      43.019   4.678  13.265  0.00  0.00    +0.000 C 
ATOM      8  O   UNL     1      43.086   5.741  12.307  0.00  0.00    +0.000 OA
ENDBRANCH   1   8
BRANCH   3   9
ATOM      9  C   UNL     1      47.194   8.213  13.539  0.00  0.00    +0.000 C 
BRANCH   9  10
ATOM     10  N   UNL     1      47.598   7.469  14.700  0.00  0.00    +0.000 N 
ATOM     11  C   UNL     1      48.827   6.864  14.761  0.00  0.00    +0.000 C 
ATOM     12  O   UNL     1      49.644   6.959  13.848  0.00  0.00    +0.000 OA
ATOM     13  H   UNL     1      46.868   7.180  15.344  0.00  0.00    +0.000 HD
BRANCH  11  14
ATOM     14  C   UNL     1      49.144   6.152  16.004  0.00  0.00    +0.000 A 
ATOM     15  C   UNL     1      50.218   6.569  16.781  0.00  0.00    +0.000 A 
ATOM     16  S   UNL     1      50.407   5.675  18.221  0.00  0.00    +0.000 S 
ATOM     17  C   UNL     1      49.097   4.663  17.830  0.00  0.00    +0.000 A 
ATOM     18  N   UNL     1      48.733   3.642  18.651  0.00  0.00    +0.000 NA
ATOM     19  C   UNL     1      47.742   2.936  18.221  0.00  0.00    +0.000 A 
ATOM     20  N   UNL     1      47.079   3.159  17.043  0.00  0.00    +0.000 N 
ATOM     21  C   UNL     1      47.391   4.193  16.196  0.00  0.00    +0.000 A 
ATOM     22  O   UNL     1      46.754   4.390  15.170  0.00  0.00    +0.000 OA
ATOM     23  C   UNL     1      48.512   5.012  16.628  0.00  0.00    +0.000 A 
ATOM     24  H   UNL     1      46.305   2.574  16.763  0.00  0.00    +0.000 HD
ENDBRANCH  11  14
ENDBRANCH   9  10
ENDBRANCH   3   9
BRANCH   6  25
ATOM     25  O   UNL     1      44.163   5.058   9.882  0.00  0.00    +0.000 OA
BRANCH  25  26
ATOM     26  C   UNL     1      44.363   3.633   9.933  0.00  0.00    +0.000 C 
BRANCH  26  27
ATOM     27  C   UNL     1      45.292   3.122   8.854  0.00  0.00    +0.000 A 
ATOM     28  C   UNL     1      45.611   1.773   8.771  0.00  0.00    +0.000 A 
ATOM     29  C   UNL     1      46.379   1.346   7.700  0.00  0.00    +0.000 A 
ATOM     30 CL   UNL     1      46.793  -0.318   7.565  0.00  0.00    +0.000 Cl
ATOM     31  C   UNL     1      46.803   2.242   6.730  0.00  0.00    +0.000 A 
ATOM     32  C   UNL     1      46.429   3.563   6.874  0.00  0.00    +0.000 A 
ATOM     33  N   UNL     1      45.682   4.018   7.903  0.00  0.00    +0.000 NA
ENDBRANCH  26  27
ENDBRANCH  25  26
ENDBRANCH   6  25
TORSDOF 7
ENDMDL
MODEL 2
REMARK VINA RESULT:    -7.922      1.938      2.443
REMARK INTER + INTRA:         -12.387
REMARK INTER:                 -11.101
REMARK INTRA:                  -1.286
REMARK UNBOUND:                -1.223
REMARK  Name = 
REMARK  8 active torsions:
REMARK  status: ('A' for Active; 'I' for Inactive)
REMARK    1  A    between atoms: C_1  and  O_2
REMARK    2  A    between atoms: O_2  and  C_3
REMARK    3  A    between atoms: C_5  and  C_6
REMARK    4  A    between atoms: C_6  and  N_7
REMARK    5  A    between atoms: C_8  and  C_10
REMARK    6  A    between atoms: C_22  and  O_23
REMARK    7  A    between atoms: O_23  and  C_24
REMARK    8  A    between atoms: C_24  and  C_25
REMARK                            x       y       z     vdW  Elec       q    Type
REMARK                         _______ _______ _______ _____ _____    ______ ____
ROOT
ATOM      1  C   UNL     1      46.095   4.739  12.788  0.00  0.00    +0.000 A 
ATOM      2  C   UNL     1      46.679   5.890  13.340  0.00  0.00    +0.000 A 
ATOM      3  C   UNL     1      46.503   7.150  12.751  0.00  0.00    +0.000 A 
ATOM      4  C   UNL     1      45.690   7.258  11.625  0.00  0.00    +0.000 A 
ATOM      5  C   UNL     1      45.071   6.129  11.093  0.00  0.00    +0.000 A 
ATOM      6  C   UNL     1      45.226   4.870  11.690  0.00  0.00    +0.000 A 
ENDROOT
BRANCH   1   8
ATOM      7  C   UNL     1      47.178   3.474  14.461  0.00  0.00    +0.000 C 
ATOM      8  O   UNL     1      46.309   3.489  13.323  0.00  0.00    +0.000 OA
ENDBRANCH   1   8
BRANCH   3   9
ATOM      9  C   UNL     1      47.170   8.364  13.337  0.00  0.00    +0.000 C 
BRANCH   9  10
ATOM     10  N   UNL     1      47.450   8.183  14.735  0.00  0.00    +0.000 N 
ATOM     11  C   UNL     1      48.328   9.006  15.393  0.00  0.00    +0.000 C 
ATOM     12  O   UNL     1      48.882   9.948  14.831  0.00  0.00    +0.000 OA
ATOM     13  H   UNL     1      47.202   7.289  15.147  0.00  0.00    +0.000 HD
BRANCH  11  14
ATOM     14  C   UNL     1      48.521   8.745  16.824  0.00  0.00    +0.000 A 
ATOM     15  C   UNL     1      48.289   9.758  17.745  0.00  0.00    +0.000 A 
ATOM     16  S   UNL     1      48.497   9.269  19.365  0.00  0.00    +0.000 S 
ATOM     17  C   UNL     1      48.961   7.704  18.891  0.00  0.00    +0.000 A 
ATOM     18  N   UNL     1      49.308   6.767  19.815  0.00  0.00    +0.000 NA
ATOM     19  C   UNL     1      49.666   5.631  19.317  0.00  0.00    +0.000 A 
ATOM     20  N   UNL     1      49.707   5.345  17.978  0.00  0.00    +0.000 N 
ATOM     21  C   UNL     1      49.339   6.247  17.011  0.00  0.00    +0.000 A 
ATOM     22  O   UNL     1      49.348   5.947  15.824  0.00  0.00    +0.000 OA
ATOM     23  C   UNL     1      48.940   7.549  17.518  0.00  0.00    +0.000 A 
ATOM     24  H   UNL     1      49.991   4.433  17.650  0.00  0.00    +0.000 HD
ENDBRANCH  11  14
ENDBRANCH   9  10
ENDBRANCH   3   9
BRANCH   6  25
ATOM     25  O   UNL     1      44.562   3.752  11.230  0.00  0.00    +0.000 OA
BRANCH  25  26
ATOM     26  C   UNL     1      44.156   3.828   9.851  0.00  0.00    +0.000 C 
BRANCH  26  27
ATOM     27  C   UNL     1      45.204   3.312   8.890  0.00  0.00    +0.000 A 
ATOM     28  C   UNL     1      45.482   1.954   8.803  0.00  0.00    +0.000 A 
ATOM     29  C   UNL     1      46.373   1.529   7.831  0.00  0.00    +0.000 A 
ATOM     30 CL   UNL     1      46.740  -0.146   7.692  0.00  0.00    +0.000 Cl
ATOM     31  C   UNL     1      46.960   2.436   6.961  0.00  0.00    +0.000 A 
ATOM     32  C   UNL     1      46.619   3.766   7.101  0.00  0.00    +0.000 A 
ATOM     33  N   UNL     1      45.755   4.220   8.035  0.00  0.00    +0.000 NA
ENDBRANCH  26  27
ENDBRANCH  25  26
ENDBRANCH   6  25
TORSDOF 7
ENDMDL
MODEL 3
REMARK VINA RESULT:    -7.909      2.230      3.455
REMARK INTER + INTRA:         -12.368
REMARK INTER:                 -11.207
REMARK INTRA:                  -1.161
REMARK UNBOUND:                -1.223
REMARK  Name = 
REMARK  8 active torsions:
REMARK  status: ('A' for Active; 'I' for Inactive)
REMARK    1  A    between atoms: C_1  and  O_2
REMARK    2  A    between atoms: O_2  and  C_3
REMARK    3  A    between atoms: C_5  and  C_6
REMARK    4  A    between atoms: C_6  and  N_7
REMARK    5  A    between atoms: C_8  and  C_10
REMARK    6  A    between atoms: C_22  and  O_23
REMARK    7  A    between atoms: O_23  and  C_24
REMARK    8  A    between atoms: C_24  and  C_25
REMARK                            x       y       z     vdW  Elec       q    Type
REMARK                         _______ _______ _______ _____ _____    ______ ____
ROOT
ATOM      1  C   UNL     1      45.784   5.914  12.312  0.00  0.00    +0.000 A 
ATOM      2  C   UNL     1      46.563   5.629  13.444  0.00  0.00    +0.000 A 
ATOM      3  C   UNL     1      46.691   4.321  13.929  0.00  0.00    +0.000 A 
ATOM      4  C   UNL     1      46.069   3.283  13.238  0.00  0.00    +0.000 A 
ATOM      5  C   UNL     1      45.328   3.548  12.088  0.00  0.00    +0.000 A 
ATOM      6  C   UNL     1      45.213   4.852  11.586  0.00  0.00    +0.000 A 
ENDROOT
BRANCH   1   8
ATOM      7  C   UNL     1      45.655   8.200  12.887  0.00  0.00    +0.000 C 
ATOM      8  O   UNL     1      45.603   7.202  11.861  0.00  0.00    +0.000 OA
ENDBRANCH   1   8
BRANCH   3   9
ATOM      9  C   UNL     1      47.500   4.043  15.166  0.00  0.00    +0.000 C 
BRANCH   9  10
ATOM     10  N   UNL     1      47.557   5.195  16.023  0.00  0.00    +0.000 N 
ATOM     11  C   UNL     1      48.654   5.439  16.808  0.00  0.00    +0.000 C 
ATOM     12  O   UNL     1      49.643   4.710  16.789  0.00  0.00    +0.000 OA
ATOM     13  H   UNL     1      46.680   5.662  16.233  0.00  0.00    +0.000 HD
BRANCH  11  14
ATOM     14  C   UNL     1      48.615   6.657  17.626  0.00  0.00    +0.000 A 
ATOM     15  C   UNL     1      48.597   6.556  19.011  0.00  0.00    +0.000 A 
ATOM     16  S   UNL     1      48.617   8.064  19.806  0.00  0.00    +0.000 S 
ATOM     17  C   UNL     1      48.592   8.905  18.329  0.00  0.00    +0.000 A 
ATOM     18  N   UNL     1      48.571  10.265  18.300  0.00  0.00    +0.000 NA
ATOM     19  C   UNL     1      48.524  10.774  17.114  0.00  0.00    +0.000 A 
ATOM     20  N   UNL     1      48.499  10.047  15.954  0.00  0.00    +0.000 N 
ATOM     21  C   UNL     1      48.548   8.675  15.933  0.00  0.00    +0.000 A 
ATOM     22  O   UNL     1      48.564   8.055  14.877  0.00  0.00    +0.000 OA
ATOM     23  C   UNL     1      48.587   8.050  17.244  0.00  0.00    +0.000 A 
ATOM     24  H   UNL     1      48.468  10.505  15.054  0.00  0.00    +0.000 HD
ENDBRANCH  11  14
ENDBRANCH   9  10
ENDBRANCH   3   9
BRANCH   6  25
ATOM     25  O   UNL     1      44.552   5.131  10.408  0.00  0.00    +0.000 OA
BRANCH  25  26
ATOM     26  C   UNL     1      44.152   3.966   9.662  0.00  0.00    +0.000 C 
BRANCH  26  27
ATOM     27  C   UNL     1      45.249   3.418   8.776  0.00  0.00    +0.000 A 
ATOM     28  C   UNL     1      45.483   2.052   8.696  0.00  0.00    +0.000 A 
ATOM     29  C   UNL     1      46.428   1.601   7.789  0.00  0.00    +0.000 A 
ATOM     30 CL   UNL     1      46.743  -0.086   7.661  0.00  0.00    +0.000 Cl
ATOM     31  C   UNL     1      47.108   2.492   6.972  0.00  0.00    +0.000 A 
ATOM     32  C   UNL     1      46.806   3.833   7.099  0.00  0.00    +0.000 A 
ATOM     33  N   UNL     1      45.893   4.311   7.972  0.00  0.00    +0.000 NA
ENDBRANCH  26  27
ENDBRANCH  25  26
ENDBRANCH   6  25
TORSDOF 7
ENDMDL
MODEL 4
REMARK VINA RESULT:    -7.177      2.112      2.847
REMARK INTER + INTRA:         -11.337
REMARK INTER:                  -9.813
REMARK INTRA:                  -1.524
REMARK UNBOUND:                -1.223
REMARK  Name = 
REMARK  8 active torsions:
REMARK  status: ('A' for Active; 'I' for Inactive)
REMARK    1  A    between atoms: C_1  and  O_2
REMARK    2  A    between atoms: O_2  and  C_3
REMARK    3  A    between atoms: C_5  and  C_6
REMARK    4  A    between atoms: C_6  and  N_7
REMARK    5  A    between atoms: C_8  and  C_10
REMARK    6  A    between atoms: C_22  and  O_23
REMARK    7  A    between atoms: O_23  and  C_24
REMARK    8  A    between atoms: C_24  and  C_25
REMARK                            x       y       z     vdW  Elec       q    Type
REMARK                         _______ _______ _______ _____ _____    ______ ____
ROOT
ATOM      1  C   UNL     1      46.306   5.440  12.903  0.00  0.00    +0.000 A 
ATOM      2  C   UNL     1      47.538   6.085  13.095  0.00  0.00    +0.000 A 
ATOM      3  C   UNL     1      47.739   7.409  12.682  0.00  0.00    +0.000 A 
ATOM      4  C   UNL     1      46.672   8.106  12.116  0.00  0.00    +0.000 A 
ATOM      5  C   UNL     1      45.433   7.489  11.960  0.00  0.00    +0.000 A 
ATOM      6  C   UNL     1      45.221   6.172  12.389  0.00  0.00    +0.000 A 
ENDROOT
BRANCH   1   8
ATOM      7  C   UNL     1      47.083   3.608  14.174  0.00  0.00    +0.000 C 
ATOM      8  O   UNL     1      46.116   4.122  13.250  0.00  0.00    +0.000 OA
ENDBRANCH   1   8
BRANCH   3   9
ATOM      9  C   UNL     1      49.078   8.068  12.862  0.00  0.00    +0.000 C 
BRANCH   9  10
ATOM     10  N   UNL     1      49.897   7.341  13.792  0.00  0.00    +0.000 N 
ATOM     11  C   UNL     1      50.619   7.993  14.759  0.00  0.00    +0.000 C 
ATOM     12  O   UNL     1      50.571   9.213  14.895  0.00  0.00    +0.000 OA
ATOM     13  H   UNL     1      50.138   6.385  13.550  0.00  0.00    +0.000 HD
BRANCH  11  14
ATOM     14  C   UNL     1      51.402   7.149  15.670  0.00  0.00    +0.000 A 
ATOM     15  C   UNL     1      52.786   7.268  15.697  0.00  0.00    +0.000 A 
ATOM     16  S   UNL     1      53.534   6.263  16.854  0.00  0.00    +0.000 S 
ATOM     17  C   UNL     1      52.042   5.594  17.319  0.00  0.00    +0.000 A 
ATOM     18  N   UNL     1      51.977   4.628  18.274  0.00  0.00    +0.000 NA
ATOM     19  C   UNL     1      50.786   4.187  18.510  0.00  0.00    +0.000 A 
ATOM     20  N   UNL     1      49.653   4.627  17.878  0.00  0.00    +0.000 N 
ATOM     21  C   UNL     1      49.666   5.619  16.929  0.00  0.00    +0.000 A 
ATOM     22  O   UNL     1      48.631   6.017  16.411  0.00  0.00    +0.000 OA
ATOM     23  C   UNL     1      50.986   6.140  16.615  0.00  0.00    +0.000 A 
ATOM     24  H   UNL     1      48.747   4.247  18.111  0.00  0.00    +0.000 HD
ENDBRANCH  11  14
ENDBRANCH   9  10
ENDBRANCH   3   9
BRANCH   6  25
ATOM     25  O   UNL     1      43.983   5.566  12.318  0.00  0.00    +0.000 OA
BRANCH  25  26
ATOM     26  C   UNL     1      43.429   5.503  10.991  0.00  0.00    +0.000 C 
BRANCH  26  27
ATOM     27  C   UNL     1      44.016   4.390  10.151  0.00  0.00    +0.000 A 
ATOM     28  C   UNL     1      44.932   4.667   9.145  0.00  0.00    +0.000 A 
ATOM     29  C   UNL     1      45.517   3.601   8.481  0.00  0.00    +0.000 A 
ATOM     30 CL   UNL     1      46.658   3.905   7.229  0.00  0.00    +0.000 Cl
ATOM     31  C   UNL     1      45.205   2.294   8.823  0.00  0.00    +0.000 A 
ATOM     32  C   UNL     1      44.297   2.102   9.846  0.00  0.00    +0.000 A 
ATOM     33  N   UNL     1      43.706   3.114  10.517  0.00  0.00    +0.000 NA
ENDBRANCH  26  27
ENDBRANCH  25  26
ENDBRANCH   6  25
TORSDOF 7
ENDMDL
MODEL 5
REMARK VINA RESULT:    -7.121      2.341      3.281
REMARK INTER + INTRA:         -11.258
REMARK INTER:                 -10.198
REMARK INTRA:                  -1.060
REMARK UNBOUND:                -1.223
REMARK  Name = 
REMARK  8 active torsions:
REMARK  status: ('A' for Active; 'I' for Inactive)
REMARK    1  A    between atoms: C_1  and  O_2
REMARK    2  A    between atoms: O_2  and  C_3
REMARK    3  A    between atoms: C_5  and  C_6
REMARK    4  A    between atoms: C_6  and  N_7
REMARK    5  A    between atoms: C_8  and  C_10
REMARK    6  A    between atoms: C_22  and  O_23
REMARK    7  A    between atoms: O_23  and  C_24
REMARK    8  A    between atoms: C_24  and  C_25
REMARK                            x       y       z     vdW  Elec       q    Type
REMARK                         _______ _______ _______ _____ _____    ______ ____
ROOT
ATOM      1  C   UNL     1      46.869   6.041  12.063  0.00  0.00    +0.000 A 
ATOM      2  C   UNL     1      47.012   5.725  13.423  0.00  0.00    +0.000 A 
ATOM      3  C   UNL     1      46.235   4.726  14.024  0.00  0.00    +0.000 A 
ATOM      4  C   UNL     1      45.342   4.003  13.235  0.00  0.00    +0.000 A 
ATOM      5  C   UNL     1      45.223   4.279  11.875  0.00  0.00    +0.000 A 
ATOM      6  C   UNL     1      46.011   5.264  11.264  0.00  0.00    +0.000 A 
ENDROOT
BRANCH   1   8
ATOM      7  C   UNL     1      48.745   7.467  12.210  0.00  0.00    +0.000 C 
ATOM      8  O   UNL     1      47.584   7.061  11.477  0.00  0.00    +0.000 OA
ENDBRANCH   1   8
BRANCH   3   9
ATOM      9  C   UNL     1      46.377   4.429  15.491  0.00  0.00    +0.000 C 
BRANCH   9  10
ATOM     10  N   UNL     1      47.759   4.353  15.878  0.00  0.00    +0.000 N 
ATOM     11  C   UNL     1      48.168   4.752  17.124  0.00  0.00    +0.000 C 
ATOM     12  O   UNL     1      47.374   5.155  17.971  0.00  0.00    +0.000 OA
ATOM     13  H   UNL     1      48.445   4.258  15.135  0.00  0.00    +0.000 HD
BRANCH  11  14
ATOM     14  C   UNL     1      49.599   4.608  17.420  0.00  0.00    +0.000 A 
ATOM     15  C   UNL     1      50.341   5.725  17.782  0.00  0.00    +0.000 A 
ATOM     16  S   UNL     1      51.968   5.372  18.153  0.00  0.00    +0.000 S 
ATOM     17  C   UNL     1      51.751   3.725  17.788  0.00  0.00    +0.000 A 
ATOM     18  N   UNL     1      52.787   2.848  17.875  0.00  0.00    +0.000 NA
ATOM     19  C   UNL     1      52.492   1.636  17.542  0.00  0.00    +0.000 A 
ATOM     20  N   UNL     1      51.253   1.220  17.130  0.00  0.00    +0.000 N 
ATOM     21  C   UNL     1      50.172   2.062  17.054  0.00  0.00    +0.000 A 
ATOM     22  O   UNL     1      49.068   1.652  16.720  0.00  0.00    +0.000 OA
ATOM     23  C   UNL     1      50.454   3.444  17.405  0.00  0.00    +0.000 A 
ATOM     24  H   UNL     1      51.083   0.255  16.888  0.00  0.00    +0.000 HD
ENDBRANCH  11  14
ENDBRANCH   9  10
ENDBRANCH   3   9
BRANCH   6  25
ATOM     25  O   UNL     1      45.969   5.502   9.906  0.00  0.00    +0.000 OA
BRANCH  25  26
ATOM     26  C   UNL     1      44.960   4.753   9.203  0.00  0.00    +0.000 C 
BRANCH  26  27
ATOM     27  C   UNL     1      45.516   3.567   8.446  0.00  0.00    +0.000 A 
ATOM     28  C   UNL     1      46.238   3.747   7.274  0.00  0.00    +0.000 A 
ATOM     29  C   UNL     1      46.813   2.635   6.682  0.00  0.00    +0.000 A 
ATOM     30 CL   UNL     1      47.716   2.820   5.228  0.00  0.00    +0.000 Cl
ATOM     31  C   UNL     1      46.683   1.379   7.254  0.00  0.00    +0.000 A 
ATOM     32  C   UNL     1      45.965   1.286   8.430  0.00  0.00    +0.000 A 
ATOM     33  N   UNL     1      45.389   2.345   9.037  0.00  0.00    +0.000 NA
ENDBRANCH  26  27
ENDBRANCH  25  26
ENDBRANCH   6  25
TORSDOF 7
ENDMDL
MODEL 6
REMARK VINA RESULT:    -6.913      2.370      3.595
REMARK INTER + INTRA:         -10.966
REMARK INTER:                  -9.798
REMARK INTRA:                  -1.168
REMARK UNBOUND:                -1.223
REMARK  Name = 
REMARK  8 active torsions:
REMARK  status: ('A' for Active; 'I' for Inactive)
REMARK    1  A    between atoms: C_1  and  O_2
REMARK    2  A    between atoms: O_2  and  C_3
REMARK    3  A    between atoms: C_5  and  C_6
REMARK    4  A    between atoms: C_6  and  N_7
REMARK    5  A    between atoms: C_8  and  C_10
REMARK    6  A    between atoms: C_22  and  O_23
REMARK    7  A    between atoms: O_23  and  C_24
REMARK    8  A    between atoms: C_24  and  C_25
REMARK                            x       y       z     vdW  Elec       q    Type
REMARK                         _______ _______ _______ _____ _____    ______ ____
ROOT
ATOM      1  C   UNL     1      45.722   4.991  12.846  0.00  0.00    +0.000 A 
ATOM      2  C   UNL     1      46.402   6.063  13.445  0.00  0.00    +0.000 A 
ATOM      3  C   UNL     1      46.463   7.321  12.831  0.00  0.00    +0.000 A 
ATOM      4  C   UNL     1      45.789   7.515  11.627  0.00  0.00    +0.000 A 
ATOM      5  C   UNL     1      45.075   6.470  11.045  0.00  0.00    +0.000 A 
ATOM      6  C   UNL     1      44.994   5.215  11.664  0.00  0.00    +0.000 A 
ENDROOT
BRANCH   1   8
ATOM      7  C   UNL     1      46.988   3.266  13.843  0.00  0.00    +0.000 C 
ATOM      8  O   UNL     1      45.706   3.736  13.410  0.00  0.00    +0.000 OA
ENDBRANCH   1   8
BRANCH   3   9
ATOM      9  C   UNL     1      47.230   8.445  13.471  0.00  0.00    +0.000 C 
BRANCH   9  10
ATOM     10  N   UNL     1      48.490   7.989  13.990  0.00  0.00    +0.000 N 
ATOM     11  C   UNL     1      48.860   8.252  15.284  0.00  0.00    +0.000 C 
ATOM     12  O   UNL     1      48.123   8.854  16.061  0.00  0.00    +0.000 OA
ATOM     13  H   UNL     1      49.198   7.712  13.316  0.00  0.00    +0.000 HD
BRANCH  11  14
ATOM     14  C   UNL     1      50.157   7.718  15.715  0.00  0.00    +0.000 A 
ATOM     15  C   UNL     1      50.242   6.985  16.892  0.00  0.00    +0.000 A 
ATOM     16  S   UNL     1      51.806   6.385  17.211  0.00  0.00    +0.000 S 
ATOM     17  C   UNL     1      52.436   7.131  15.820  0.00  0.00    +0.000 A 
ATOM     18  N   UNL     1      53.757   7.031  15.510  0.00  0.00    +0.000 NA
ATOM     19  C   UNL     1      54.107   7.669  14.443  0.00  0.00    +0.000 A 
ATOM     20  N   UNL     1      53.254   8.396  13.655  0.00  0.00    +0.000 N 
ATOM     21  C   UNL     1      51.910   8.502  13.911  0.00  0.00    +0.000 A 
ATOM     22  O   UNL     1      51.167   9.127  13.165  0.00  0.00    +0.000 OA
ATOM     23  C   UNL     1      51.465   7.813  15.111  0.00  0.00    +0.000 A 
ATOM     24  H   UNL     1      53.588   8.869  12.827  0.00  0.00    +0.000 HD
ENDBRANCH  11  14
ENDBRANCH   9  10
ENDBRANCH   3   9
BRANCH   6  25
ATOM     25  O   UNL     1      44.229   4.189  11.148  0.00  0.00    +0.000 OA
BRANCH  25  26
ATOM     26  C   UNL     1      43.990   4.281   9.732  0.00  0.00    +0.000 C 
BRANCH  26  27
ATOM     27  C   UNL     1      45.109   3.697   8.898  0.00  0.00    +0.000 A 
ATOM     28  C   UNL     1      45.304   2.324   8.831  0.00  0.00    +0.000 A 
ATOM     29  C   UNL     1      46.275   1.841   7.969  0.00  0.00    +0.000 A 
ATOM     30 CL   UNL     1      46.543   0.145   7.859  0.00  0.00    +0.000 Cl
ATOM     31  C   UNL     1      47.020   2.707   7.183  0.00  0.00    +0.000 A 
ATOM     32  C   UNL     1      46.754   4.058   7.294  0.00  0.00    +0.000 A 
ATOM     33  N   UNL     1      45.817   4.567   8.123  0.00  0.00    +0.000 NA
ENDBRANCH  26  27
ENDBRANCH  25  26
ENDBRANCH   6  25
TORSDOF 7
ENDMDL
MODEL 7
REMARK VINA RESULT:    -6.880      4.398      8.566
REMARK INTER + INTRA:         -10.919
REMARK INTER:                  -9.750
REMARK INTRA:                  -1.169
REMARK UNBOUND:                -1.223
REMARK  Name = 
REMARK  8 active torsions:
REMARK  status: ('A' for Active; 'I' for Inactive)
REMARK    1  A    between atoms: C_1  and  O_2
REMARK    2  A    between atoms: O_2  and  C_3
REMARK    3  A    between atoms: C_5  and  C_6
REMARK    4  A    between atoms: C_6  and  N_7
REMARK    5  A    between atoms: C_8  and  C_10
REMARK    6  A    between atoms: C_22  and  O_23
REMARK    7  A    between atoms: O_23  and  C_24
REMARK    8  A    between atoms: C_24  and  C_25
REMARK                            x       y       z     vdW  Elec       q    Type
REMARK                         _______ _______ _______ _____ _____    ______ ____
ROOT
ATOM      1  C   UNL     1      49.190   4.801  17.567  0.00  0.00    +0.000 A 
ATOM      2  C   UNL     1      48.705   5.839  16.757  0.00  0.00    +0.000 A 
ATOM      3  C   UNL     1      49.575   6.751  16.143  0.00  0.00    +0.000 A 
ATOM      4  C   UNL     1      50.949   6.584  16.306  0.00  0.00    +0.000 A 
ATOM      5  C   UNL     1      51.443   5.531  17.073  0.00  0.00    +0.000 A 
ATOM      6  C   UNL     1      50.579   4.605  17.673  0.00  0.00    +0.000 A 
ENDROOT
BRANCH   1   8
ATOM      7  C   UNL     1      47.474   3.193  17.361  0.00  0.00    +0.000 C 
ATOM      8  O   UNL     1      48.343   3.937  18.223  0.00  0.00    +0.000 OA
ENDBRANCH   1   8
BRANCH   3   9
ATOM      9  C   UNL     1      49.032   7.879  15.310  0.00  0.00    +0.000 C 
BRANCH   9  10
ATOM     10  N   UNL     1      47.850   7.481  14.597  0.00  0.00    +0.000 N 
ATOM     11  C   UNL     1      47.935   6.825  13.396  0.00  0.00    +0.000 C 
ATOM     12  O   UNL     1      49.015   6.521  12.896  0.00  0.00    +0.000 OA
ATOM     13  H   UNL     1      46.976   7.925  14.862  0.00  0.00    +0.000 HD
BRANCH  11  14
ATOM     14  C   UNL     1      46.664   6.444  12.768  0.00  0.00    +0.000 A 
ATOM     15  C   UNL     1      45.869   7.419  12.180  0.00  0.00    +0.000 A 
ATOM     16  S   UNL     1      44.462   6.799  11.441  0.00  0.00    +0.000 S 
ATOM     17  C   UNL     1      44.838   5.215  11.930  0.00  0.00    +0.000 A 
ATOM     18  N   UNL     1      44.008   4.177  11.637  0.00  0.00    +0.000 NA
ATOM     19  C   UNL     1      44.399   3.034  12.093  0.00  0.00    +0.000 A 
ATOM     20  N   UNL     1      45.546   2.833  12.814  0.00  0.00    +0.000 N 
ATOM     21  C   UNL     1      46.427   3.842  13.110  0.00  0.00    +0.000 A 
ATOM     22  O   UNL     1      47.464   3.623  13.723  0.00  0.00    +0.000 OA
ATOM     23  C   UNL     1      46.027   5.155  12.632  0.00  0.00    +0.000 A 
ATOM     24  H   UNL     1      45.800   1.911  13.139  0.00  0.00    +0.000 HD
ENDBRANCH  11  14
ENDBRANCH   9  10
ENDBRANCH   3   9
BRANCH   6  25
ATOM     25  O   UNL     1      51.045   3.510  18.371  0.00  0.00    +0.000 OA
BRANCH  25  26
ATOM     26  C   UNL     1      51.526   2.437  17.540  0.00  0.00    +0.000 C 
BRANCH  26  27
ATOM     27  C   UNL     1      52.753   1.752  18.101  0.00  0.00    +0.000 A 
ATOM     28  C   UNL     1      53.203   0.552  17.567  0.00  0.00    +0.000 A 
ATOM     29  C   UNL     1      54.391   0.026  18.048  0.00  0.00    +0.000 A 
ATOM     30 CL   UNL     1      54.981  -1.459  17.410  0.00  0.00    +0.000 Cl
ATOM     31  C   UNL     1      55.117   0.691  19.025  0.00  0.00    +0.000 A 
ATOM     32  C   UNL     1      54.611   1.888  19.492  0.00  0.00    +0.000 A 
ATOM     33  N   UNL     1      53.458   2.432  19.049  0.00  0.00    +0.000 NA
ENDBRANCH  26  27
ENDBRANCH  25  26
ENDBRANCH   6  25
TORSDOF 7
ENDMDL
MODEL 8
REMARK VINA RESULT:    -6.554      4.173      9.101
REMARK INTER + INTRA:         -10.459
REMARK INTER:                  -8.943
REMARK INTRA:                  -1.516
REMARK UNBOUND:                -1.223
REMARK  Name = 
REMARK  8 active torsions:
REMARK  status: ('A' for Active; 'I' for Inactive)
REMARK    1  A    between atoms: C_1  and  O_2
REMARK    2  A    between atoms: O_2  and  C_3
REMARK    3  A    between atoms: C_5  and  C_6
REMARK    4  A    between atoms: C_6  and  N_7
REMARK    5  A    between atoms: C_8  and  C_10
REMARK    6  A    between atoms: C_22  and  O_23
REMARK    7  A    between atoms: O_23  and  C_24
REMARK    8  A    between atoms: C_24  and  C_25
REMARK                            x       y       z     vdW  Elec       q    Type
REMARK                         _______ _______ _______ _____ _____    ______ ____
ROOT
ATOM      1  C   UNL     1      50.245   4.842  18.442  0.00  0.00    +0.000 A 
ATOM      2  C   UNL     1      48.919   4.635  18.032  0.00  0.00    +0.000 A 
ATOM      3  C   UNL     1      48.549   3.491  17.313  0.00  0.00    +0.000 A 
ATOM      4  C   UNL     1      49.515   2.520  17.049  0.00  0.00    +0.000 A 
ATOM      5  C   UNL     1      50.825   2.695  17.489  0.00  0.00    +0.000 A 
ATOM      6  C   UNL     1      51.196   3.828  18.226  0.00  0.00    +0.000 A 
ENDROOT
BRANCH   1   8
ATOM      7  C   UNL     1      50.323   7.201  18.397  0.00  0.00    +0.000 C 
ATOM      8  O   UNL     1      50.631   5.989  19.097  0.00  0.00    +0.000 OA
ENDBRANCH   1   8
BRANCH   3   9
ATOM      9  C   UNL     1      47.131   3.307  16.849  0.00  0.00    +0.000 C 
BRANCH   9  10
ATOM     10  N   UNL     1      46.755   4.322  15.903  0.00  0.00    +0.000 N 
ATOM     11  C   UNL     1      46.876   4.111  14.554  0.00  0.00    +0.000 C 
ATOM     12  O   UNL     1      47.273   3.043  14.095  0.00  0.00    +0.000 OA
ATOM     13  H   UNL     1      46.660   5.271  16.253  0.00  0.00    +0.000 HD
BRANCH  11  14
ATOM     14  C   UNL     1      46.440   5.207  13.679  0.00  0.00    +0.000 A 
ATOM     15  C   UNL     1      47.287   6.284  13.454  0.00  0.00    +0.000 A 
ATOM     16  S   UNL     1      46.653   7.434  12.365  0.00  0.00    +0.000 S 
ATOM     17  C   UNL     1      45.202   6.562  12.203  0.00  0.00    +0.000 A 
ATOM     18  N   UNL     1      44.194   7.023  11.414  0.00  0.00    +0.000 NA
ATOM     19  C   UNL     1      43.140   6.278  11.404  0.00  0.00    +0.000 A 
ATOM     20  N   UNL     1      43.001   5.112  12.109  0.00  0.00    +0.000 N 
ATOM     21  C   UNL     1      44.000   4.593  12.894  0.00  0.00    +0.000 A 
ATOM     22  O   UNL     1      43.860   3.528  13.481  0.00  0.00    +0.000 OA
ATOM     23  C   UNL     1      45.207   5.402  12.953  0.00  0.00    +0.000 A 
ATOM     24  H   UNL     1      42.151   4.569  12.055  0.00  0.00    +0.000 HD
ENDBRANCH  11  14
ENDBRANCH   9  10
ENDBRANCH   3   9
BRANCH   6  25
ATOM     25  O   UNL     1      52.466   3.987  18.741  0.00  0.00    +0.000 OA
BRANCH  25  26
ATOM     26  C   UNL     1      53.479   4.250  17.752  0.00  0.00    +0.000 C 
BRANCH  26  27
ATOM     27  C   UNL     1      53.666   5.723  17.465  0.00  0.00    +0.000 A 
ATOM     28  C   UNL     1      53.354   6.251  16.220  0.00  0.00    +0.000 A 
ATOM     29  C   UNL     1      53.444   7.622  16.048  0.00  0.00    +0.000 A 
ATOM     30 CL   UNL     1      53.063   8.312  14.518  0.00  0.00    +0.000 Cl
ATOM     31  C   UNL     1      53.820   8.446  17.098  0.00  0.00    +0.000 A 
ATOM     32  C   UNL     1      54.097   7.846  18.311  0.00  0.00    +0.000 A 
ATOM     33  N   UNL     1      54.022   6.514  18.518  0.00  0.00    +0.000 NA
ENDBRANCH  26  27
ENDBRANCH  25  26
ENDBRANCH   6  25
TORSDOF 7
ENDMDL
MODEL 9
REMARK VINA RESULT:    -6.511      3.281      8.255
REMARK INTER + INTRA:         -10.399
REMARK INTER:                  -9.256
REMARK INTRA:                  -1.142
REMARK UNBOUND:                -1.223
REMARK  Name = 
REMARK  8 active torsions:
REMARK  status: ('A' for Active; 'I' for Inactive)
REMARK    1  A    between atoms: C_1  and  O_2
REMARK    2  A    between atoms: O_2  and  C_3
REMARK    3  A    between atoms: C_5  and  C_6
REMARK    4  A    between atoms: C_6  and  N_7
REMARK    5  A    between atoms: C_8  and  C_10
REMARK    6  A    between atoms: C_22  and  O_23
REMARK    7  A    between atoms: O_23  and  C_24
REMARK    8  A    between atoms: C_24  and  C_25
REMARK                            x       y       z     vdW  Elec       q    Type
REMARK                         _______ _______ _______ _____ _____    ______ ____
ROOT
ATOM      1  C   UNL     1      48.701   9.143  15.381  0.00  0.00    +0.000 A 
ATOM      2  C   UNL     1      47.871   9.099  14.250  0.00  0.00    +0.000 A 
ATOM      3  C   UNL     1      47.937   8.038  13.339  0.00  0.00    +0.000 A 
ATOM      4  C   UNL     1      48.813   6.984  13.595  0.00  0.00    +0.000 A 
ATOM      5  C   UNL     1      49.611   6.996  14.737  0.00  0.00    +0.000 A 
ATOM      6  C   UNL     1      49.535   8.045  15.663  0.00  0.00    +0.000 A 
ENDROOT
BRANCH   1   8
ATOM      7  C   UNL     1      49.248  11.415  15.718  0.00  0.00    +0.000 C 
ATOM      8  O   UNL     1      48.687  10.209  16.251  0.00  0.00    +0.000 OA
ENDBRANCH   1   8
BRANCH   3   9
ATOM      9  C   UNL     1      47.066   8.030  12.113  0.00  0.00    +0.000 C 
BRANCH   9  10
ATOM     10  N   UNL     1      46.495   6.731  11.886  0.00  0.00    +0.000 N 
ATOM     11  C   UNL     1      45.148   6.577  11.677  0.00  0.00    +0.000 C 
ATOM     12  O   UNL     1      44.381   7.536  11.641  0.00  0.00    +0.000 OA
ATOM     13  H   UNL     1      47.054   5.925  12.149  0.00  0.00    +0.000 HD
BRANCH  11  14
ATOM     14  C   UNL     1      44.677   5.208  11.432  0.00  0.00    +0.000 A 
ATOM     15  C   UNL     1      43.939   4.551  12.407  0.00  0.00    +0.000 A 
ATOM     16  S   UNL     1      43.417   2.997  11.936  0.00  0.00    +0.000 S 
ATOM     17  C   UNL     1      44.208   3.126  10.437  0.00  0.00    +0.000 A 
ATOM     18  N   UNL     1      44.179   2.102   9.541  0.00  0.00    +0.000 NA
ATOM     19  C   UNL     1      44.844   2.322   8.456  0.00  0.00    +0.000 A 
ATOM     20  N   UNL     1      45.534   3.473   8.184  0.00  0.00    +0.000 N 
ATOM     21  C   UNL     1      45.568   4.543   9.043  0.00  0.00    +0.000 A 
ATOM     22  O   UNL     1      46.161   5.574   8.753  0.00  0.00    +0.000 OA
ATOM     23  C   UNL     1      44.846   4.342  10.289  0.00  0.00    +0.000 A 
ATOM     24  H   UNL     1      46.032   3.587   7.312  0.00  0.00    +0.000 HD
ENDBRANCH  11  14
ENDBRANCH   9  10
ENDBRANCH   3   9
BRANCH   6  25
ATOM     25  O   UNL     1      50.255   8.042  16.839  0.00  0.00    +0.000 OA
BRANCH  25  26
ATOM     26  C   UNL     1      49.576   7.428  17.950  0.00  0.00    +0.000 C 
BRANCH  26  27
ATOM     27  C   UNL     1      49.600   5.916  17.904  0.00  0.00    +0.000 A 
ATOM     28  C   UNL     1      48.424   5.191  17.772  0.00  0.00    +0.000 A 
ATOM     29  C   UNL     1      48.515   3.816  17.628  0.00  0.00    +0.000 A 
ATOM     30 CL   UNL     1      47.078   2.884  17.461  0.00  0.00    +0.000 Cl
ATOM     31  C   UNL     1      49.750   3.186  17.601  0.00  0.00    +0.000 A 
ATOM     32  C   UNL     1      50.874   3.980  17.720  0.00  0.00    +0.000 A 
ATOM     33  N   UNL     1      50.826   5.321  17.863  0.00  0.00    +0.000 NA
ENDBRANCH  26  27
ENDBRANCH  25  26
ENDBRANCH   6  25
TORSDOF 7
ENDMDL
