MODEL 1
REMARK VINA RESULT:    -7.743      0.000      0.000
REMARK INTER + INTRA:         -12.653
REMARK INTER:                 -11.816
REMARK INTRA:                  -0.836
REMARK UNBOUND:                -0.836
REMARK  Name = 
REMARK  10 active torsions:
REMARK  status: ('A' for Active; 'I' for Inactive)
REMARK    1  A    between atoms: N_1  and  C_2
REMARK    2  A    between atoms: C_2  and  C_3
REMARK    3  A    between atoms: C_3  and  N_4
REMARK    4  A    between atoms: N_4  and  C_5
REMARK    5  A    between atoms: C_5  and  C_6
REMARK    6  A    between atoms: C_9  and  C_10
REMARK    7  A    between atoms: C_10  and  O_11
REMARK    8  A    between atoms: O_11  and  C_12
REMARK    9  A    between atoms: C_15  and  C_16
REMARK   10  A    between atoms: C_16  and  O_18
REMARK                            x       y       z     vdW  Elec       q    Type
REMARK                         _______ _______ _______ _____ _____    ______ ____
ROOT
ATOM      1  C   UNL     1      46.754   5.379  13.745  0.00  0.00    +0.000 A 
ATOM      2  C   UNL     1      46.406   4.033  13.563  0.00  0.00    +0.000 A 
ATOM      3  C   UNL     1      45.336   3.679  12.738  0.00  0.00    +0.000 A 
ATOM      4  C   UNL     1      44.591   4.667  12.080  0.00  0.00    +0.000 A 
ATOM      5  C   UNL     1      44.912   6.012  12.293  0.00  0.00    +0.000 A 
ATOM      6  C   UNL     1      45.988   6.365  13.111  0.00  0.00    +0.000 A 
ENDROOT
BRANCH   1   7
ATOM      7  C   UNL     1      47.881   5.771  14.673  0.00  0.00    +0.000 C 
BRANCH   7   8
ATOM      8  N   UNL     1      47.569   5.509  16.082  0.00  0.00    +0.000 NA
ATOM      9  H   UNL     1      47.592   6.408  16.570  0.00  0.00    +0.000 HD
BRANCH   8  10
ATOM     10  C   UNL     1      48.602   4.673  16.714  0.00  0.00    +0.000 C 
BRANCH  10  11
ATOM     11  C   UNL     1      48.085   3.306  17.210  0.00  0.00    +0.000 C 
BRANCH  11  12
ATOM     12  N   UNL     1      46.629   3.304  17.387  0.00  0.00    +0.000 NA
ATOM     13  H   UNL     1      46.349   4.171  17.845  0.00  0.00    +0.000 HD
ATOM     14  H   UNL     1      46.376   2.552  18.030  0.00  0.00    +0.000 HD
ENDBRANCH  11  12
ENDBRANCH  10  11
ENDBRANCH   8  10
ENDBRANCH   7   8
ENDBRANCH   1   7
BRANCH   4  15
ATOM     15  C   UNL     1      43.461   4.285  11.160  0.00  0.00    +0.000 C 
BRANCH  15  16
ATOM     16  O   UNL     1      43.774   4.684   9.829  0.00  0.00    +0.000 OA
BRANCH  16  17
ATOM     17  C   UNL     1      44.653   3.889   9.144  0.00  0.00    +0.000 A 
ATOM     18  C   UNL     1      45.641   4.331   8.261  0.00  0.00    +0.000 A 
ATOM     19  C   UNL     1      46.490   3.415   7.628  0.00  0.00    +0.000 A 
ATOM     20  C   UNL     1      46.344   2.042   7.866  0.00  0.00    +0.000 A 
ATOM     21  C   UNL     1      45.362   1.597   8.759  0.00  0.00    +0.000 A 
ATOM     22  C   UNL     1      44.523   2.519   9.389  0.00  0.00    +0.000 A 
BRANCH  20  23
ATOM     23  C   UNL     1      47.236   1.035   7.241  0.00  0.00    +0.000 C 
ATOM     24  O   UNL     1      48.105   1.328   6.438  0.00  0.00    +0.000 OA
BRANCH  23  25
ATOM     25  O   UNL     1      47.024  -0.228   7.670  0.00  0.00    +0.000 OA
ATOM     26  H   UNL     1      46.186  -0.369   8.145  0.00  0.00    +0.000 HD
ENDBRANCH  23  25
ENDBRANCH  20  23
ENDBRANCH  16  17
ENDBRANCH  15  16
ENDBRANCH   4  15
TORSDOF 10
ENDMDL
MODEL 2
REMARK VINA RESULT:    -7.436      1.946      2.982
REMARK INTER + INTRA:         -12.184
REMARK INTER:                 -11.279
REMARK INTRA:                  -0.905
REMARK UNBOUND:                -0.836
REMARK  Name = 
REMARK  10 active torsions:
REMARK  status: ('A' for Active; 'I' for Inactive)
REMARK    1  A    between atoms: N_1  and  C_2
REMARK    2  A    between atoms: C_2  and  C_3
REMARK    3  A    between atoms: C_3  and  N_4
REMARK    4  A    between atoms: N_4  and  C_5
REMARK    5  A    between atoms: C_5  and  C_6
REMARK    6  A    between atoms: C_9  and  C_10
REMARK    7  A    between atoms: C_10  and  O_11
REMARK    8  A    between atoms: O_11  and  C_12
REMARK    9  A    between atoms: C_15  and  C_16
REMARK   10  A    between atoms: C_16  and  O_18
REMARK                            x       y       z     vdW  Elec       q    Type
REMARK                         _______ _______ _______ _____ _____    ______ ____
ROOT
ATOM      1  C   UNL     1      46.904   5.963  13.504  0.00  0.00    +0.000 A 
ATOM      2  C   UNL     1      46.072   6.830  12.781  0.00  0.00    +0.000 A 
ATOM      3  C   UNL     1      44.999   6.332  12.038  0.00  0.00    +0.000 A 
ATOM      4  C   UNL     1      44.739   4.955  12.002  0.00  0.00    +0.000 A 
ATOM      5  C   UNL     1      45.593   4.087  12.691  0.00  0.00    +0.000 A 
ATOM      6  C   UNL     1      46.660   4.586  13.440  0.00  0.00    +0.000 A 
ENDROOT
BRANCH   1   7
ATOM      7  C   UNL     1      48.094   6.491  14.272  0.00  0.00    +0.000 C 
BRANCH   7   8
ATOM      8  N   UNL     1      49.307   6.565  13.451  0.00  0.00    +0.000 NA
ATOM      9  H   UNL     1      50.105   6.418  14.075  0.00  0.00    +0.000 HD
BRANCH   8  10
ATOM     10  C   UNL     1      49.483   7.907  12.873  0.00  0.00    +0.000 C 
BRANCH  10  11
ATOM     11  C   UNL     1      49.848   7.900  11.373  0.00  0.00    +0.000 C 
BRANCH  11  12
ATOM     12  N   UNL     1      51.126   7.224  11.125  0.00  0.00    +0.000 NA
ATOM     13  H   UNL     1      51.017   6.586  10.337  0.00  0.00    +0.000 HD
ATOM     14  H   UNL     1      51.351   6.638  11.930  0.00  0.00    +0.000 HD
ENDBRANCH  11  12
ENDBRANCH  10  11
ENDBRANCH   8  10
ENDBRANCH   7   8
ENDBRANCH   1   7
BRANCH   4  15
ATOM     15  C   UNL     1      43.560   4.420  11.232  0.00  0.00    +0.000 C 
BRANCH  15  16
ATOM     16  O   UNL     1      43.727   4.705   9.846  0.00  0.00    +0.000 OA
BRANCH  16  17
ATOM     17  C   UNL     1      44.609   3.912   9.162  0.00  0.00    +0.000 A 
ATOM     18  C   UNL     1      45.588   4.356   8.270  0.00  0.00    +0.000 A 
ATOM     19  C   UNL     1      46.441   3.442   7.639  0.00  0.00    +0.000 A 
ATOM     20  C   UNL     1      46.309   2.070   7.889  0.00  0.00    +0.000 A 
ATOM     21  C   UNL     1      45.337   1.623   8.791  0.00  0.00    +0.000 A 
ATOM     22  C   UNL     1      44.493   2.543   9.419  0.00  0.00    +0.000 A 
BRANCH  20  23
ATOM     23  C   UNL     1      47.206   1.066   7.266  0.00  0.00    +0.000 C 
ATOM     24  O   UNL     1      48.092   1.365   6.484  0.00  0.00    +0.000 OA
BRANCH  23  25
ATOM     25  O   UNL     1      46.979  -0.201   7.673  0.00  0.00    +0.000 OA
ATOM     26  H   UNL     1      47.613  -0.547   8.326  0.00  0.00    +0.000 HD
ENDBRANCH  23  25
ENDBRANCH  20  23
ENDBRANCH  16  17
ENDBRANCH  15  16
ENDBRANCH   4  15
TORSDOF 10
ENDMDL
MODEL 3
REMARK VINA RESULT:    -7.232      1.710      2.092
REMARK INTER + INTRA:         -11.872
REMARK INTER:                 -11.078
REMARK INTRA:                  -0.794
REMARK UNBOUND:                -0.836
REMARK  Name = 
REMARK  10 active torsions:
REMARK  status: ('A' for Active; 'I' for Inactive)
REMARK    1  A    between atoms: N_1  and  C_2
REMARK    2  A    between atoms: C_2  and  C_3
REMARK    3  A    between atoms: C_3  and  N_4
REMARK    4  A    between atoms: N_4  and  C_5
REMARK    5  A    between atoms: C_5  and  C_6
REMARK    6  A    between atoms: C_9  and  C_10
REMARK    7  A    between atoms: C_10  and  O_11
REMARK    8  A    between atoms: O_11  and  C_12
REMARK    9  A    between atoms: C_15  and  C_16
REMARK   10  A    between atoms: C_16  and  O_18
REMARK                            x       y       z     vdW  Elec       q    Type
REMARK                         _______ _______ _______ _____ _____    ______ ____
ROOT
ATOM      1  C   UNL     1      47.165   6.112  13.007  0.00  0.00    +0.000 A 
ATOM      2  C   UNL     1      46.667   4.855  13.381  0.00  0.00    +0.000 A 
ATOM      3  C   UNL     1      45.501   4.351  12.801  0.00  0.00    +0.000 A 
ATOM      4  C   UNL     1      44.808   5.095  11.836  0.00  0.00    +0.000 A 
ATOM      5  C   UNL     1      45.283   6.366  11.492  0.00  0.00    +0.000 A 
ATOM      6  C   UNL     1      46.453   6.866  12.066  0.00  0.00    +0.000 A 
ENDROOT
BRANCH   1   7
ATOM      7  C   UNL     1      48.400   6.684  13.664  0.00  0.00    +0.000 C 
BRANCH   7   8
ATOM      8  N   UNL     1      48.121   7.263  14.982  0.00  0.00    +0.000 NA
ATOM      9  H   UNL     1      47.396   7.974  14.854  0.00  0.00    +0.000 HD
BRANCH   8  10
ATOM     10  C   UNL     1      49.296   7.969  15.518  0.00  0.00    +0.000 C 
BRANCH  10  11
ATOM     11  C   UNL     1      50.528   7.064  15.729  0.00  0.00    +0.000 C 
BRANCH  11  12
ATOM     12  N   UNL     1      51.670   7.498  14.916  0.00  0.00    +0.000 NA
ATOM     13  H   UNL     1      52.347   6.737  14.861  0.00  0.00    +0.000 HD
ATOM     14  H   UNL     1      52.145   8.263  15.395  0.00  0.00    +0.000 HD
ENDBRANCH  11  12
ENDBRANCH  10  11
ENDBRANCH   8  10
ENDBRANCH   7   8
ENDBRANCH   1   7
BRANCH   4  15
ATOM     15  C   UNL     1      43.572   4.536  11.183  0.00  0.00    +0.000 C 
BRANCH  15  16
ATOM     16  O   UNL     1      43.662   4.702   9.771  0.00  0.00    +0.000 OA
BRANCH  16  17
ATOM     17  C   UNL     1      44.563   3.904   9.118  0.00  0.00    +0.000 A 
ATOM     18  C   UNL     1      45.548   4.338   8.228  0.00  0.00    +0.000 A 
ATOM     19  C   UNL     1      46.421   3.420   7.632  0.00  0.00    +0.000 A 
ATOM     20  C   UNL     1      46.303   2.053   7.914  0.00  0.00    +0.000 A 
ATOM     21  C   UNL     1      45.324   1.616   8.814  0.00  0.00    +0.000 A 
ATOM     22  C   UNL     1      44.460   2.541   9.408  0.00  0.00    +0.000 A 
BRANCH  20  23
ATOM     23  C   UNL     1      47.220   1.046   7.328  0.00  0.00    +0.000 C 
ATOM     24  O   UNL     1      48.120   1.337   6.559  0.00  0.00    +0.000 OA
BRANCH  23  25
ATOM     25  O   UNL     1      46.995  -0.216   7.754  0.00  0.00    +0.000 OA
ATOM     26  H   UNL     1      47.282  -0.403   8.665  0.00  0.00    +0.000 HD
ENDBRANCH  23  25
ENDBRANCH  20  23
ENDBRANCH  16  17
ENDBRANCH  15  16
ENDBRANCH   4  15
TORSDOF 10
ENDMDL
MODEL 4
REMARK VINA RESULT:    -7.100      1.852      2.749
REMARK INTER + INTRA:         -11.672
REMARK INTER:                 -10.895
REMARK INTRA:                  -0.777
REMARK UNBOUND:                -0.836
REMARK  Name = 
REMARK  10 active torsions:
REMARK  status: ('A' for Active; 'I' for Inactive)
REMARK    1  A    between atoms: N_1  and  C_2
REMARK    2  A    between atoms: C_2  and  C_3
REMARK    3  A    between atoms: C_3  and  N_4
REMARK    4  A    between atoms: N_4  and  C_5
REMARK    5  A    between atoms: C_5  and  C_6
REMARK    6  A    between atoms: C_9  and  C_10
REMARK    7  A    between atoms: C_10  and  O_11
REMARK    8  A    between atoms: O_11  and  C_12
REMARK    9  A    between atoms: C_15  and  C_16
REMARK   10  A    between atoms: C_16  and  O_18
REMARK                            x       y       z     vdW  Elec       q    Type
REMARK                         _______ _______ _______ _____ _____    ______ ____
ROOT
ATOM      1  C   UNL     1      46.850   6.167  13.210  0.00  0.00    +0.000 A 
ATOM      2  C   UNL     1      46.425   6.826  12.047  0.00  0.00    +0.000 A 
ATOM      3  C   UNL     1      45.316   6.365  11.333  0.00  0.00    +0.000 A 
ATOM      4  C   UNL     1      44.613   5.233  11.767  0.00  0.00    +0.000 A 
ATOM      5  C   UNL     1      45.061   4.552  12.905  0.00  0.00    +0.000 A 
ATOM      6  C   UNL     1      46.164   5.019  13.623  0.00  0.00    +0.000 A 
ENDROOT
BRANCH   1   7
ATOM      7  C   UNL     1      48.076   6.633  13.961  0.00  0.00    +0.000 C 
BRANCH   7   8
ATOM      8  N   UNL     1      47.857   7.900  14.667  0.00  0.00    +0.000 NA
ATOM      9  H   UNL     1      48.177   8.651  14.049  0.00  0.00    +0.000 HD
BRANCH   8  10
ATOM     10  C   UNL     1      48.687   7.989  15.880  0.00  0.00    +0.000 C 
BRANCH  10  11
ATOM     11  C   UNL     1      48.896   9.430  16.392  0.00  0.00    +0.000 C 
BRANCH  11  12
ATOM     12  N   UNL     1      48.379  10.426  15.447  0.00  0.00    +0.000 NA
ATOM     13  H   UNL     1      49.106  11.118  15.263  0.00  0.00    +0.000 HD
ATOM     14  H   UNL     1      47.613  10.934  15.890  0.00  0.00    +0.000 HD
ENDBRANCH  11  12
ENDBRANCH  10  11
ENDBRANCH   8  10
ENDBRANCH   7   8
ENDBRANCH   1   7
BRANCH   4  15
ATOM     15  C   UNL     1      43.395   4.758  11.019  0.00  0.00    +0.000 C 
BRANCH  15  16
ATOM     16  O   UNL     1      43.655   4.783   9.619  0.00  0.00    +0.000 OA
BRANCH  16  17
ATOM     17  C   UNL     1      44.463   3.793   9.129  0.00  0.00    +0.000 A 
ATOM     18  C   UNL     1      44.375   2.434   9.441  0.00  0.00    +0.000 A 
ATOM     19  C   UNL     1      45.257   1.514   8.862  0.00  0.00    +0.000 A 
ATOM     20  C   UNL     1      46.247   1.953   7.974  0.00  0.00    +0.000 A 
ATOM     21  C   UNL     1      46.331   3.312   7.650  0.00  0.00    +0.000 A 
ATOM     22  C   UNL     1      45.443   4.222   8.229  0.00  0.00    +0.000 A 
BRANCH  20  23
ATOM     23  C   UNL     1      47.187   1.013   7.315  0.00  0.00    +0.000 C 
ATOM     24  O   UNL     1      48.028   1.373   6.510  0.00  0.00    +0.000 OA
BRANCH  23  25
ATOM     25  O   UNL     1      47.053  -0.269   7.717  0.00  0.00    +0.000 OA
ATOM     26  H   UNL     1      47.073  -0.932   7.004  0.00  0.00    +0.000 HD
ENDBRANCH  23  25
ENDBRANCH  20  23
ENDBRANCH  16  17
ENDBRANCH  15  16
ENDBRANCH   4  15
TORSDOF 10
ENDMDL
MODEL 5
REMARK VINA RESULT:    -6.567      4.130      6.947
REMARK INTER + INTRA:         -10.858
REMARK INTER:                 -10.001
REMARK INTRA:                  -0.857
REMARK UNBOUND:                -0.836
REMARK  Name = 
REMARK  10 active torsions:
REMARK  status: ('A' for Active; 'I' for Inactive)
REMARK    1  A    between atoms: N_1  and  C_2
REMARK    2  A    between atoms: C_2  and  C_3
REMARK    3  A    between atoms: C_3  and  N_4
REMARK    4  A    between atoms: N_4  and  C_5
REMARK    5  A    between atoms: C_5  and  C_6
REMARK    6  A    between atoms: C_9  and  C_10
REMARK    7  A    between atoms: C_10  and  O_11
REMARK    8  A    between atoms: O_11  and  C_12
REMARK    9  A    between atoms: C_15  and  C_16
REMARK   10  A    between atoms: C_16  and  O_18
REMARK                            x       y       z     vdW  Elec       q    Type
REMARK                         _______ _______ _______ _____ _____    ______ ____
ROOT
ATOM      1  C   UNL     1      44.615   2.572   9.426  0.00  0.00    +0.000 A 
ATOM      2  C   UNL     1      44.483   3.918   9.054  0.00  0.00    +0.000 A 
ATOM      3  C   UNL     1      43.837   4.829   9.893  0.00  0.00    +0.000 A 
ATOM      4  C   UNL     1      43.309   4.411  11.122  0.00  0.00    +0.000 A 
ATOM      5  C   UNL     1      43.405   3.060  11.476  0.00  0.00    +0.000 A 
ATOM      6  C   UNL     1      44.058   2.152  10.640  0.00  0.00    +0.000 A 
ENDROOT
BRANCH   1   7
ATOM      7  C   UNL     1      45.270   1.572   8.502  0.00  0.00    +0.000 C 
BRANCH   7   8
ATOM      8  N   UNL     1      46.626   1.972   8.110  0.00  0.00    +0.000 NA
ATOM      9  H   UNL     1      46.660   2.994   8.133  0.00  0.00    +0.000 HD
BRANCH   8  10
ATOM     10  C   UNL     1      46.917   1.586   6.719  0.00  0.00    +0.000 C 
BRANCH  10  11
ATOM     11  C   UNL     1      46.984   2.777   5.739  0.00  0.00    +0.000 C 
BRANCH  11  12
ATOM     12  N   UNL     1      46.901   4.064   6.438  0.00  0.00    +0.000 NA
ATOM     13  H   UNL     1      47.646   4.674   6.100  0.00  0.00    +0.000 HD
ATOM     14  H   UNL     1      47.089   3.914   7.430  0.00  0.00    +0.000 HD
ENDBRANCH  11  12
ENDBRANCH  10  11
ENDBRANCH   8  10
ENDBRANCH   7   8
ENDBRANCH   1   7
BRANCH   4  15
ATOM     15  C   UNL     1      42.647   5.400  12.045  0.00  0.00    +0.000 C 
BRANCH  15  16
ATOM     16  O   UNL     1      43.383   5.484  13.262  0.00  0.00    +0.000 OA
BRANCH  16  17
ATOM     17  C   UNL     1      44.719   5.758  13.149  0.00  0.00    +0.000 A 
ATOM     18  C   UNL     1      45.764   4.911  13.527  0.00  0.00    +0.000 A 
ATOM     19  C   UNL     1      47.096   5.304  13.349  0.00  0.00    +0.000 A 
ATOM     20  C   UNL     1      47.391   6.560  12.803  0.00  0.00    +0.000 A 
ATOM     21  C   UNL     1      46.347   7.406  12.414  0.00  0.00    +0.000 A 
ATOM     22  C   UNL     1      45.020   7.003  12.590  0.00  0.00    +0.000 A 
BRANCH  20  23
ATOM     23  C   UNL     1      48.786   7.010  12.571  0.00  0.00    +0.000 C 
ATOM     24  O   UNL     1      49.131   7.606  11.565  0.00  0.00    +0.000 OA
BRANCH  23  25
ATOM     25  O   UNL     1      49.628   6.735  13.590  0.00  0.00    +0.000 OA
ATOM     26  H   UNL     1      49.224   6.281  14.351  0.00  0.00    +0.000 HD
ENDBRANCH  23  25
ENDBRANCH  20  23
ENDBRANCH  16  17
ENDBRANCH  15  16
ENDBRANCH   4  15
TORSDOF 10
ENDMDL
MODEL 6
REMARK VINA RESULT:    -6.212      4.965      8.656
REMARK INTER + INTRA:         -10.316
REMARK INTER:                  -9.838
REMARK INTRA:                  -0.478
REMARK UNBOUND:                -0.836
REMARK  Name = 
REMARK  10 active torsions:
REMARK  status: ('A' for Active; 'I' for Inactive)
REMARK    1  A    between atoms: N_1  and  C_2
REMARK    2  A    between atoms: C_2  and  C_3
REMARK    3  A    between atoms: C_3  and  N_4
REMARK    4  A    between atoms: N_4  and  C_5
REMARK    5  A    between atoms: C_5  and  C_6
REMARK    6  A    between atoms: C_9  and  C_10
REMARK    7  A    between atoms: C_10  and  O_11
REMARK    8  A    between atoms: O_11  and  C_12
REMARK    9  A    between atoms: C_15  and  C_16
REMARK   10  A    between atoms: C_16  and  O_18
REMARK                            x       y       z     vdW  Elec       q    Type
REMARK                         _______ _______ _______ _____ _____    ______ ____
ROOT
ATOM      1  C   UNL     1      45.159   4.229   9.798  0.00  0.00    +0.000 A 
ATOM      2  C   UNL     1      45.024   3.146  10.679  0.00  0.00    +0.000 A 
ATOM      3  C   UNL     1      45.342   3.285  12.032  0.00  0.00    +0.000 A 
ATOM      4  C   UNL     1      45.805   4.511  12.530  0.00  0.00    +0.000 A 
ATOM      5  C   UNL     1      45.979   5.580  11.643  0.00  0.00    +0.000 A 
ATOM      6  C   UNL     1      45.652   5.443  10.293  0.00  0.00    +0.000 A 
ENDROOT
BRANCH   1   7
ATOM      7  C   UNL     1      44.861   4.073   8.324  0.00  0.00    +0.000 C 
BRANCH   7   8
ATOM      8  N   UNL     1      46.052   4.248   7.486  0.00  0.00    +0.000 NA
ATOM      9  H   UNL     1      45.831   4.966   6.791  0.00  0.00    +0.000 HD
BRANCH   8  10
ATOM     10  C   UNL     1      46.359   3.025   6.727  0.00  0.00    +0.000 C 
BRANCH  10  11
ATOM     11  C   UNL     1      47.812   2.532   6.894  0.00  0.00    +0.000 C 
BRANCH  11  12
ATOM     12  N   UNL     1      48.334   1.944   5.656  0.00  0.00    +0.000 NA
ATOM     13  H   UNL     1      48.938   2.623   5.194  0.00  0.00    +0.000 HD
ATOM     14  H   UNL     1      47.557   1.778   5.016  0.00  0.00    +0.000 HD
ENDBRANCH  11  12
ENDBRANCH  10  11
ENDBRANCH   8  10
ENDBRANCH   7   8
ENDBRANCH   1   7
BRANCH   4  15
ATOM     15  C   UNL     1      46.112   4.673  13.995  0.00  0.00    +0.000 C 
BRANCH  15  16
ATOM     16  O   UNL     1      47.109   3.730  14.381  0.00  0.00    +0.000 OA
BRANCH  16  17
ATOM     17  C   UNL     1      47.559   3.810  15.671  0.00  0.00    +0.000 A 
ATOM     18  C   UNL     1      47.956   2.735  16.468  0.00  0.00    +0.000 A 
ATOM     19  C   UNL     1      48.411   2.950  17.775  0.00  0.00    +0.000 A 
ATOM     20  C   UNL     1      48.459   4.248  18.298  0.00  0.00    +0.000 A 
ATOM     21  C   UNL     1      48.072   5.329  17.497  0.00  0.00    +0.000 A 
ATOM     22  C   UNL     1      47.624   5.105  16.193  0.00  0.00    +0.000 A 
BRANCH  20  23
ATOM     23  C   UNL     1      48.959   4.529  19.666  0.00  0.00    +0.000 C 
ATOM     24  O   UNL     1      50.138   4.705  19.917  0.00  0.00    +0.000 OA
BRANCH  23  25
ATOM     25  O   UNL     1      47.986   4.611  20.599  0.00  0.00    +0.000 OA
ATOM     26  H   UNL     1      48.218   5.119  21.397  0.00  0.00    +0.000 HD
ENDBRANCH  23  25
ENDBRANCH  20  23
ENDBRANCH  16  17
ENDBRANCH  15  16
ENDBRANCH   4  15
TORSDOF 10
ENDMDL
MODEL 7
REMARK VINA RESULT:    -6.093      4.735      8.127
REMARK INTER + INTRA:         -10.134
REMARK INTER:                  -9.588
REMARK INTRA:                  -0.546
REMARK UNBOUND:                -0.836
REMARK  Name = 
REMARK  10 active torsions:
REMARK  status: ('A' for Active; 'I' for Inactive)
REMARK    1  A    between atoms: N_1  and  C_2
REMARK    2  A    between atoms: C_2  and  C_3
REMARK    3  A    between atoms: C_3  and  N_4
REMARK    4  A    between atoms: N_4  and  C_5
REMARK    5  A    between atoms: C_5  and  C_6
REMARK    6  A    between atoms: C_9  and  C_10
REMARK    7  A    between atoms: C_10  and  O_11
REMARK    8  A    between atoms: O_11  and  C_12
REMARK    9  A    between atoms: C_15  and  C_16
REMARK   10  A    between atoms: C_16  and  O_18
REMARK                            x       y       z     vdW  Elec       q    Type
REMARK                         _______ _______ _______ _____ _____    ______ ____
ROOT
ATOM      1  C   UNL     1      45.107   3.911   9.315  0.00  0.00    +0.000 A 
ATOM      2  C   UNL     1      44.872   3.125  10.453  0.00  0.00    +0.000 A 
ATOM      3  C   UNL     1      45.027   3.662  11.733  0.00  0.00    +0.000 A 
ATOM      4  C   UNL     1      45.422   4.996  11.901  0.00  0.00    +0.000 A 
ATOM      5  C   UNL     1      45.696   5.769  10.766  0.00  0.00    +0.000 A 
ATOM      6  C   UNL     1      45.532   5.234   9.487  0.00  0.00    +0.000 A 
ENDROOT
BRANCH   1   7
ATOM      7  C   UNL     1      44.986   3.324   7.928  0.00  0.00    +0.000 C 
BRANCH   7   8
ATOM      8  N   UNL     1      46.014   3.829   7.011  0.00  0.00    +0.000 NA
ATOM      9  H   UNL     1      45.732   3.565   6.063  0.00  0.00    +0.000 HD
BRANCH   8  10
ATOM     10  C   UNL     1      47.311   3.174   7.247  0.00  0.00    +0.000 C 
BRANCH  10  11
ATOM     11  C   UNL     1      47.436   1.779   6.599  0.00  0.00    +0.000 C 
BRANCH  11  12
ATOM     12  N   UNL     1      48.497   1.739   5.587  0.00  0.00    +0.000 NA
ATOM     13  H   UNL     1      49.314   2.236   5.942  0.00  0.00    +0.000 HD
ATOM     14  H   UNL     1      48.188   2.259   4.765  0.00  0.00    +0.000 HD
ENDBRANCH  11  12
ENDBRANCH  10  11
ENDBRANCH   8  10
ENDBRANCH   7   8
ENDBRANCH   1   7
BRANCH   4  15
ATOM     15  C   UNL     1      45.553   5.586  13.280  0.00  0.00    +0.000 C 
BRANCH  15  16
ATOM     16  O   UNL     1      46.927   5.831  13.566  0.00  0.00    +0.000 OA
BRANCH  16  17
ATOM     17  C   UNL     1      47.425   5.261  14.707  0.00  0.00    +0.000 A 
ATOM     18  C   UNL     1      47.141   3.975  15.172  0.00  0.00    +0.000 A 
ATOM     19  C   UNL     1      47.726   3.502  16.353  0.00  0.00    +0.000 A 
ATOM     20  C   UNL     1      48.591   4.324  17.087  0.00  0.00    +0.000 A 
ATOM     21  C   UNL     1      48.885   5.609  16.618  0.00  0.00    +0.000 A 
ATOM     22  C   UNL     1      48.301   6.071  15.436  0.00  0.00    +0.000 A 
BRANCH  20  23
ATOM     23  C   UNL     1      49.255   3.858  18.329  0.00  0.00    +0.000 C 
ATOM     24  O   UNL     1      49.106   4.409  19.406  0.00  0.00    +0.000 OA
BRANCH  23  25
ATOM     25  O   UNL     1      50.005   2.747  18.167  0.00  0.00    +0.000 OA
ATOM     26  H   UNL     1      49.608   2.057  17.606  0.00  0.00    +0.000 HD
ENDBRANCH  23  25
ENDBRANCH  20  23
ENDBRANCH  16  17
ENDBRANCH  15  16
ENDBRANCH   4  15
TORSDOF 10
ENDMDL
MODEL 8
REMARK VINA RESULT:    -5.757      4.604      7.578
REMARK INTER + INTRA:          -9.623
REMARK INTER:                  -9.059
REMARK INTRA:                  -0.564
REMARK UNBOUND:                -0.836
REMARK  Name = 
REMARK  10 active torsions:
REMARK  status: ('A' for Active; 'I' for Inactive)
REMARK    1  A    between atoms: N_1  and  C_2
REMARK    2  A    between atoms: C_2  and  C_3
REMARK    3  A    between atoms: C_3  and  N_4
REMARK    4  A    between atoms: N_4  and  C_5
REMARK    5  A    between atoms: C_5  and  C_6
REMARK    6  A    between atoms: C_9  and  C_10
REMARK    7  A    between atoms: C_10  and  O_11
REMARK    8  A    between atoms: O_11  and  C_12
REMARK    9  A    between atoms: C_15  and  C_16
REMARK   10  A    between atoms: C_16  and  O_18
REMARK                            x       y       z     vdW  Elec       q    Type
REMARK                         _______ _______ _______ _____ _____    ______ ____
ROOT
ATOM      1  C   UNL     1      45.218   3.474   9.319  0.00  0.00    +0.000 A 
ATOM      2  C   UNL     1      44.826   2.929  10.550  0.00  0.00    +0.000 A 
ATOM      3  C   UNL     1      44.739   3.733  11.689  0.00  0.00    +0.000 A 
ATOM      4  C   UNL     1      45.046   5.098  11.619  0.00  0.00    +0.000 A 
ATOM      5  C   UNL     1      45.476   5.634  10.400  0.00  0.00    +0.000 A 
ATOM      6  C   UNL     1      45.554   4.832   9.260  0.00  0.00    +0.000 A 
ENDROOT
BRANCH   1   7
ATOM      7  C   UNL     1      45.359   2.601   8.093  0.00  0.00    +0.000 C 
BRANCH   7   8
ATOM      8  N   UNL     1      45.930   1.285   8.401  0.00  0.00    +0.000 NA
ATOM      9  H   UNL     1      46.320   1.337   9.345  0.00  0.00    +0.000 HD
BRANCH   8  10
ATOM     10  C   UNL     1      47.057   0.969   7.510  0.00  0.00    +0.000 C 
BRANCH  10  11
ATOM     11  C   UNL     1      47.702   2.206   6.850  0.00  0.00    +0.000 C 
BRANCH  11  12
ATOM     12  N   UNL     1      48.509   1.844   5.680  0.00  0.00    +0.000 NA
ATOM     13  H   UNL     1      48.040   1.094   5.172  0.00  0.00    +0.000 HD
ATOM     14  H   UNL     1      49.397   1.455   6.000  0.00  0.00    +0.000 HD
ENDBRANCH  11  12
ENDBRANCH  10  11
ENDBRANCH   8  10
ENDBRANCH   7   8
ENDBRANCH   1   7
BRANCH   4  15
ATOM     15  C   UNL     1      44.916   5.973  12.838  0.00  0.00    +0.000 C 
BRANCH  15  16
ATOM     16  O   UNL     1      45.419   7.274  12.547  0.00  0.00    +0.000 OA
BRANCH  16  17
ATOM     17  C   UNL     1      46.746   7.487  12.804  0.00  0.00    +0.000 A 
ATOM     18  C   UNL     1      47.568   6.682  13.595  0.00  0.00    +0.000 A 
ATOM     19  C   UNL     1      48.919   7.002  13.772  0.00  0.00    +0.000 A 
ATOM     20  C   UNL     1      49.456   8.145  13.165  0.00  0.00    +0.000 A 
ATOM     21  C   UNL     1      48.638   8.949  12.363  0.00  0.00    +0.000 A 
ATOM     22  C   UNL     1      47.291   8.618  12.188  0.00  0.00    +0.000 A 
BRANCH  20  23
ATOM     23  C   UNL     1      50.887   8.511  13.301  0.00  0.00    +0.000 C 
ATOM     24  O   UNL     1      51.579   8.143  14.234  0.00  0.00    +0.000 OA
BRANCH  23  25
ATOM     25  O   UNL     1      51.362   9.255  12.279  0.00  0.00    +0.000 OA
ATOM     26  H   UNL     1      51.246  10.217  12.376  0.00  0.00    +0.000 HD
ENDBRANCH  23  25
ENDBRANCH  20  23
ENDBRANCH  16  17
ENDBRANCH  15  16
ENDBRANCH   4  15
TORSDOF 10
ENDMDL
MODEL 9
REMARK VINA RESULT:    -5.744      4.263      7.537
REMARK INTER + INTRA:          -9.602
REMARK INTER:                  -9.298
REMARK INTRA:                  -0.304
REMARK UNBOUND:                -0.836
REMARK  Name = 
REMARK  10 active torsions:
REMARK  status: ('A' for Active; 'I' for Inactive)
REMARK    1  A    between atoms: N_1  and  C_2
REMARK    2  A    between atoms: C_2  and  C_3
REMARK    3  A    between atoms: C_3  and  N_4
REMARK    4  A    between atoms: N_4  and  C_5
REMARK    5  A    between atoms: C_5  and  C_6
REMARK    6  A    between atoms: C_9  and  C_10
REMARK    7  A    between atoms: C_10  and  O_11
REMARK    8  A    between atoms: O_11  and  C_12
REMARK    9  A    between atoms: C_15  and  C_16
REMARK   10  A    between atoms: C_16  and  O_18
REMARK                            x       y       z     vdW  Elec       q    Type
REMARK                         _______ _______ _______ _____ _____    ______ ____
ROOT
ATOM      1  C   UNL     1      44.877   3.383   9.182  0.00  0.00    +0.000 A 
ATOM      2  C   UNL     1      44.131   3.369  10.370  0.00  0.00    +0.000 A 
ATOM      3  C   UNL     1      44.172   4.454  11.248  0.00  0.00    +0.000 A 
ATOM      4  C   UNL     1      44.962   5.574  10.957  0.00  0.00    +0.000 A 
ATOM      5  C   UNL     1      45.737   5.571   9.791  0.00  0.00    +0.000 A 
ATOM      6  C   UNL     1      45.689   4.490   8.909  0.00  0.00    +0.000 A 
ENDROOT
BRANCH   1   7
ATOM      7  C   UNL     1      44.874   2.193   8.250  0.00  0.00    +0.000 C 
BRANCH   7   8
ATOM      8  N   UNL     1      46.045   1.329   8.435  0.00  0.00    +0.000 NA
ATOM      9  H   UNL     1      46.698   1.829   9.042  0.00  0.00    +0.000 HD
BRANCH   8  10
ATOM     10  C   UNL     1      46.754   1.109   7.165  0.00  0.00    +0.000 C 
BRANCH  10  11
ATOM     11  C   UNL     1      47.834   2.168   6.859  0.00  0.00    +0.000 C 
BRANCH  11  12
ATOM     12  N   UNL     1      48.604   1.832   5.656  0.00  0.00    +0.000 NA
ATOM     13  H   UNL     1      48.008   1.947   4.837  0.00  0.00    +0.000 HD
ATOM     14  H   UNL     1      48.850   0.842   5.688  0.00  0.00    +0.000 HD
ENDBRANCH  11  12
ENDBRANCH  10  11
ENDBRANCH   8  10
ENDBRANCH   7   8
ENDBRANCH   1   7
BRANCH   4  15
ATOM     15  C   UNL     1      44.977   6.761  11.885  0.00  0.00    +0.000 C 
BRANCH  15  16
ATOM     16  O   UNL     1      46.323   7.156  12.132  0.00  0.00    +0.000 OA
BRANCH  16  17
ATOM     17  C   UNL     1      46.924   6.619  13.238  0.00  0.00    +0.000 A 
ATOM     18  C   UNL     1      47.956   7.204  13.975  0.00  0.00    +0.000 A 
ATOM     19  C   UNL     1      48.481   6.557  15.101  0.00  0.00    +0.000 A 
ATOM     20  C   UNL     1      47.982   5.306  15.488  0.00  0.00    +0.000 A 
ATOM     21  C   UNL     1      46.941   4.722  14.758  0.00  0.00    +0.000 A 
ATOM     22  C   UNL     1      46.420   5.378  13.639  0.00  0.00    +0.000 A 
BRANCH  20  23
ATOM     23  C   UNL     1      48.487   4.594  16.687  0.00  0.00    +0.000 C 
ATOM     24  O   UNL     1      49.064   3.522  16.627  0.00  0.00    +0.000 OA
BRANCH  23  25
ATOM     25  O   UNL     1      48.285   5.258  17.845  0.00  0.00    +0.000 OA
ATOM     26  H   UNL     1      47.991   6.181  17.748  0.00  0.00    +0.000 HD
ENDBRANCH  23  25
ENDBRANCH  20  23
ENDBRANCH  16  17
ENDBRANCH  15  16
ENDBRANCH   4  15
TORSDOF 10
ENDMDL
