MODEL 1
REMARK VINA RESULT:    -7.800      0.000      0.000
REMARK INTER + INTRA:         -10.128
REMARK INTER:                  -9.624
REMARK INTRA:                  -0.504
REMARK UNBOUND:                -0.504
REMARK  Name = 
REMARK  5 active torsions:
REMARK  status: ('A' for Active; 'I' for Inactive)
REMARK    1  A    between atoms: C_1  and  N_2
REMARK    2  A    between atoms: C_3  and  C_5
REMARK    3  A    between atoms: C_8  and  O_9
REMARK    4  A    between atoms: O_9  and  C_10
REMARK    5  A    between atoms: C_10  and  C_11
REMARK                            x       y       z     vdW  Elec       q    Type
REMARK                         _______ _______ _______ _____ _____    ______ ____
ROOT
ATOM      1  C   UNL     1      46.404   4.836  13.116  0.00  0.00    +0.000 A 
ATOM      2  C   UNL     1      46.253   5.798  12.111  0.00  0.00    +0.000 A 
ATOM      3  C   UNL     1      45.519   5.480  10.966  0.00  0.00    +0.000 A 
ATOM      4  C   UNL     1      44.940   4.221  10.880  0.00  0.00    +0.000 A 
ATOM      5  N   UNL     1      45.081   3.271  11.829  0.00  0.00    +0.000 NA
ATOM      6  C   UNL     1      45.822   3.593  12.915  0.00  0.00    +0.000 A 
ENDROOT
BRANCH   1   9
ATOM      7  C   UNL     1      47.489   4.466  16.713  0.00  0.00    +0.000 C 
ATOM      8  N   UNL     1      46.783   4.335  15.462  0.00  0.00    +0.000 N 
ATOM      9  C   UNL     1      47.170   5.066  14.359  0.00  0.00    +0.000 C 
ATOM     10  O   UNL     1      48.114   5.850  14.360  0.00  0.00    +0.000 OA
ATOM     11  H   UNL     1      46.122   3.577  15.363  0.00  0.00    +0.000 HD
ENDBRANCH   1   9
BRANCH   4  12
ATOM     12  O   UNL     1      44.218   3.934   9.741  0.00  0.00    +0.000 OA
BRANCH  12  13
ATOM     13  C   UNL     1      44.386   2.570   9.343  0.00  0.00    +0.000 C 
BRANCH  13  14
ATOM     14  C   UNL     1      45.486   2.482   8.313  0.00  0.00    +0.000 A 
ATOM     15  C   UNL     1      45.765   3.575   7.480  0.00  0.00    +0.000 A 
ATOM     16  C   UNL     1      46.791   3.504   6.537  0.00  0.00    +0.000 A 
ATOM     17  C   UNL     1      47.545   2.338   6.413  0.00  0.00    +0.000 A 
ATOM     18  C   UNL     1      47.269   1.242   7.228  0.00  0.00    +0.000 A 
ATOM     19  C   UNL     1      46.242   1.311   8.172  0.00  0.00    +0.000 A 
ENDBRANCH  13  14
ENDBRANCH  12  13
ENDBRANCH   4  12
TORSDOF 4
ENDMDL
MODEL 2
REMARK VINA RESULT:    -7.271      1.561      1.762
REMARK INTER + INTRA:          -9.475
REMARK INTER:                  -9.011
REMARK INTRA:                  -0.464
REMARK UNBOUND:                -0.504
REMARK  Name = 
REMARK  5 active torsions:
REMARK  status: ('A' for Active; 'I' for Inactive)
REMARK    1  A    between atoms: C_1  and  N_2
REMARK    2  A    between atoms: C_3  and  C_5
REMARK    3  A    between atoms: C_8  and  O_9
REMARK    4  A    between atoms: O_9  and  C_10
REMARK    5  A    between atoms: C_10  and  C_11
REMARK                            x       y       z     vdW  Elec       q    Type
REMARK                         _______ _______ _______ _____ _____    ______ ____
ROOT
ATOM      1  C   UNL     1      46.817   6.003  12.852  0.00  0.00    +0.000 A 
ATOM      2  C   UNL     1      46.421   6.499  11.606  0.00  0.00    +0.000 A 
ATOM      3  C   UNL     1      45.621   5.708  10.778  0.00  0.00    +0.000 A 
ATOM      4  C   UNL     1      45.224   4.461  11.238  0.00  0.00    +0.000 A 
ATOM      5  N   UNL     1      45.602   3.952  12.430  0.00  0.00    +0.000 NA
ATOM      6  C   UNL     1      46.403   4.726  13.201  0.00  0.00    +0.000 A 
ENDROOT
BRANCH   1   9
ATOM      7  C   UNL     1      48.060   8.861  14.982  0.00  0.00    +0.000 C 
ATOM      8  N   UNL     1      47.307   8.057  14.051  0.00  0.00    +0.000 N 
ATOM      9  C   UNL     1      47.672   6.752  13.797  0.00  0.00    +0.000 C 
ATOM     10  O   UNL     1      48.626   6.197  14.331  0.00  0.00    +0.000 OA
ATOM     11  H   UNL     1      46.417   8.408  13.727  0.00  0.00    +0.000 HD
ENDBRANCH   1   9
BRANCH   4  12
ATOM     12  O   UNL     1      44.432   3.701  10.403  0.00  0.00    +0.000 OA
BRANCH  12  13
ATOM     13  C   UNL     1      44.542   4.128   9.043  0.00  0.00    +0.000 C 
BRANCH  13  14
ATOM     14  C   UNL     1      45.477   3.203   8.301  0.00  0.00    +0.000 A 
ATOM     15  C   UNL     1      46.266   3.690   7.248  0.00  0.00    +0.000 A 
ATOM     16  C   UNL     1      47.144   2.842   6.570  0.00  0.00    +0.000 A 
ATOM     17  C   UNL     1      47.237   1.500   6.933  0.00  0.00    +0.000 A 
ATOM     18  C   UNL     1      46.450   1.004   7.970  0.00  0.00    +0.000 A 
ATOM     19  C   UNL     1      45.570   1.849   8.651  0.00  0.00    +0.000 A 
ENDBRANCH  13  14
ENDBRANCH  12  13
ENDBRANCH   4  12
TORSDOF 4
ENDMDL
MODEL 3
REMARK VINA RESULT:    -6.686      2.588      6.317
REMARK INTER + INTRA:          -8.753
REMARK INTER:                  -8.182
REMARK INTRA:                  -0.571
REMARK UNBOUND:                -0.504
REMARK  Name = 
REMARK  5 active torsions:
REMARK  status: ('A' for Active; 'I' for Inactive)
REMARK    1  A    between atoms: C_1  and  N_2
REMARK    2  A    between atoms: C_3  and  C_5
REMARK    3  A    between atoms: C_8  and  O_9
REMARK    4  A    between atoms: O_9  and  C_10
REMARK    5  A    between atoms: C_10  and  C_11
REMARK                            x       y       z     vdW  Elec       q    Type
REMARK                         _______ _______ _______ _____ _____    ______ ____
ROOT
ATOM      1  C   UNL     1      45.839   2.669   8.120  0.00  0.00    +0.000 A 
ATOM      2  C   UNL     1      45.488   4.022   8.190  0.00  0.00    +0.000 A 
ATOM      3  C   UNL     1      44.550   4.437   9.139  0.00  0.00    +0.000 A 
ATOM      4  C   UNL     1      44.018   3.488  10.001  0.00  0.00    +0.000 A 
ATOM      5  N   UNL     1      44.330   2.175   9.947  0.00  0.00    +0.000 NA
ATOM      6  C   UNL     1      45.218   1.794   8.999  0.00  0.00    +0.000 A 
ENDROOT
BRANCH   1   9
ATOM      7  C   UNL     1      48.035   2.482   5.056  0.00  0.00    +0.000 C 
ATOM      8  N   UNL     1      47.079   2.912   6.046  0.00  0.00    +0.000 N 
ATOM      9  C   UNL     1      46.809   2.126   7.147  0.00  0.00    +0.000 C 
ATOM     10  O   UNL     1      47.349   1.045   7.359  0.00  0.00    +0.000 OA
ATOM     11  H   UNL     1      46.747   3.865   6.009  0.00  0.00    +0.000 HD
ENDBRANCH   1   9
BRANCH   4  12
ATOM     12  O   UNL     1      43.097   3.923  10.931  0.00  0.00    +0.000 OA
BRANCH  12  13
ATOM     13  C   UNL     1      43.553   3.697  12.267  0.00  0.00    +0.000 C 
BRANCH  13  14
ATOM     14  C   UNL     1      44.648   4.684  12.596  0.00  0.00    +0.000 A 
ATOM     15  C   UNL     1      44.418   6.062  12.474  0.00  0.00    +0.000 A 
ATOM     16  C   UNL     1      45.422   6.979  12.792  0.00  0.00    +0.000 A 
ATOM     17  C   UNL     1      46.666   6.527  13.229  0.00  0.00    +0.000 A 
ATOM     18  C   UNL     1      46.909   5.160  13.343  0.00  0.00    +0.000 A 
ATOM     19  C   UNL     1      45.906   4.240  13.025  0.00  0.00    +0.000 A 
ENDBRANCH  13  14
ENDBRANCH  12  13
ENDBRANCH   4  12
TORSDOF 4
ENDMDL
MODEL 4
REMARK VINA RESULT:    -6.138      1.724      2.557
REMARK INTER + INTRA:          -8.077
REMARK INTER:                  -7.653
REMARK INTRA:                  -0.423
REMARK UNBOUND:                -0.504
REMARK  Name = 
REMARK  5 active torsions:
REMARK  status: ('A' for Active; 'I' for Inactive)
REMARK    1  A    between atoms: C_1  and  N_2
REMARK    2  A    between atoms: C_3  and  C_5
REMARK    3  A    between atoms: C_8  and  O_9
REMARK    4  A    between atoms: O_9  and  C_10
REMARK    5  A    between atoms: C_10  and  C_11
REMARK                            x       y       z     vdW  Elec       q    Type
REMARK                         _______ _______ _______ _____ _____    ______ ____
ROOT
ATOM      1  C   UNL     1      47.514   5.395  14.793  0.00  0.00    +0.000 A 
ATOM      2  C   UNL     1      46.521   4.536  14.310  0.00  0.00    +0.000 A 
ATOM      3  C   UNL     1      45.953   4.783  13.057  0.00  0.00    +0.000 A 
ATOM      4  C   UNL     1      46.418   5.864  12.323  0.00  0.00    +0.000 A 
ATOM      5  N   UNL     1      47.365   6.717  12.770  0.00  0.00    +0.000 NA
ATOM      6  C   UNL     1      47.879   6.473  13.999  0.00  0.00    +0.000 A 
ENDROOT
BRANCH   1   9
ATOM      7  C   UNL     1      47.907   4.635  18.469  0.00  0.00    +0.000 C 
ATOM      8  N   UNL     1      47.356   4.851  17.154  0.00  0.00    +0.000 N 
ATOM      9  C   UNL     1      48.169   5.231  16.107  0.00  0.00    +0.000 C 
ATOM     10  O   UNL     1      49.379   5.400  16.213  0.00  0.00    +0.000 OA
ATOM     11  H   UNL     1      46.407   4.553  16.978  0.00  0.00    +0.000 HD
ENDBRANCH   1   9
BRANCH   4  12
ATOM     12  O   UNL     1      45.844   6.084  11.088  0.00  0.00    +0.000 OA
BRANCH  12  13
ATOM     13  C   UNL     1      44.752   5.193  10.851  0.00  0.00    +0.000 C 
BRANCH  13  14
ATOM     14  C   UNL     1      45.136   4.206   9.774  0.00  0.00    +0.000 A 
ATOM     15  C   UNL     1      45.770   4.648   8.603  0.00  0.00    +0.000 A 
ATOM     16  C   UNL     1      46.142   3.738   7.612  0.00  0.00    +0.000 A 
ATOM     17  C   UNL     1      45.878   2.380   7.778  0.00  0.00    +0.000 A 
ATOM     18  C   UNL     1      45.239   1.931   8.932  0.00  0.00    +0.000 A 
ATOM     19  C   UNL     1      44.866   2.840   9.925  0.00  0.00    +0.000 A 
ENDBRANCH  13  14
ENDBRANCH  12  13
ENDBRANCH   4  12
TORSDOF 4
ENDMDL
MODEL 5
REMARK VINA RESULT:    -5.436      3.755      5.935
REMARK INTER + INTRA:          -7.211
REMARK INTER:                  -6.903
REMARK INTRA:                  -0.308
REMARK UNBOUND:                -0.504
REMARK  Name = 
REMARK  5 active torsions:
REMARK  status: ('A' for Active; 'I' for Inactive)
REMARK    1  A    between atoms: C_1  and  N_2
REMARK    2  A    between atoms: C_3  and  C_5
REMARK    3  A    between atoms: C_8  and  O_9
REMARK    4  A    between atoms: O_9  and  C_10
REMARK    5  A    between atoms: C_10  and  C_11
REMARK                            x       y       z     vdW  Elec       q    Type
REMARK                         _______ _______ _______ _____ _____    ______ ____
ROOT
ATOM      1  C   UNL     1      49.024   4.642  18.158  0.00  0.00    +0.000 A 
ATOM      2  C   UNL     1      48.238   3.485  18.178  0.00  0.00    +0.000 A 
ATOM      3  C   UNL     1      47.455   3.171  17.064  0.00  0.00    +0.000 A 
ATOM      4  C   UNL     1      47.506   4.012  15.962  0.00  0.00    +0.000 A 
ATOM      5  N   UNL     1      48.246   5.141  15.920  0.00  0.00    +0.000 NA
ATOM      6  C   UNL     1      48.973   5.439  17.024  0.00  0.00    +0.000 A 
ENDROOT
BRANCH   1   9
ATOM      7  C   UNL     1      51.927   4.682  20.570  0.00  0.00    +0.000 C 
ATOM      8  N   UNL     1      51.014   4.324  19.512  0.00  0.00    +0.000 N 
ATOM      9  C   UNL     1      49.877   5.070  19.286  0.00  0.00    +0.000 C 
ATOM     10  O   UNL     1      49.573   6.062  19.941  0.00  0.00    +0.000 OA
ATOM     11  H   UNL     1      51.310   3.632  18.838  0.00  0.00    +0.000 HD
ENDBRANCH   1   9
BRANCH   4  12
ATOM     12  O   UNL     1      46.727   3.678  14.874  0.00  0.00    +0.000 OA
BRANCH  12  13
ATOM     13  C   UNL     1      46.595   4.775  13.966  0.00  0.00    +0.000 C 
BRANCH  13  14
ATOM     14  C   UNL     1      45.364   4.575  13.114  0.00  0.00    +0.000 A 
ATOM     15  C   UNL     1      44.400   5.589  13.015  0.00  0.00    +0.000 A 
ATOM     16  C   UNL     1      43.269   5.415  12.217  0.00  0.00    +0.000 A 
ATOM     17  C   UNL     1      43.087   4.225  11.515  0.00  0.00    +0.000 A 
ATOM     18  C   UNL     1      44.033   3.206  11.615  0.00  0.00    +0.000 A 
ATOM     19  C   UNL     1      45.166   3.378  12.414  0.00  0.00    +0.000 A 
ENDBRANCH  13  14
ENDBRANCH  12  13
ENDBRANCH   4  12
TORSDOF 4
ENDMDL
MODEL 6
REMARK VINA RESULT:    -5.338      2.092      8.236
REMARK INTER + INTRA:          -7.089
REMARK INTER:                  -6.739
REMARK INTRA:                  -0.350
REMARK UNBOUND:                -0.504
REMARK  Name = 
REMARK  5 active torsions:
REMARK  status: ('A' for Active; 'I' for Inactive)
REMARK    1  A    between atoms: C_1  and  N_2
REMARK    2  A    between atoms: C_3  and  C_5
REMARK    3  A    between atoms: C_8  and  O_9
REMARK    4  A    between atoms: O_9  and  C_10
REMARK    5  A    between atoms: C_10  and  C_11
REMARK                            x       y       z     vdW  Elec       q    Type
REMARK                         _______ _______ _______ _____ _____    ______ ____
ROOT
ATOM      1  C   UNL     1      45.488   4.278  12.036  0.00  0.00    +0.000 A 
ATOM      2  C   UNL     1      45.863   5.566  12.433  0.00  0.00    +0.000 A 
ATOM      3  C   UNL     1      46.641   5.728  13.583  0.00  0.00    +0.000 A 
ATOM      4  C   UNL     1      47.038   4.594  14.277  0.00  0.00    +0.000 A 
ATOM      5  N   UNL     1      46.680   3.341  13.923  0.00  0.00    +0.000 NA
ATOM      6  C   UNL     1      45.901   3.212  12.823  0.00  0.00    +0.000 A 
ENDROOT
BRANCH   1   9
ATOM      7  C   UNL     1      44.515   3.990   8.401  0.00  0.00    +0.000 C 
ATOM      8  N   UNL     1      45.234   4.259   9.621  0.00  0.00    +0.000 N 
ATOM      9  C   UNL     1      44.657   3.999  10.846  0.00  0.00    +0.000 C 
ATOM     10  O   UNL     1      43.532   3.529  10.981  0.00  0.00    +0.000 OA
ATOM     11  H   UNL     1      46.219   4.473   9.559  0.00  0.00    +0.000 HD
ENDBRANCH   1   9
BRANCH   4  12
ATOM     12  O   UNL     1      47.809   4.780  15.405  0.00  0.00    +0.000 OA
BRANCH  12  13
ATOM     13  C   UNL     1      47.590   3.745  16.367  0.00  0.00    +0.000 C 
BRANCH  13  14
ATOM     14  C   UNL     1      47.796   4.301  17.756  0.00  0.00    +0.000 A 
ATOM     15  C   UNL     1      48.697   3.686  18.638  0.00  0.00    +0.000 A 
ATOM     16  C   UNL     1      48.903   4.205  19.917  0.00  0.00    +0.000 A 
ATOM     17  C   UNL     1      48.206   5.339  20.330  0.00  0.00    +0.000 A 
ATOM     18  C   UNL     1      47.300   5.951  19.466  0.00  0.00    +0.000 A 
ATOM     19  C   UNL     1      47.092   5.434  18.185  0.00  0.00    +0.000 A 
ENDBRANCH  13  14
ENDBRANCH  12  13
ENDBRANCH   4  12
TORSDOF 4
ENDMDL
MODEL 7
REMARK VINA RESULT:    -5.321      2.588      7.647
REMARK INTER + INTRA:          -7.069
REMARK INTER:                  -6.645
REMARK INTRA:                  -0.424
REMARK UNBOUND:                -0.504
REMARK  Name = 
REMARK  5 active torsions:
REMARK  status: ('A' for Active; 'I' for Inactive)
REMARK    1  A    between atoms: C_1  and  N_2
REMARK    2  A    between atoms: C_3  and  C_5
REMARK    3  A    between atoms: C_8  and  O_9
REMARK    4  A    between atoms: O_9  and  C_10
REMARK    5  A    between atoms: C_10  and  C_11
REMARK                            x       y       z     vdW  Elec       q    Type
REMARK                         _______ _______ _______ _____ _____    ______ ____
ROOT
ATOM      1  C   UNL     1      46.239   5.229  12.556  0.00  0.00    +0.000 A 
ATOM      2  C   UNL     1      47.186   6.148  13.020  0.00  0.00    +0.000 A 
ATOM      3  C   UNL     1      47.728   5.985  14.298  0.00  0.00    +0.000 A 
ATOM      4  C   UNL     1      47.322   4.895  15.054  0.00  0.00    +0.000 A 
ATOM      5  N   UNL     1      46.400   4.000  14.636  0.00  0.00    +0.000 NA
ATOM      6  C   UNL     1      45.868   4.197  13.406  0.00  0.00    +0.000 A 
ENDROOT
BRANCH   1   9
ATOM      7  C   UNL     1      44.173   4.223   9.562  0.00  0.00    +0.000 C 
ATOM      8  N   UNL     1      44.863   4.220  10.828  0.00  0.00    +0.000 N 
ATOM      9  C   UNL     1      45.597   5.317  11.228  0.00  0.00    +0.000 C 
ATOM     10  O   UNL     1      45.707   6.341  10.562  0.00  0.00    +0.000 OA
ATOM     11  H   UNL     1      44.656   3.481  11.484  0.00  0.00    +0.000 HD
ENDBRANCH   1   9
BRANCH   4  12
ATOM     12  O   UNL     1      47.874   4.755  16.310  0.00  0.00    +0.000 OA
BRANCH  12  13
ATOM     13  C   UNL     1      48.037   3.378  16.661  0.00  0.00    +0.000 C 
BRANCH  13  14
ATOM     14  C   UNL     1      49.463   3.139  17.098  0.00  0.00    +0.000 A 
ATOM     15  C   UNL     1      50.035   1.864  16.977  0.00  0.00    +0.000 A 
ATOM     16  C   UNL     1      51.357   1.641  17.365  0.00  0.00    +0.000 A 
ATOM     17  C   UNL     1      52.118   2.688  17.882  0.00  0.00    +0.000 A 
ATOM     18  C   UNL     1      51.556   3.955  18.018  0.00  0.00    +0.000 A 
ATOM     19  C   UNL     1      50.232   4.181  17.631  0.00  0.00    +0.000 A 
ENDBRANCH  13  14
ENDBRANCH  12  13
ENDBRANCH   4  12
TORSDOF 4
ENDMDL
MODEL 8
REMARK VINA RESULT:    -5.246      3.458      6.764
REMARK INTER + INTRA:          -6.976
REMARK INTER:                  -6.491
REMARK INTRA:                  -0.485
REMARK UNBOUND:                -0.504
REMARK  Name = 
REMARK  5 active torsions:
REMARK  status: ('A' for Active; 'I' for Inactive)
REMARK    1  A    between atoms: C_1  and  N_2
REMARK    2  A    between atoms: C_3  and  C_5
REMARK    3  A    between atoms: C_8  and  O_9
REMARK    4  A    between atoms: O_9  and  C_10
REMARK    5  A    between atoms: C_10  and  C_11
REMARK                            x       y       z     vdW  Elec       q    Type
REMARK                         _______ _______ _______ _____ _____    ______ ____
ROOT
ATOM      1  C   UNL     1      44.599   4.699  11.433  0.00  0.00    +0.000 A 
ATOM      2  C   UNL     1      45.612   4.780  12.395  0.00  0.00    +0.000 A 
ATOM      3  C   UNL     1      45.931   6.023  12.948  0.00  0.00    +0.000 A 
ATOM      4  C   UNL     1      45.208   7.134  12.539  0.00  0.00    +0.000 A 
ATOM      5  N   UNL     1      44.235   7.087  11.604  0.00  0.00    +0.000 NA
ATOM      6  C   UNL     1      43.965   5.876  11.061  0.00  0.00    +0.000 A 
ENDROOT
BRANCH   1   9
ATOM      7  C   UNL     1      44.684   1.776   9.047  0.00  0.00    +0.000 C 
ATOM      8  N   UNL     1      44.981   3.011   9.730  0.00  0.00    +0.000 N 
ATOM      9  C   UNL     1      44.193   3.438  10.778  0.00  0.00    +0.000 C 
ATOM     10  O   UNL     1      43.221   2.818  11.194  0.00  0.00    +0.000 OA
ATOM     11  H   UNL     1      45.866   3.460   9.544  0.00  0.00    +0.000 HD
ENDBRANCH   1   9
BRANCH   4  12
ATOM     12  O   UNL     1      45.540   8.348  13.103  0.00  0.00    +0.000 OA
BRANCH  12  13
ATOM     13  C   UNL     1      46.932   8.416  13.421  0.00  0.00    +0.000 C 
BRANCH  13  14
ATOM     14  C   UNL     1      47.617   9.372  12.473  0.00  0.00    +0.000 A 
ATOM     15  C   UNL     1      46.929  10.489  11.977  0.00  0.00    +0.000 A 
ATOM     16  C   UNL     1      47.561  11.384  11.113  0.00  0.00    +0.000 A 
ATOM     17  C   UNL     1      48.884  11.169  10.732  0.00  0.00    +0.000 A 
ATOM     18  C   UNL     1      49.574  10.056  11.210  0.00  0.00    +0.000 A 
ATOM     19  C   UNL     1      48.943   9.158  12.075  0.00  0.00    +0.000 A 
ENDBRANCH  13  14
ENDBRANCH  12  13
ENDBRANCH   4  12
TORSDOF 4
ENDMDL
MODEL 9
REMARK VINA RESULT:    -5.188      2.556      4.361
REMARK INTER + INTRA:          -6.905
REMARK INTER:                  -6.525
REMARK INTRA:                  -0.380
REMARK UNBOUND:                -0.504
REMARK  Name = 
REMARK  5 active torsions:
REMARK  status: ('A' for Active; 'I' for Inactive)
REMARK    1  A    between atoms: C_1  and  N_2
REMARK    2  A    between atoms: C_3  and  C_5
REMARK    3  A    between atoms: C_8  and  O_9
REMARK    4  A    between atoms: O_9  and  C_10
REMARK    5  A    between atoms: C_10  and  C_11
REMARK                            x       y       z     vdW  Elec       q    Type
REMARK                         _______ _______ _______ _____ _____    ______ ____
ROOT
ATOM      1  C   UNL     1      48.368   5.482  17.014  0.00  0.00    +0.000 A 
ATOM      2  C   UNL     1      48.451   6.089  15.757  0.00  0.00    +0.000 A 
ATOM      3  C   UNL     1      47.757   5.530  14.680  0.00  0.00    +0.000 A 
ATOM      4  C   UNL     1      46.985   4.399  14.907  0.00  0.00    +0.000 A 
ATOM      5  N   UNL     1      46.898   3.786  16.107  0.00  0.00    +0.000 NA
ATOM      6  C   UNL     1      47.603   4.330  17.127  0.00  0.00    +0.000 A 
ENDROOT
BRANCH   1   9
ATOM      7  C   UNL     1      50.652   5.497  20.019  0.00  0.00    +0.000 C 
ATOM      8  N   UNL     1      49.899   5.091  18.858  0.00  0.00    +0.000 N 
ATOM      9  C   UNL     1      49.071   5.985  18.213  0.00  0.00    +0.000 C 
ATOM     10  O   UNL     1      48.926   7.151  18.563  0.00  0.00    +0.000 OA
ATOM     11  H   UNL     1      50.121   4.204  18.429  0.00  0.00    +0.000 HD
ENDBRANCH   1   9
BRANCH   4  12
ATOM     12  O   UNL     1      46.308   3.869  13.830  0.00  0.00    +0.000 OA
BRANCH  12  13
ATOM     13  C   UNL     1      45.388   4.811  13.272  0.00  0.00    +0.000 C 
BRANCH  13  14
ATOM     14  C   UNL     1      45.226   4.538  11.795  0.00  0.00    +0.000 A 
ATOM     15  C   UNL     1      45.635   5.491  10.851  0.00  0.00    +0.000 A 
ATOM     16  C   UNL     1      45.502   5.237   9.485  0.00  0.00    +0.000 A 
ATOM     17  C   UNL     1      44.953   4.032   9.050  0.00  0.00    +0.000 A 
ATOM     18  C   UNL     1      44.533   3.083   9.980  0.00  0.00    +0.000 A 
ATOM     19  C   UNL     1      44.665   3.335  11.347  0.00  0.00    +0.000 A 
ENDBRANCH  13  14
ENDBRANCH  12  13
ENDBRANCH   4  12
TORSDOF 4
ENDMDL
