MODEL 1
REMARK VINA RESULT:    -8.740      0.000      0.000
REMARK INTER + INTRA:         -12.044
REMARK INTER:                 -11.295
REMARK INTRA:                  -0.749
REMARK UNBOUND:                -0.749
REMARK  Name = 
REMARK  5 active torsions:
REMARK  status: ('A' for Active; 'I' for Inactive)
REMARK    1  A    between atoms: C_2  and  C_4
REMARK    2  A    between atoms: C_7  and  O_8
REMARK    3  A    between atoms: O_8  and  C_9
REMARK    4  A    between atoms: C_9  and  C_10
REMARK    5  A    between atoms: C_14  and  C_15
REMARK                            x       y       z     vdW  Elec       q    Type
REMARK                         _______ _______ _______ _____ _____    ______ ____
ROOT
ATOM      1  C   UNL     1      43.744   4.423  11.273  0.00  0.00    +0.000 C 
ENDROOT
BRANCH   1   2
ATOM      2  C   UNL     1      44.831   5.271  11.889  0.00  0.00    +0.000 A 
ATOM      3  C   UNL     1      45.099   6.546  11.389  0.00  0.00    +0.000 A 
ATOM      4  C   UNL     1      46.063   7.313  12.020  0.00  0.00    +0.000 A 
ATOM      5  N   UNL     1      46.766   6.902  13.098  0.00  0.00    +0.000 NA
ATOM      6  C   UNL     1      46.510   5.663  13.585  0.00  0.00    +0.000 A 
ATOM      7  C   UNL     1      45.538   4.840  13.016  0.00  0.00    +0.000 A 
BRANCH   6   8
ATOM      8  C   UNL     1      47.311   5.246  14.744  0.00  0.00    +0.000 A 
ATOM      9  C   UNL     1      48.378   6.020  15.212  0.00  0.00    +0.000 A 
ATOM     10  N   UNL     1      49.150   5.716  16.290  0.00  0.00    +0.000 NA
ATOM     11  C   UNL     1      48.854   4.565  16.934  0.00  0.00    +0.000 A 
ATOM     12  C   UNL     1      47.834   3.719  16.546  0.00  0.00    +0.000 A 
ATOM     13  F   UNL     1      47.588   2.588  17.218  0.00  0.00    +0.000 F 
ATOM     14  C   UNL     1      47.059   4.056  15.445  0.00  0.00    +0.000 A 
ENDBRANCH   6   8
ENDBRANCH   1   2
BRANCH   1  15
ATOM     15  O   UNL     1      43.656   4.669   9.865  0.00  0.00    +0.000 OA
BRANCH  15  19
ATOM     16  C   UNL     1      46.384   2.419   7.763  0.00  0.00    +0.000 A 
ATOM     17  C   UNL     1      45.552   1.797   8.697  0.00  0.00    +0.000 A 
ATOM     18  C   UNL     1      44.632   2.571   9.407  0.00  0.00    +0.000 A 
ATOM     19  C   UNL     1      44.580   3.933   9.154  0.00  0.00    +0.000 A 
ATOM     20  N   UNL     1      45.378   4.561   8.264  0.00  0.00    +0.000 NA
ATOM     21  C   UNL     1      46.270   3.792   7.596  0.00  0.00    +0.000 A 
BRANCH  16  23
ATOM     22  N   UNL     1      48.422   2.431   6.443  0.00  0.00    +0.000 N 
ATOM     23  C   UNL     1      47.388   1.700   6.955  0.00  0.00    +0.000 C 
ATOM     24  O   UNL     1      47.322   0.489   6.789  0.00  0.00    +0.000 OA
ATOM     25  H   UNL     1      49.163   1.901   6.001  0.00  0.00    +0.000 HD
ATOM     26  H   UNL     1      48.648   3.359   6.773  0.00  0.00    +0.000 HD
ENDBRANCH  16  23
ENDBRANCH  15  19
ENDBRANCH   1  15
TORSDOF 5
ENDMDL
MODEL 2
REMARK VINA RESULT:    -8.441      2.515      3.788
REMARK INTER + INTRA:         -11.658
REMARK INTER:                 -10.936
REMARK INTRA:                  -0.722
REMARK UNBOUND:                -0.749
REMARK  Name = 
REMARK  5 active torsions:
REMARK  status: ('A' for Active; 'I' for Inactive)
REMARK    1  A    between atoms: C_2  and  C_4
REMARK    2  A    between atoms: C_7  and  O_8
REMARK    3  A    between atoms: O_8  and  C_9
REMARK    4  A    between atoms: C_9  and  C_10
REMARK    5  A    between atoms: C_14  and  C_15
REMARK                            x       y       z     vdW  Elec       q    Type
REMARK                         _______ _______ _______ _____ _____    ______ ____
ROOT
ATOM      1  C   UNL     1      43.665   4.142  11.207  0.00  0.00    +0.000 C 
ENDROOT
BRANCH   1   2
ATOM      2  C   UNL     1      44.852   4.698  11.957  0.00  0.00    +0.000 A 
ATOM      3  C   UNL     1      45.534   3.909  12.883  0.00  0.00    +0.000 A 
ATOM      4  C   UNL     1      46.651   4.437  13.505  0.00  0.00    +0.000 A 
ATOM      5  N   UNL     1      47.128   5.679  13.269  0.00  0.00    +0.000 NA
ATOM      6  C   UNL     1      46.467   6.450  12.371  0.00  0.00    +0.000 A 
ATOM      7  C   UNL     1      45.345   5.979  11.689  0.00  0.00    +0.000 A 
BRANCH   6   8
ATOM      8  C   UNL     1      47.003   7.801  12.160  0.00  0.00    +0.000 A 
ATOM      9  C   UNL     1      46.193   8.936  12.272  0.00  0.00    +0.000 A 
ATOM     10  N   UNL     1      46.618  10.218  12.116  0.00  0.00    +0.000 NA
ATOM     11  C   UNL     1      47.925  10.384  11.814  0.00  0.00    +0.000 A 
ATOM     12  C   UNL     1      48.808   9.334  11.662  0.00  0.00    +0.000 A 
ATOM     13  F   UNL     1      50.092   9.556  11.358  0.00  0.00    +0.000 F 
ATOM     14  C   UNL     1      48.348   8.035  11.833  0.00  0.00    +0.000 A 
ENDBRANCH   6   8
ENDBRANCH   1   2
BRANCH   1  15
ATOM     15  O   UNL     1      43.701   4.555   9.837  0.00  0.00    +0.000 OA
BRANCH  15  19
ATOM     16  C   UNL     1      46.557   2.489   7.715  0.00  0.00    +0.000 A 
ATOM     17  C   UNL     1      45.692   1.794   8.561  0.00  0.00    +0.000 A 
ATOM     18  C   UNL     1      44.728   2.505   9.280  0.00  0.00    +0.000 A 
ATOM     19  C   UNL     1      44.669   3.882   9.120  0.00  0.00    +0.000 A 
ATOM     20  N   UNL     1      45.498   4.580   8.316  0.00  0.00    +0.000 NA
ATOM     21  C   UNL     1      46.431   3.869   7.639  0.00  0.00    +0.000 A 
BRANCH  16  23
ATOM     22  N   UNL     1      48.437   2.653   6.187  0.00  0.00    +0.000 N 
ATOM     23  C   UNL     1      47.609   1.841   6.907  0.00  0.00    +0.000 C 
ATOM     24  O   UNL     1      47.760   0.626   6.918  0.00  0.00    +0.000 OA
ATOM     25  H   UNL     1      49.226   2.198   5.743  0.00  0.00    +0.000 HD
ATOM     26  H   UNL     1      48.509   3.646   6.357  0.00  0.00    +0.000 HD
ENDBRANCH  16  23
ENDBRANCH  15  19
ENDBRANCH   1  15
TORSDOF 5
ENDMDL
MODEL 3
REMARK VINA RESULT:    -8.285      2.682      3.296
REMARK INTER + INTRA:         -11.456
REMARK INTER:                 -10.740
REMARK INTRA:                  -0.716
REMARK UNBOUND:                -0.749
REMARK  Name = 
REMARK  5 active torsions:
REMARK  status: ('A' for Active; 'I' for Inactive)
REMARK    1  A    between atoms: C_2  and  C_4
REMARK    2  A    between atoms: C_7  and  O_8
REMARK    3  A    between atoms: O_8  and  C_9
REMARK    4  A    between atoms: C_9  and  C_10
REMARK    5  A    between atoms: C_14  and  C_15
REMARK                            x       y       z     vdW  Elec       q    Type
REMARK                         _______ _______ _______ _____ _____    ______ ____
ROOT
ATOM      1  C   UNL     1      44.385   5.794  10.633  0.00  0.00    +0.000 C 
ENDROOT
BRANCH   1   2
ATOM      2  C   UNL     1      45.415   5.601  11.720  0.00  0.00    +0.000 A 
ATOM      3  C   UNL     1      45.264   4.584  12.663  0.00  0.00    +0.000 A 
ATOM      4  C   UNL     1      46.260   4.405  13.606  0.00  0.00    +0.000 A 
ATOM      5  N   UNL     1      47.380   5.158  13.671  0.00  0.00    +0.000 NA
ATOM      6  C   UNL     1      47.530   6.149  12.758  0.00  0.00    +0.000 A 
ATOM      7  C   UNL     1      46.578   6.377  11.764  0.00  0.00    +0.000 A 
BRANCH   6   8
ATOM      8  C   UNL     1      48.749   6.959  12.877  0.00  0.00    +0.000 A 
ATOM      9  C   UNL     1      49.387   7.144  14.108  0.00  0.00    +0.000 A 
ATOM     10  N   UNL     1      50.530   7.857  14.297  0.00  0.00    +0.000 NA
ATOM     11  C   UNL     1      51.064   8.435  13.199  0.00  0.00    +0.000 A 
ATOM     12  C   UNL     1      50.507   8.332  11.939  0.00  0.00    +0.000 A 
ATOM     13  F   UNL     1      51.076   8.930  10.886  0.00  0.00    +0.000 F 
ATOM     14  C   UNL     1      49.343   7.593  11.775  0.00  0.00    +0.000 A 
ENDBRANCH   6   8
ENDBRANCH   1   2
BRANCH   1  15
ATOM     15  O   UNL     1      43.874   4.529  10.198  0.00  0.00    +0.000 OA
BRANCH  15  19
ATOM     16  C   UNL     1      46.485   2.519   7.733  0.00  0.00    +0.000 A 
ATOM     17  C   UNL     1      45.735   1.806   8.670  0.00  0.00    +0.000 A 
ATOM     18  C   UNL     1      44.854   2.498   9.505  0.00  0.00    +0.000 A 
ATOM     19  C   UNL     1      44.758   3.874   9.366  0.00  0.00    +0.000 A 
ATOM     20  N   UNL     1      45.477   4.590   8.475  0.00  0.00    +0.000 NA
ATOM     21  C   UNL     1      46.332   3.898   7.686  0.00  0.00    +0.000 A 
BRANCH  16  23
ATOM     22  N   UNL     1      48.519   2.635   6.413  0.00  0.00    +0.000 N 
ATOM     23  C   UNL     1      47.441   1.892   6.800  0.00  0.00    +0.000 C 
ATOM     24  O   UNL     1      47.297   0.736   6.425  0.00  0.00    +0.000 OA
ATOM     25  H   UNL     1      49.224   2.144   5.876  0.00  0.00    +0.000 HD
ATOM     26  H   UNL     1      48.803   3.474   6.897  0.00  0.00    +0.000 HD
ENDBRANCH  16  23
ENDBRANCH  15  19
ENDBRANCH   1  15
TORSDOF 5
ENDMDL
MODEL 4
REMARK VINA RESULT:    -8.229      2.919      4.429
REMARK INTER + INTRA:         -11.384
REMARK INTER:                 -10.566
REMARK INTRA:                  -0.818
REMARK UNBOUND:                -0.749
REMARK  Name = 
REMARK  5 active torsions:
REMARK  status: ('A' for Active; 'I' for Inactive)
REMARK    1  A    between atoms: C_2  and  C_4
REMARK    2  A    between atoms: C_7  and  O_8
REMARK    3  A    between atoms: O_8  and  C_9
REMARK    4  A    between atoms: C_9  and  C_10
REMARK    5  A    between atoms: C_14  and  C_15
REMARK                            x       y       z     vdW  Elec       q    Type
REMARK                         _______ _______ _______ _____ _____    ______ ____
ROOT
ATOM      1  C   UNL     1      43.979   3.390  11.560  0.00  0.00    +0.000 C 
ENDROOT
BRANCH   1   2
ATOM      2  C   UNL     1      44.866   4.472  12.130  0.00  0.00    +0.000 A 
ATOM      3  C   UNL     1      45.918   4.144  12.985  0.00  0.00    +0.000 A 
ATOM      4  C   UNL     1      46.742   5.159  13.438  0.00  0.00    +0.000 A 
ATOM      5  N   UNL     1      46.591   6.459  13.100  0.00  0.00    +0.000 NA
ATOM      6  C   UNL     1      45.568   6.783  12.272  0.00  0.00    +0.000 A 
ATOM      7  C   UNL     1      44.708   5.811  11.758  0.00  0.00    +0.000 A 
BRANCH   6   8
ATOM      8  C   UNL     1      45.424   8.208  11.948  0.00  0.00    +0.000 A 
ATOM      9  C   UNL     1      46.362   9.153  12.376  0.00  0.00    +0.000 A 
ATOM     10  N   UNL     1      46.313  10.484  12.098  0.00  0.00    +0.000 NA
ATOM     11  C   UNL     1      45.261  10.904  11.362  0.00  0.00    +0.000 A 
ATOM     12  C   UNL     1      44.269  10.060  10.903  0.00  0.00    +0.000 A 
ATOM     13  F   UNL     1      43.246  10.531  10.182  0.00  0.00    +0.000 F 
ATOM     14  C   UNL     1      44.347   8.705  11.198  0.00  0.00    +0.000 A 
ENDBRANCH   6   8
ENDBRANCH   1   2
BRANCH   1  15
ATOM     15  O   UNL     1      43.589   3.718  10.222  0.00  0.00    +0.000 OA
BRANCH  15  19
ATOM     16  C   UNL     1      46.455   2.598   7.491  0.00  0.00    +0.000 A 
ATOM     17  C   UNL     1      45.947   1.652   8.383  0.00  0.00    +0.000 A 
ATOM     18  C   UNL     1      44.978   2.043   9.308  0.00  0.00    +0.000 A 
ATOM     19  C   UNL     1      44.553   3.364   9.302  0.00  0.00    +0.000 A 
ATOM     20  N   UNL     1      45.033   4.301   8.457  0.00  0.00    +0.000 NA
ATOM     21  C   UNL     1      45.981   3.900   7.577  0.00  0.00    +0.000 A 
BRANCH  16  23
ATOM     22  N   UNL     1      47.443   3.020   5.313  0.00  0.00    +0.000 N 
ATOM     23  C   UNL     1      47.478   2.296   6.470  0.00  0.00    +0.000 C 
ATOM     24  O   UNL     1      48.350   1.462   6.673  0.00  0.00    +0.000 OA
ATOM     25  H   UNL     1      48.225   2.886   4.683  0.00  0.00    +0.000 HD
ATOM     26  H   UNL     1      46.915   3.876   5.223  0.00  0.00    +0.000 HD
ENDBRANCH  16  23
ENDBRANCH  15  19
ENDBRANCH   1  15
TORSDOF 5
ENDMDL
MODEL 5
REMARK VINA RESULT:    -8.135      2.606      3.157
REMARK INTER + INTRA:         -11.262
REMARK INTER:                 -10.544
REMARK INTRA:                  -0.718
REMARK UNBOUND:                -0.749
REMARK  Name = 
REMARK  5 active torsions:
REMARK  status: ('A' for Active; 'I' for Inactive)
REMARK    1  A    between atoms: C_2  and  C_4
REMARK    2  A    between atoms: C_7  and  O_8
REMARK    3  A    between atoms: O_8  and  C_9
REMARK    4  A    between atoms: C_9  and  C_10
REMARK    5  A    between atoms: C_14  and  C_15
REMARK                            x       y       z     vdW  Elec       q    Type
REMARK                         _______ _______ _______ _____ _____    ______ ____
ROOT
ATOM      1  C   UNL     1      44.142   3.468  11.597  0.00  0.00    +0.000 C 
ENDROOT
BRANCH   1   2
ATOM      2  C   UNL     1      44.603   4.903  11.677  0.00  0.00    +0.000 A 
ATOM      3  C   UNL     1      43.711   5.946  11.424  0.00  0.00    +0.000 A 
ATOM      4  C   UNL     1      44.159   7.247  11.565  0.00  0.00    +0.000 A 
ATOM      5  N   UNL     1      45.416   7.575  11.938  0.00  0.00    +0.000 NA
ATOM      6  C   UNL     1      46.287   6.565  12.183  0.00  0.00    +0.000 A 
ATOM      7  C   UNL     1      45.902   5.228  12.082  0.00  0.00    +0.000 A 
BRANCH   6   8
ATOM      8  C   UNL     1      47.649   6.963  12.563  0.00  0.00    +0.000 A 
ATOM      9  C   UNL     1      48.188   6.624  13.809  0.00  0.00    +0.000 A 
ATOM     10  N   UNL     1      49.446   6.932  14.225  0.00  0.00    +0.000 NA
ATOM     11  C   UNL     1      50.210   7.634  13.359  0.00  0.00    +0.000 A 
ATOM     12  C   UNL     1      49.770   8.035  12.112  0.00  0.00    +0.000 A 
ATOM     13  F   UNL     1      50.568   8.733  11.296  0.00  0.00    +0.000 F 
ATOM     14  C   UNL     1      48.484   7.701  11.710  0.00  0.00    +0.000 A 
ENDBRANCH   6   8
ENDBRANCH   1   2
BRANCH   1  15
ATOM     15  O   UNL     1      43.552   3.203  10.319  0.00  0.00    +0.000 OA
BRANCH  15  19
ATOM     16  C   UNL     1      46.397   2.574   7.414  0.00  0.00    +0.000 A 
ATOM     17  C   UNL     1      45.748   3.808   7.487  0.00  0.00    +0.000 A 
ATOM     18  C   UNL     1      44.781   4.010   8.474  0.00  0.00    +0.000 A 
ATOM     19  C   UNL     1      44.505   2.970   9.350  0.00  0.00    +0.000 A 
ATOM     20  N   UNL     1      45.111   1.765   9.297  0.00  0.00    +0.000 NA
ATOM     21  C   UNL     1      46.036   1.590   8.324  0.00  0.00    +0.000 A 
BRANCH  16  23
ATOM     22  N   UNL     1      47.523   3.061   5.319  0.00  0.00    +0.000 N 
ATOM     23  C   UNL     1      47.435   2.253   6.416  0.00  0.00    +0.000 C 
ATOM     24  O   UNL     1      48.217   1.326   6.588  0.00  0.00    +0.000 OA
ATOM     25  H   UNL     1      48.319   2.900   4.714  0.00  0.00    +0.000 HD
ATOM     26  H   UNL     1      47.082   3.968   5.275  0.00  0.00    +0.000 HD
ENDBRANCH  16  23
ENDBRANCH  15  19
ENDBRANCH   1  15
TORSDOF 5
ENDMDL
MODEL 6
REMARK VINA RESULT:    -7.567      3.734      7.234
REMARK INTER + INTRA:         -10.528
REMARK INTER:                  -9.713
REMARK INTRA:                  -0.816
REMARK UNBOUND:                -0.749
REMARK  Name = 
REMARK  5 active torsions:
REMARK  status: ('A' for Active; 'I' for Inactive)
REMARK    1  A    between atoms: C_2  and  C_4
REMARK    2  A    between atoms: C_7  and  O_8
REMARK    3  A    between atoms: O_8  and  C_9
REMARK    4  A    between atoms: C_9  and  C_10
REMARK    5  A    between atoms: C_14  and  C_15
REMARK                            x       y       z     vdW  Elec       q    Type
REMARK                         _______ _______ _______ _____ _____    ______ ____
ROOT
ATOM      1  C   UNL     1      43.501   6.270  11.386  0.00  0.00    +0.000 C 
ENDROOT
BRANCH   1   2
ATOM      2  C   UNL     1      43.765   4.824  11.041  0.00  0.00    +0.000 A 
ATOM      3  C   UNL     1      43.182   3.803  11.792  0.00  0.00    +0.000 A 
ATOM      4  C   UNL     1      43.403   2.492  11.407  0.00  0.00    +0.000 A 
ATOM      5  N   UNL     1      44.152   2.136  10.340  0.00  0.00    +0.000 NA
ATOM      6  C   UNL     1      44.723   3.125   9.610  0.00  0.00    +0.000 A 
ATOM      7  C   UNL     1      44.528   4.471   9.924  0.00  0.00    +0.000 A 
BRANCH   6   8
ATOM      8  C   UNL     1      45.548   2.697   8.473  0.00  0.00    +0.000 A 
ATOM      9  C   UNL     1      46.091   1.409   8.408  0.00  0.00    +0.000 A 
ATOM     10  N   UNL     1      46.843   0.929   7.381  0.00  0.00    +0.000 NA
ATOM     11  C   UNL     1      47.083   1.784   6.363  0.00  0.00    +0.000 A 
ATOM     12  C   UNL     1      46.610   3.081   6.333  0.00  0.00    +0.000 A 
ATOM     13  F   UNL     1      46.882   3.887   5.300  0.00  0.00    +0.000 F 
ATOM     14  C   UNL     1      45.840   3.543   7.392  0.00  0.00    +0.000 A 
ENDBRANCH   6   8
ENDBRANCH   1   2
BRANCH   1  15
ATOM     15  O   UNL     1      44.035   6.582  12.677  0.00  0.00    +0.000 OA
BRANCH  15  19
ATOM     16  C   UNL     1      48.093   7.248  12.542  0.00  0.00    +0.000 A 
ATOM     17  C   UNL     1      47.218   8.228  12.069  0.00  0.00    +0.000 A 
ATOM     18  C   UNL     1      45.843   7.991  12.116  0.00  0.00    +0.000 A 
ATOM     19  C   UNL     1      45.399   6.784  12.636  0.00  0.00    +0.000 A 
ATOM     20  N   UNL     1      46.222   5.816  13.093  0.00  0.00    +0.000 NA
ATOM     21  C   UNL     1      47.552   6.066  13.026  0.00  0.00    +0.000 A 
BRANCH  16  23
ATOM     22  N   UNL     1      50.192   7.372  13.755  0.00  0.00    +0.000 N 
ATOM     23  C   UNL     1      49.562   7.394  12.545  0.00  0.00    +0.000 C 
ATOM     24  O   UNL     1      50.193   7.484  11.500  0.00  0.00    +0.000 OA
ATOM     25  H   UNL     1      51.205   7.346  13.726  0.00  0.00    +0.000 HD
ATOM     26  H   UNL     1      49.743   7.041  14.597  0.00  0.00    +0.000 HD
ENDBRANCH  16  23
ENDBRANCH  15  19
ENDBRANCH   1  15
TORSDOF 5
ENDMDL
MODEL 7
REMARK VINA RESULT:    -7.419      3.759      8.520
REMARK INTER + INTRA:         -10.337
REMARK INTER:                  -9.828
REMARK INTRA:                  -0.510
REMARK UNBOUND:                -0.749
REMARK  Name = 
REMARK  5 active torsions:
REMARK  status: ('A' for Active; 'I' for Inactive)
REMARK    1  A    between atoms: C_2  and  C_4
REMARK    2  A    between atoms: C_7  and  O_8
REMARK    3  A    between atoms: O_8  and  C_9
REMARK    4  A    between atoms: C_9  and  C_10
REMARK    5  A    between atoms: C_14  and  C_15
REMARK                            x       y       z     vdW  Elec       q    Type
REMARK                         _______ _______ _______ _____ _____    ______ ____
ROOT
ATOM      1  C   UNL     1      45.858   4.757  13.931  0.00  0.00    +0.000 C 
ENDROOT
BRANCH   1   2
ATOM      2  C   UNL     1      45.063   4.263  12.747  0.00  0.00    +0.000 A 
ATOM      3  C   UNL     1      43.677   4.132  12.833  0.00  0.00    +0.000 A 
ATOM      4  C   UNL     1      42.980   3.732  11.706  0.00  0.00    +0.000 A 
ATOM      5  N   UNL     1      43.563   3.459  10.518  0.00  0.00    +0.000 NA
ATOM      6  C   UNL     1      44.910   3.581  10.431  0.00  0.00    +0.000 A 
ATOM      7  C   UNL     1      45.677   4.001  11.518  0.00  0.00    +0.000 A 
BRANCH   6   8
ATOM      8  C   UNL     1      45.507   3.253   9.129  0.00  0.00    +0.000 A 
ATOM      9  C   UNL     1      45.788   4.245   8.183  0.00  0.00    +0.000 A 
ATOM     10  N   UNL     1      46.360   4.026   6.969  0.00  0.00    +0.000 NA
ATOM     11  C   UNL     1      46.658   2.743   6.668  0.00  0.00    +0.000 A 
ATOM     12  C   UNL     1      46.407   1.686   7.521  0.00  0.00    +0.000 A 
ATOM     13  F   UNL     1      46.718   0.433   7.170  0.00  0.00    +0.000 F 
ATOM     14  C   UNL     1      45.826   1.938   8.757  0.00  0.00    +0.000 A 
ENDBRANCH   6   8
ENDBRANCH   1   2
BRANCH   1  15
ATOM     15  O   UNL     1      46.768   3.746  14.380  0.00  0.00    +0.000 OA
BRANCH  15  19
ATOM     16  C   UNL     1      48.311   4.659  18.083  0.00  0.00    +0.000 A 
ATOM     17  C   UNL     1      48.493   5.550  17.023  0.00  0.00    +0.000 A 
ATOM     18  C   UNL     1      47.968   5.229  15.769  0.00  0.00    +0.000 A 
ATOM     19  C   UNL     1      47.282   4.031  15.628  0.00  0.00    +0.000 A 
ATOM     20  N   UNL     1      47.099   3.149  16.633  0.00  0.00    +0.000 NA
ATOM     21  C   UNL     1      47.627   3.478  17.836  0.00  0.00    +0.000 A 
BRANCH  16  23
ATOM     22  N   UNL     1      48.629   3.908  20.369  0.00  0.00    +0.000 N 
ATOM     23  C   UNL     1      48.818   4.898  19.448  0.00  0.00    +0.000 C 
ATOM     24  O   UNL     1      49.424   5.923  19.731  0.00  0.00    +0.000 OA
ATOM     25  H   UNL     1      49.094   4.038  21.260  0.00  0.00    +0.000 HD
ATOM     26  H   UNL     1      48.376   2.965  20.111  0.00  0.00    +0.000 HD
ENDBRANCH  16  23
ENDBRANCH  15  19
ENDBRANCH   1  15
TORSDOF 5
ENDMDL
MODEL 8
REMARK VINA RESULT:    -7.196      3.683      7.278
REMARK INTER + INTRA:         -10.049
REMARK INTER:                  -9.335
REMARK INTRA:                  -0.714
REMARK UNBOUND:                -0.749
REMARK  Name = 
REMARK  5 active torsions:
REMARK  status: ('A' for Active; 'I' for Inactive)
REMARK    1  A    between atoms: C_2  and  C_4
REMARK    2  A    between atoms: C_7  and  O_8
REMARK    3  A    between atoms: O_8  and  C_9
REMARK    4  A    between atoms: C_9  and  C_10
REMARK    5  A    between atoms: C_14  and  C_15
REMARK                            x       y       z     vdW  Elec       q    Type
REMARK                         _______ _______ _______ _____ _____    ______ ____
ROOT
ATOM      1  C   UNL     1      44.950   5.796  13.217  0.00  0.00    +0.000 C 
ENDROOT
BRANCH   1   2
ATOM      2  C   UNL     1      44.581   4.642  12.315  0.00  0.00    +0.000 A 
ATOM      3  C   UNL     1      43.525   3.795  12.651  0.00  0.00    +0.000 A 
ATOM      4  C   UNL     1      43.182   2.786  11.768  0.00  0.00    +0.000 A 
ATOM      5  N   UNL     1      43.809   2.569  10.591  0.00  0.00    +0.000 NA
ATOM      6  C   UNL     1      44.837   3.389  10.262  0.00  0.00    +0.000 A 
ATOM      7  C   UNL     1      45.227   4.441  11.092  0.00  0.00    +0.000 A 
BRANCH   6   8
ATOM      8  C   UNL     1      45.508   3.106   8.986  0.00  0.00    +0.000 A 
ATOM      9  C   UNL     1      45.793   4.123   8.070  0.00  0.00    +0.000 A 
ATOM     10  N   UNL     1      46.431   3.947   6.881  0.00  0.00    +0.000 NA
ATOM     11  C   UNL     1      46.794   2.682   6.576  0.00  0.00    +0.000 A 
ATOM     12  C   UNL     1      46.545   1.602   7.401  0.00  0.00    +0.000 A 
ATOM     13  F   UNL     1      46.922   0.368   7.046  0.00  0.00    +0.000 F 
ATOM     14  C   UNL     1      45.897   1.811   8.610  0.00  0.00    +0.000 A 
ENDBRANCH   6   8
ENDBRANCH   1   2
BRANCH   1  15
ATOM     15  O   UNL     1      46.339   5.737  13.561  0.00  0.00    +0.000 OA
BRANCH  15  19
ATOM     16  C   UNL     1      48.512   8.825  11.927  0.00  0.00    +0.000 A 
ATOM     17  C   UNL     1      49.169   7.665  12.343  0.00  0.00    +0.000 A 
ATOM     18  C   UNL     1      48.423   6.625  12.900  0.00  0.00    +0.000 A 
ATOM     19  C   UNL     1      47.050   6.785  13.015  0.00  0.00    +0.000 A 
ATOM     20  N   UNL     1      46.390   7.899  12.629  0.00  0.00    +0.000 NA
ATOM     21  C   UNL     1      47.138   8.898  12.103  0.00  0.00    +0.000 A 
BRANCH  16  23
ATOM     22  N   UNL     1      50.522   9.840  11.019  0.00  0.00    +0.000 N 
ATOM     23  C   UNL     1      49.199   9.983  11.323  0.00  0.00    +0.000 C 
ATOM     24  O   UNL     1      48.595  11.016  11.063  0.00  0.00    +0.000 OA
ATOM     25  H   UNL     1      50.940  10.598  10.492  0.00  0.00    +0.000 HD
ATOM     26  H   UNL     1      50.976   8.939  10.976  0.00  0.00    +0.000 HD
ENDBRANCH  16  23
ENDBRANCH  15  19
ENDBRANCH   1  15
TORSDOF 5
ENDMDL
MODEL 9
REMARK VINA RESULT:    -6.939      4.271      7.858
REMARK INTER + INTRA:          -9.717
REMARK INTER:                  -9.000
REMARK INTRA:                  -0.717
REMARK UNBOUND:                -0.749
REMARK  Name = 
REMARK  5 active torsions:
REMARK  status: ('A' for Active; 'I' for Inactive)
REMARK    1  A    between atoms: C_2  and  C_4
REMARK    2  A    between atoms: C_7  and  O_8
REMARK    3  A    between atoms: O_8  and  C_9
REMARK    4  A    between atoms: C_9  and  C_10
REMARK    5  A    between atoms: C_14  and  C_15
REMARK                            x       y       z     vdW  Elec       q    Type
REMARK                         _______ _______ _______ _____ _____    ______ ____
ROOT
ATOM      1  C   UNL     1      48.787   6.514  15.878  0.00  0.00    +0.000 C 
ENDROOT
BRANCH   1   2
ATOM      2  C   UNL     1      48.255   6.602  14.468  0.00  0.00    +0.000 A 
ATOM      3  C   UNL     1      48.876   7.428  13.531  0.00  0.00    +0.000 A 
ATOM      4  C   UNL     1      48.393   7.435  12.234  0.00  0.00    +0.000 A 
ATOM      5  N   UNL     1      47.350   6.685  11.815  0.00  0.00    +0.000 NA
ATOM      6  C   UNL     1      46.742   5.883  12.723  0.00  0.00    +0.000 A 
ATOM      7  C   UNL     1      47.186   5.807  14.044  0.00  0.00    +0.000 A 
BRANCH   6   8
ATOM      8  C   UNL     1      45.598   5.102  12.233  0.00  0.00    +0.000 A 
ATOM      9  C   UNL     1      44.827   4.316  13.096  0.00  0.00    +0.000 A 
ATOM     10  N   UNL     1      43.741   3.585  12.726  0.00  0.00    +0.000 NA
ATOM     11  C   UNL     1      43.410   3.624  11.417  0.00  0.00    +0.000 A 
ATOM     12  C   UNL     1      44.112   4.353  10.477  0.00  0.00    +0.000 A 
ATOM     13  F   UNL     1      43.742   4.352   9.191  0.00  0.00    +0.000 F 
ATOM     14  C   UNL     1      45.213   5.094  10.883  0.00  0.00    +0.000 A 
ENDBRANCH   6   8
ENDBRANCH   1   2
BRANCH   1  15
ATOM     15  O   UNL     1      48.202   5.401  16.564  0.00  0.00    +0.000 OA
BRANCH  15  19
ATOM     16  C   UNL     1      50.938   2.439  17.385  0.00  0.00    +0.000 A 
ATOM     17  C   UNL     1      49.631   2.092  17.035  0.00  0.00    +0.000 A 
ATOM     18  C   UNL     1      48.710   3.105  16.762  0.00  0.00    +0.000 A 
ATOM     19  C   UNL     1      49.133   4.423  16.848  0.00  0.00    +0.000 A 
ATOM     20  N   UNL     1      50.387   4.787  17.192  0.00  0.00    +0.000 NA
ATOM     21  C   UNL     1      51.259   3.787  17.463  0.00  0.00    +0.000 A 
BRANCH  16  23
ATOM     22  N   UNL     1      51.595   0.224  18.131  0.00  0.00    +0.000 N 
ATOM     23  C   UNL     1      51.993   1.454  17.690  0.00  0.00    +0.000 C 
ATOM     24  O   UNL     1      53.176   1.713  17.510  0.00  0.00    +0.000 OA
ATOM     25  H   UNL     1      52.324  -0.474  18.212  0.00  0.00    +0.000 HD
ATOM     26  H   UNL     1      50.645  -0.105  18.040  0.00  0.00    +0.000 HD
ENDBRANCH  16  23
ENDBRANCH  15  19
ENDBRANCH   1  15
TORSDOF 5
ENDMDL
