MODEL 1
REMARK VINA RESULT:    -7.765      0.000      0.000
REMARK INTER + INTRA:         -10.460
REMARK INTER:                  -9.807
REMARK INTRA:                  -0.653
REMARK UNBOUND:                -0.653
REMARK  Name = 
REMARK  6 active torsions:
REMARK  status: ('A' for Active; 'I' for Inactive)
REMARK    1  A    between atoms: C_1  and  O_2
REMARK    2  A    between atoms: O_2  and  C_3
REMARK    3  A    between atoms: C_5  and  C_6
REMARK    4  A    between atoms: C_6  and  N_7
REMARK    5  A    between atoms: C_12  and  C_13
REMARK    6  A    between atoms: C_21  and  O_22
REMARK                            x       y       z     vdW  Elec       q    Type
REMARK                         _______ _______ _______ _____ _____    ______ ____
ROOT
ATOM      1  N   UNL     1      44.312   3.975  10.473  0.00  0.00    +0.000 N 
ATOM      2  C   UNL     1      43.720   3.070  11.322  0.00  0.00    +0.000 A 
ATOM      3  C   UNL     1      44.220   3.278  12.587  0.00  0.00    +0.000 A 
ATOM      4  C   UNL     1      45.150   4.347  12.512  0.00  0.00    +0.000 A 
ATOM      5  C   UNL     1      45.973   4.975  13.456  0.00  0.00    +0.000 A 
ATOM      6  C   UNL     1      46.778   6.007  12.987  0.00  0.00    +0.000 A 
ATOM      7  N   UNL     1      46.811   6.441  11.696  0.00  0.00    +0.000 NA
ATOM      8  C   UNL     1      46.021   5.827  10.785  0.00  0.00    +0.000 A 
ATOM      9  C   UNL     1      45.191   4.778  11.182  0.00  0.00    +0.000 A 
ENDROOT
BRANCH   6  10
ATOM     10  C   UNL     1      47.704   6.694  13.950  0.00  0.00    +0.000 C 
ATOM     11  N   UNL     1      47.375   7.980  14.288  0.00  0.00    +0.000 N 
ATOM     12  O   UNL     1      48.702   6.154  14.409  0.00  0.00    +0.000 OA
ATOM     13  H   UNL     1      46.554   8.415  13.881  0.00  0.00    +0.000 HD
ATOM     14  H   UNL     1      47.973   8.493  14.912  0.00  0.00    +0.000 HD
ENDBRANCH   6  10
BRANCH   1  15
ATOM     15  C   UNL     1      44.124   3.967   9.021  0.00  0.00    +0.000 C 
BRANCH  15  18
ATOM     16  C   UNL     1      46.748   1.478   7.755  0.00  0.00    +0.000 A 
ATOM     17  C   UNL     1      45.648   2.027   8.425  0.00  0.00    +0.000 A 
ATOM     18  C   UNL     1      45.300   3.381   8.275  0.00  0.00    +0.000 A 
ATOM     19  C   UNL     1      46.045   4.171   7.387  0.00  0.00    +0.000 A 
ATOM     20  C   UNL     1      47.133   3.632   6.696  0.00  0.00    +0.000 A 
ATOM     21  C   UNL     1      47.485   2.297   6.892  0.00  0.00    +0.000 A 
BRANCH  16  23
ATOM     22  C   UNL     1      46.370  -0.828   7.284  0.00  0.00    +0.000 C 
ATOM     23  O   UNL     1      47.171   0.182   7.884  0.00  0.00    +0.000 OA
ENDBRANCH  16  23
BRANCH  21  24
ATOM     24  O   UNL     1      48.567   1.774   6.233  0.00  0.00    +0.000 OA
ATOM     25  H   UNL     1      49.125   1.297   6.865  0.00  0.00    +0.000 HD
ENDBRANCH  21  24
ENDBRANCH  15  18
ENDBRANCH   1  15
TORSDOF 5
ENDMDL
MODEL 2
REMARK VINA RESULT:    -7.723      1.574      1.978
REMARK INTER + INTRA:         -10.408
REMARK INTER:                  -9.818
REMARK INTRA:                  -0.589
REMARK UNBOUND:                -0.653
REMARK  Name = 
REMARK  6 active torsions:
REMARK  status: ('A' for Active; 'I' for Inactive)
REMARK    1  A    between atoms: C_1  and  O_2
REMARK    2  A    between atoms: O_2  and  C_3
REMARK    3  A    between atoms: C_5  and  C_6
REMARK    4  A    between atoms: C_6  and  N_7
REMARK    5  A    between atoms: C_12  and  C_13
REMARK    6  A    between atoms: C_21  and  O_22
REMARK                            x       y       z     vdW  Elec       q    Type
REMARK                         _______ _______ _______ _____ _____    ______ ____
ROOT
ATOM      1  N   UNL     1      44.862   4.593  10.526  0.00  0.00    +0.000 N 
ATOM      2  C   UNL     1      44.672   5.944  10.347  0.00  0.00    +0.000 A 
ATOM      3  C   UNL     1      45.152   6.596  11.459  0.00  0.00    +0.000 A 
ATOM      4  C   UNL     1      45.653   5.613  12.352  0.00  0.00    +0.000 A 
ATOM      5  C   UNL     1      46.231   5.675  13.627  0.00  0.00    +0.000 A 
ATOM      6  C   UNL     1      46.594   4.463  14.202  0.00  0.00    +0.000 A 
ATOM      7  N   UNL     1      46.434   3.245  13.613  0.00  0.00    +0.000 NA
ATOM      8  C   UNL     1      45.868   3.187  12.385  0.00  0.00    +0.000 A 
ATOM      9  C   UNL     1      45.471   4.364  11.750  0.00  0.00    +0.000 A 
ENDROOT
BRANCH   6  10
ATOM     10  C   UNL     1      47.189   4.469  15.581  0.00  0.00    +0.000 C 
ATOM     11  N   UNL     1      47.948   5.563  15.905  0.00  0.00    +0.000 N 
ATOM     12  O   UNL     1      47.021   3.555  16.379  0.00  0.00    +0.000 OA
ATOM     13  H   UNL     1      48.090   6.299  15.223  0.00  0.00    +0.000 HD
ATOM     14  H   UNL     1      48.386   5.607  16.809  0.00  0.00    +0.000 HD
ENDBRANCH   6  10
BRANCH   1  15
ATOM     15  C   UNL     1      44.355   3.574   9.605  0.00  0.00    +0.000 C 
BRANCH  15  18
ATOM     16  C   UNL     1      46.804   1.304   7.727  0.00  0.00    +0.000 A 
ATOM     17  C   UNL     1      45.825   1.755   8.620  0.00  0.00    +0.000 A 
ATOM     18  C   UNL     1      45.396   3.094   8.622  0.00  0.00    +0.000 A 
ATOM     19  C   UNL     1      45.928   3.970   7.665  0.00  0.00    +0.000 A 
ATOM     20  C   UNL     1      46.892   3.529   6.754  0.00  0.00    +0.000 A 
ATOM     21  C   UNL     1      47.332   2.207   6.798  0.00  0.00    +0.000 A 
BRANCH  16  23
ATOM     22  C   UNL     1      46.405  -1.010   7.318  0.00  0.00    +0.000 C 
ATOM     23  O   UNL     1      47.301   0.028   7.695  0.00  0.00    +0.000 OA
ENDBRANCH  16  23
BRANCH  21  24
ATOM     24  O   UNL     1      48.294   1.781   5.920  0.00  0.00    +0.000 OA
ATOM     25  H   UNL     1      47.881   1.581   5.066  0.00  0.00    +0.000 HD
ENDBRANCH  21  24
ENDBRANCH  15  18
ENDBRANCH   1  15
TORSDOF 5
ENDMDL
MODEL 3
REMARK VINA RESULT:    -7.569      2.102      6.505
REMARK INTER + INTRA:         -10.213
REMARK INTER:                  -9.652
REMARK INTRA:                  -0.561
REMARK UNBOUND:                -0.653
REMARK  Name = 
REMARK  6 active torsions:
REMARK  status: ('A' for Active; 'I' for Inactive)
REMARK    1  A    between atoms: C_1  and  O_2
REMARK    2  A    between atoms: O_2  and  C_3
REMARK    3  A    between atoms: C_5  and  C_6
REMARK    4  A    between atoms: C_6  and  N_7
REMARK    5  A    between atoms: C_12  and  C_13
REMARK    6  A    between atoms: C_21  and  O_22
REMARK                            x       y       z     vdW  Elec       q    Type
REMARK                         _______ _______ _______ _____ _____    ______ ____
ROOT
ATOM      1  N   UNL     1      44.246   4.181  10.271  0.00  0.00    +0.000 N 
ATOM      2  C   UNL     1      43.721   2.999  10.740  0.00  0.00    +0.000 A 
ATOM      3  C   UNL     1      44.281   1.967  10.023  0.00  0.00    +0.000 A 
ATOM      4  C   UNL     1      45.180   2.534   9.082  0.00  0.00    +0.000 A 
ATOM      5  C   UNL     1      46.003   1.989   8.088  0.00  0.00    +0.000 A 
ATOM      6  C   UNL     1      46.751   2.891   7.340  0.00  0.00    +0.000 A 
ATOM      7  N   UNL     1      46.739   4.243   7.515  0.00  0.00    +0.000 NA
ATOM      8  C   UNL     1      45.937   4.766   8.470  0.00  0.00    +0.000 A 
ATOM      9  C   UNL     1      45.152   3.921   9.255  0.00  0.00    +0.000 A 
ENDROOT
BRANCH   6  10
ATOM     10  C   UNL     1      47.626   2.364   6.239  0.00  0.00    +0.000 C 
ATOM     11  N   UNL     1      47.665   3.112   5.091  0.00  0.00    +0.000 N 
ATOM     12  O   UNL     1      48.267   1.325   6.340  0.00  0.00    +0.000 OA
ATOM     13  H   UNL     1      47.112   3.959   5.021  0.00  0.00    +0.000 HD
ATOM     14  H   UNL     1      48.219   2.793   4.315  0.00  0.00    +0.000 HD
ENDBRANCH   6  10
BRANCH   1  15
ATOM     15  C   UNL     1      43.785   5.501  10.706  0.00  0.00    +0.000 C 
BRANCH  15  18
ATOM     16  C   UNL     1      46.633   6.106  13.196  0.00  0.00    +0.000 A 
ATOM     17  C   UNL     1      45.732   5.471  12.334  0.00  0.00    +0.000 A 
ATOM     18  C   UNL     1      44.768   6.200  11.617  0.00  0.00    +0.000 A 
ATOM     19  C   UNL     1      44.759   7.598  11.733  0.00  0.00    +0.000 A 
ATOM     20  C   UNL     1      45.666   8.247  12.575  0.00  0.00    +0.000 A 
ATOM     21  C   UNL     1      46.586   7.500  13.308  0.00  0.00    +0.000 A 
BRANCH  16  23
ATOM     22  C   UNL     1      47.095   4.544  14.937  0.00  0.00    +0.000 C 
ATOM     23  O   UNL     1      47.570   5.459  13.958  0.00  0.00    +0.000 OA
ENDBRANCH  16  23
BRANCH  21  24
ATOM     24  O   UNL     1      47.460   8.135  14.152  0.00  0.00    +0.000 OA
ATOM     25  H   UNL     1      47.491   9.078  13.929  0.00  0.00    +0.000 HD
ENDBRANCH  21  24
ENDBRANCH  15  18
ENDBRANCH   1  15
TORSDOF 5
ENDMDL
MODEL 4
REMARK VINA RESULT:    -7.248      2.699      6.972
REMARK INTER + INTRA:          -9.808
REMARK INTER:                  -9.250
REMARK INTRA:                  -0.558
REMARK UNBOUND:                -0.653
REMARK  Name = 
REMARK  6 active torsions:
REMARK  status: ('A' for Active; 'I' for Inactive)
REMARK    1  A    between atoms: C_1  and  O_2
REMARK    2  A    between atoms: O_2  and  C_3
REMARK    3  A    between atoms: C_5  and  C_6
REMARK    4  A    between atoms: C_6  and  N_7
REMARK    5  A    between atoms: C_12  and  C_13
REMARK    6  A    between atoms: C_21  and  O_22
REMARK                            x       y       z     vdW  Elec       q    Type
REMARK                         _______ _______ _______ _____ _____    ______ ____
ROOT
ATOM      1  N   UNL     1      44.019   4.307  10.412  0.00  0.00    +0.000 N 
ATOM      2  C   UNL     1      43.561   3.149  10.998  0.00  0.00    +0.000 A 
ATOM      3  C   UNL     1      44.183   2.084  10.387  0.00  0.00    +0.000 A 
ATOM      4  C   UNL     1      45.051   2.606   9.392  0.00  0.00    +0.000 A 
ATOM      5  C   UNL     1      45.909   2.014   8.456  0.00  0.00    +0.000 A 
ATOM      6  C   UNL     1      46.606   2.878   7.620  0.00  0.00    +0.000 A 
ATOM      7  N   UNL     1      46.515   4.237   7.659  0.00  0.00    +0.000 NA
ATOM      8  C   UNL     1      45.680   4.806   8.559  0.00  0.00    +0.000 A 
ATOM      9  C   UNL     1      44.943   4.000   9.426  0.00  0.00    +0.000 A 
ENDROOT
BRANCH   6  10
ATOM     10  C   UNL     1      47.514   2.296   6.576  0.00  0.00    +0.000 C 
ATOM     11  N   UNL     1      47.742   3.076   5.473  0.00  0.00    +0.000 N 
ATOM     12  O   UNL     1      48.024   1.187   6.683  0.00  0.00    +0.000 OA
ATOM     13  H   UNL     1      47.295   3.983   5.395  0.00  0.00    +0.000 HD
ATOM     14  H   UNL     1      48.326   2.725   4.733  0.00  0.00    +0.000 HD
ENDBRANCH   6  10
BRANCH   1  15
ATOM     15  C   UNL     1      43.481   5.634  10.714  0.00  0.00    +0.000 C 
BRANCH  15  18
ATOM     16  C   UNL     1      45.325   8.651  12.191  0.00  0.00    +0.000 A 
ATOM     17  C   UNL     1      44.452   7.869  11.425  0.00  0.00    +0.000 A 
ATOM     18  C   UNL     1      44.411   6.471  11.562  0.00  0.00    +0.000 A 
ATOM     19  C   UNL     1      45.225   5.867  12.531  0.00  0.00    +0.000 A 
ATOM     20  C   UNL     1      46.087   6.637  13.317  0.00  0.00    +0.000 A 
ATOM     21  C   UNL     1      46.141   8.018  13.135  0.00  0.00    +0.000 A 
BRANCH  16  23
ATOM     22  C   UNL     1      44.327  10.732  11.593  0.00  0.00    +0.000 C 
ATOM     23  O   UNL     1      45.450  10.011  12.082  0.00  0.00    +0.000 OA
ENDBRANCH  16  23
BRANCH  21  24
ATOM     24  O   UNL     1      47.003   8.771  13.888  0.00  0.00    +0.000 OA
ATOM     25  H   UNL     1      47.068   9.660  13.505  0.00  0.00    +0.000 HD
ENDBRANCH  21  24
ENDBRANCH  15  18
ENDBRANCH   1  15
TORSDOF 5
ENDMDL
MODEL 5
REMARK VINA RESULT:    -6.313      2.268      3.868
REMARK INTER + INTRA:          -8.627
REMARK INTER:                  -8.515
REMARK INTRA:                  -0.113
REMARK UNBOUND:                -0.653
REMARK  Name = 
REMARK  6 active torsions:
REMARK  status: ('A' for Active; 'I' for Inactive)
REMARK    1  A    between atoms: C_1  and  O_2
REMARK    2  A    between atoms: O_2  and  C_3
REMARK    3  A    between atoms: C_5  and  C_6
REMARK    4  A    between atoms: C_6  and  N_7
REMARK    5  A    between atoms: C_12  and  C_13
REMARK    6  A    between atoms: C_21  and  O_22
REMARK                            x       y       z     vdW  Elec       q    Type
REMARK                         _______ _______ _______ _____ _____    ______ ____
ROOT
ATOM      1  N   UNL     1      46.179   6.494  12.034  0.00  0.00    +0.000 N 
ATOM      2  C   UNL     1      47.125   7.473  11.838  0.00  0.00    +0.000 A 
ATOM      3  C   UNL     1      48.046   7.390  12.857  0.00  0.00    +0.000 A 
ATOM      4  C   UNL     1      47.652   6.325  13.708  0.00  0.00    +0.000 A 
ATOM      5  C   UNL     1      48.177   5.796  14.894  0.00  0.00    +0.000 A 
ATOM      6  C   UNL     1      47.486   4.729  15.456  0.00  0.00    +0.000 A 
ATOM      7  N   UNL     1      46.357   4.173  14.933  0.00  0.00    +0.000 NA
ATOM      8  C   UNL     1      45.848   4.692  13.792  0.00  0.00    +0.000 A 
ATOM      9  C   UNL     1      46.485   5.769  13.175  0.00  0.00    +0.000 A 
ENDROOT
BRANCH   6  10
ATOM     10  C   UNL     1      47.987   4.144  16.745  0.00  0.00    +0.000 C 
ATOM     11  N   UNL     1      47.113   4.176  17.800  0.00  0.00    +0.000 N 
ATOM     12  O   UNL     1      49.109   3.669  16.866  0.00  0.00    +0.000 OA
ATOM     13  H   UNL     1      46.196   4.591  17.684  0.00  0.00    +0.000 HD
ATOM     14  H   UNL     1      47.406   3.816  18.693  0.00  0.00    +0.000 HD
ENDBRANCH   6  10
BRANCH   1  15
ATOM     15  C   UNL     1      44.969   6.361  11.221  0.00  0.00    +0.000 C 
BRANCH  15  18
ATOM     16  C   UNL     1      45.329   3.620   8.568  0.00  0.00    +0.000 A 
ATOM     17  C   UNL     1      45.430   4.845   9.238  0.00  0.00    +0.000 A 
ATOM     18  C   UNL     1      44.873   5.028  10.516  0.00  0.00    +0.000 A 
ATOM     19  C   UNL     1      44.257   3.935  11.143  0.00  0.00    +0.000 A 
ATOM     20  C   UNL     1      44.167   2.701  10.494  0.00  0.00    +0.000 A 
ATOM     21  C   UNL     1      44.690   2.554   9.211  0.00  0.00    +0.000 A 
BRANCH  16  23
ATOM     22  C   UNL     1      47.200   3.121   7.178  0.00  0.00    +0.000 C 
ATOM     23  O   UNL     1      45.809   3.381   7.307  0.00  0.00    +0.000 OA
ENDBRANCH  16  23
BRANCH  21  24
ATOM     24  O   UNL     1      44.580   1.350   8.564  0.00  0.00    +0.000 OA
ATOM     25  H   UNL     1      45.389   0.836   8.709  0.00  0.00    +0.000 HD
ENDBRANCH  21  24
ENDBRANCH  15  18
ENDBRANCH   1  15
TORSDOF 5
ENDMDL
MODEL 6
REMARK VINA RESULT:    -6.185      2.001      3.568
REMARK INTER + INTRA:          -8.465
REMARK INTER:                  -7.977
REMARK INTRA:                  -0.488
REMARK UNBOUND:                -0.653
REMARK  Name = 
REMARK  6 active torsions:
REMARK  status: ('A' for Active; 'I' for Inactive)
REMARK    1  A    between atoms: C_1  and  O_2
REMARK    2  A    between atoms: O_2  and  C_3
REMARK    3  A    between atoms: C_5  and  C_6
REMARK    4  A    between atoms: C_6  and  N_7
REMARK    5  A    between atoms: C_12  and  C_13
REMARK    6  A    between atoms: C_21  and  O_22
REMARK                            x       y       z     vdW  Elec       q    Type
REMARK                         _______ _______ _______ _____ _____    ______ ____
ROOT
ATOM      1  N   UNL     1      44.433   6.807  11.719  0.00  0.00    +0.000 N 
ATOM      2  C   UNL     1      44.409   8.126  11.329  0.00  0.00    +0.000 A 
ATOM      3  C   UNL     1      45.522   8.747  11.849  0.00  0.00    +0.000 A 
ATOM      4  C   UNL     1      46.252   7.778  12.584  0.00  0.00    +0.000 A 
ATOM      5  C   UNL     1      47.433   7.828  13.336  0.00  0.00    +0.000 A 
ATOM      6  C   UNL     1      47.838   6.640  13.934  0.00  0.00    +0.000 A 
ATOM      7  N   UNL     1      47.177   5.453  13.830  0.00  0.00    +0.000 NA
ATOM      8  C   UNL     1      46.032   5.410  13.109  0.00  0.00    +0.000 A 
ATOM      9  C   UNL     1      45.561   6.565  12.486  0.00  0.00    +0.000 A 
ENDROOT
BRANCH   6  10
ATOM     10  C   UNL     1      49.079   6.646  14.779  0.00  0.00    +0.000 C 
ATOM     11  N   UNL     1      50.144   7.350  14.281  0.00  0.00    +0.000 N 
ATOM     12  O   UNL     1      49.156   6.055  15.849  0.00  0.00    +0.000 OA
ATOM     13  H   UNL     1      50.066   7.816  13.384  0.00  0.00    +0.000 HD
ATOM     14  H   UNL     1      51.007   7.368  14.798  0.00  0.00    +0.000 HD
ENDBRANCH   6  10
BRANCH   1  15
ATOM     15  C   UNL     1      43.340   5.867  11.464  0.00  0.00    +0.000 C 
BRANCH  15  18
ATOM     16  C   UNL     1      44.777   3.626   8.708  0.00  0.00    +0.000 A 
ATOM     17  C   UNL     1      44.383   4.756   9.434  0.00  0.00    +0.000 A 
ATOM     18  C   UNL     1      43.781   4.641  10.699  0.00  0.00    +0.000 A 
ATOM     19  C   UNL     1      43.631   3.362  11.256  0.00  0.00    +0.000 A 
ATOM     20  C   UNL     1      44.038   2.226  10.552  0.00  0.00    +0.000 A 
ATOM     21  C   UNL     1      44.595   2.363   9.281  0.00  0.00    +0.000 A 
BRANCH  16  23
ATOM     22  C   UNL     1      46.742   3.802   7.369  0.00  0.00    +0.000 C 
ATOM     23  O   UNL     1      45.330   3.659   7.455  0.00  0.00    +0.000 OA
ENDBRANCH  16  23
BRANCH  21  24
ATOM     24  O   UNL     1      44.972   1.248   8.580  0.00  0.00    +0.000 OA
ATOM     25  H   UNL     1      45.621   1.500   7.905  0.00  0.00    +0.000 HD
ENDBRANCH  21  24
ENDBRANCH  15  18
ENDBRANCH   1  15
TORSDOF 5
ENDMDL
MODEL 7
REMARK VINA RESULT:    -6.140      1.240      2.055
REMARK INTER + INTRA:          -8.408
REMARK INTER:                  -7.978
REMARK INTRA:                  -0.430
REMARK UNBOUND:                -0.653
REMARK  Name = 
REMARK  6 active torsions:
REMARK  status: ('A' for Active; 'I' for Inactive)
REMARK    1  A    between atoms: C_1  and  O_2
REMARK    2  A    between atoms: O_2  and  C_3
REMARK    3  A    between atoms: C_5  and  C_6
REMARK    4  A    between atoms: C_6  and  N_7
REMARK    5  A    between atoms: C_12  and  C_13
REMARK    6  A    between atoms: C_21  and  O_22
REMARK                            x       y       z     vdW  Elec       q    Type
REMARK                         _______ _______ _______ _____ _____    ______ ____
ROOT
ATOM      1  N   UNL     1      44.852   5.022  11.057  0.00  0.00    +0.000 N 
ATOM      2  C   UNL     1      44.055   4.377  11.973  0.00  0.00    +0.000 A 
ATOM      3  C   UNL     1      44.624   4.527  13.218  0.00  0.00    +0.000 A 
ATOM      4  C   UNL     1      45.810   5.290  13.059  0.00  0.00    +0.000 A 
ATOM      5  C   UNL     1      46.797   5.731  13.950  0.00  0.00    +0.000 A 
ATOM      6  C   UNL     1      47.842   6.466  13.403  0.00  0.00    +0.000 A 
ATOM      7  N   UNL     1      47.961   6.783  12.082  0.00  0.00    +0.000 NA
ATOM      8  C   UNL     1      47.010   6.348  11.223  0.00  0.00    +0.000 A 
ATOM      9  C   UNL     1      45.935   5.599  11.701  0.00  0.00    +0.000 A 
ENDROOT
BRANCH   6  10
ATOM     10  C   UNL     1      48.945   6.936  14.307  0.00  0.00    +0.000 C 
ATOM     11  N   UNL     1      50.073   7.406  13.688  0.00  0.00    +0.000 N 
ATOM     12  O   UNL     1      48.860   6.902  15.529  0.00  0.00    +0.000 OA
ATOM     13  H   UNL     1      50.130   7.408  12.675  0.00  0.00    +0.000 HD
ATOM     14  H   UNL     1      50.850   7.713  14.248  0.00  0.00    +0.000 HD
ENDBRANCH   6  10
BRANCH   1  15
ATOM     15  C   UNL     1      44.633   4.965   9.610  0.00  0.00    +0.000 C 
BRANCH  15  18
ATOM     16  C   UNL     1      46.822   2.758   7.371  0.00  0.00    +0.000 A 
ATOM     17  C   UNL     1      46.255   3.879   7.989  0.00  0.00    +0.000 A 
ATOM     18  C   UNL     1      45.253   3.748   8.966  0.00  0.00    +0.000 A 
ATOM     19  C   UNL     1      44.865   2.459   9.361  0.00  0.00    +0.000 A 
ATOM     20  C   UNL     1      45.437   1.330   8.767  0.00  0.00    +0.000 A 
ATOM     21  C   UNL     1      46.399   1.485   7.771  0.00  0.00    +0.000 A 
BRANCH  16  23
ATOM     22  C   UNL     1      47.309   2.905   5.042  0.00  0.00    +0.000 C 
ATOM     23  O   UNL     1      47.770   2.809   6.383  0.00  0.00    +0.000 OA
ENDBRANCH  16  23
BRANCH  21  24
ATOM     24  O   UNL     1      46.943   0.379   7.171  0.00  0.00    +0.000 OA
ATOM     25  H   UNL     1      47.647   0.025   7.734  0.00  0.00    +0.000 HD
ENDBRANCH  21  24
ENDBRANCH  15  18
ENDBRANCH   1  15
TORSDOF 5
ENDMDL
MODEL 8
REMARK VINA RESULT:    -5.866      4.137      8.341
REMARK INTER + INTRA:          -8.062
REMARK INTER:                  -7.420
REMARK INTRA:                  -0.641
REMARK UNBOUND:                -0.653
REMARK  Name = 
REMARK  6 active torsions:
REMARK  status: ('A' for Active; 'I' for Inactive)
REMARK    1  A    between atoms: C_1  and  O_2
REMARK    2  A    between atoms: O_2  and  C_3
REMARK    3  A    between atoms: C_5  and  C_6
REMARK    4  A    between atoms: C_6  and  N_7
REMARK    5  A    between atoms: C_12  and  C_13
REMARK    6  A    between atoms: C_21  and  O_22
REMARK                            x       y       z     vdW  Elec       q    Type
REMARK                         _______ _______ _______ _____ _____    ______ ____
ROOT
ATOM      1  N   UNL     1      47.501   7.067  13.766  0.00  0.00    +0.000 N 
ATOM      2  C   UNL     1      46.976   8.263  13.337  0.00  0.00    +0.000 A 
ATOM      3  C   UNL     1      45.783   8.004  12.700  0.00  0.00    +0.000 A 
ATOM      4  C   UNL     1      45.570   6.602  12.740  0.00  0.00    +0.000 A 
ATOM      5  C   UNL     1      44.559   5.767  12.244  0.00  0.00    +0.000 A 
ATOM      6  C   UNL     1      44.710   4.406  12.478  0.00  0.00    +0.000 A 
ATOM      7  N   UNL     1      45.753   3.844  13.151  0.00  0.00    +0.000 NA
ATOM      8  C   UNL     1      46.732   4.652  13.621  0.00  0.00    +0.000 A 
ATOM      9  C   UNL     1      46.651   6.030  13.418  0.00  0.00    +0.000 A 
ENDROOT
BRANCH   6  10
ATOM     10  C   UNL     1      43.672   3.463  11.941  0.00  0.00    +0.000 C 
ATOM     11  N   UNL     1      43.685   2.195  12.460  0.00  0.00    +0.000 N 
ATOM     12  O   UNL     1      42.860   3.788  11.084  0.00  0.00    +0.000 OA
ATOM     13  H   UNL     1      44.378   1.940  13.155  0.00  0.00    +0.000 HD
ATOM     14  H   UNL     1      43.024   1.517  12.119  0.00  0.00    +0.000 HD
ENDBRANCH   6  10
BRANCH   1  15
ATOM     15  C   UNL     1      48.829   6.935  14.370  0.00  0.00    +0.000 C 
BRANCH  15  18
ATOM     16  C   UNL     1      48.668   5.548  17.938  0.00  0.00    +0.000 A 
ATOM     17  C   UNL     1      48.726   5.625  16.541  0.00  0.00    +0.000 A 
ATOM     18  C   UNL     1      48.788   6.863  15.878  0.00  0.00    +0.000 A 
ATOM     19  C   UNL     1      48.851   8.034  16.648  0.00  0.00    +0.000 A 
ATOM     20  C   UNL     1      48.814   7.972  18.043  0.00  0.00    +0.000 A 
ATOM     21  C   UNL     1      48.711   6.735  18.678  0.00  0.00    +0.000 A 
BRANCH  16  23
ATOM     22  C   UNL     1      48.456   3.174  17.909  0.00  0.00    +0.000 C 
ATOM     23  O   UNL     1      48.564   4.382  18.650  0.00  0.00    +0.000 OA
ENDBRANCH  16  23
BRANCH  21  24
ATOM     24  O   UNL     1      48.650   6.675  20.046  0.00  0.00    +0.000 OA
ATOM     25  H   UNL     1      47.725   6.580  20.320  0.00  0.00    +0.000 HD
ENDBRANCH  21  24
ENDBRANCH  15  18
ENDBRANCH   1  15
TORSDOF 5
ENDMDL
MODEL 9
REMARK VINA RESULT:    -5.696      3.740      8.843
REMARK INTER + INTRA:          -7.848
REMARK INTER:                  -7.349
REMARK INTRA:                  -0.499
REMARK UNBOUND:                -0.653
REMARK  Name = 
REMARK  6 active torsions:
REMARK  status: ('A' for Active; 'I' for Inactive)
REMARK    1  A    between atoms: C_1  and  O_2
REMARK    2  A    between atoms: O_2  and  C_3
REMARK    3  A    between atoms: C_5  and  C_6
REMARK    4  A    between atoms: C_6  and  N_7
REMARK    5  A    between atoms: C_12  and  C_13
REMARK    6  A    between atoms: C_21  and  O_22
REMARK                            x       y       z     vdW  Elec       q    Type
REMARK                         _______ _______ _______ _____ _____    ______ ____
ROOT
ATOM      1  N   UNL     1      47.594   6.399  14.014  0.00  0.00    +0.000 N 
ATOM      2  C   UNL     1      47.216   7.632  13.535  0.00  0.00    +0.000 A 
ATOM      3  C   UNL     1      46.192   7.446  12.635  0.00  0.00    +0.000 A 
ATOM      4  C   UNL     1      45.933   6.053  12.558  0.00  0.00    +0.000 A 
ATOM      5  C   UNL     1      45.037   5.280  11.809  0.00  0.00    +0.000 A 
ATOM      6  C   UNL     1      45.089   3.905  12.005  0.00  0.00    +0.000 A 
ATOM      7  N   UNL     1      45.935   3.276  12.868  0.00  0.00    +0.000 NA
ATOM      8  C   UNL     1      46.806   4.025  13.585  0.00  0.00    +0.000 A 
ATOM      9  C   UNL     1      46.814   5.411  13.434  0.00  0.00    +0.000 A 
ENDROOT
BRANCH   6  10
ATOM     10  C   UNL     1      44.173   3.026  11.203  0.00  0.00    +0.000 C 
ATOM     11  N   UNL     1      44.721   2.439  10.093  0.00  0.00    +0.000 N 
ATOM     12  O   UNL     1      43.000   2.841  11.504  0.00  0.00    +0.000 OA
ATOM     13  H   UNL     1      45.689   2.621   9.851  0.00  0.00    +0.000 HD
ATOM     14  H   UNL     1      44.145   1.857   9.509  0.00  0.00    +0.000 HD
ENDBRANCH   6  10
BRANCH   1  15
ATOM     15  C   UNL     1      48.745   6.190  14.894  0.00  0.00    +0.000 C 
BRANCH  15  18
ATOM     16  C   UNL     1      48.095   6.955  18.592  0.00  0.00    +0.000 A 
ATOM     17  C   UNL     1      48.432   7.104  17.241  0.00  0.00    +0.000 A 
ATOM     18  C   UNL     1      48.359   6.023  16.345  0.00  0.00    +0.000 A 
ATOM     19  C   UNL     1      47.881   4.792  16.817  0.00  0.00    +0.000 A 
ATOM     20  C   UNL     1      47.522   4.634  18.159  0.00  0.00    +0.000 A 
ATOM     21  C   UNL     1      47.642   5.709  19.038  0.00  0.00    +0.000 A 
BRANCH  16  23
ATOM     22  C   UNL     1      47.489   9.162  19.260  0.00  0.00    +0.000 C 
ATOM     23  O   UNL     1      48.181   7.950  19.530  0.00  0.00    +0.000 OA
ENDBRANCH  16  23
BRANCH  21  24
ATOM     24  O   UNL     1      47.313   5.548  20.358  0.00  0.00    +0.000 OA
ATOM     25  H   UNL     1      47.127   6.416  20.749  0.00  0.00    +0.000 HD
ENDBRANCH  21  24
ENDBRANCH  15  18
ENDBRANCH   1  15
TORSDOF 5
ENDMDL
