MODEL 1
REMARK VINA RESULT:    -7.891      0.000      0.000
REMARK INTER + INTRA:         -12.092
REMARK INTER:                 -11.120
REMARK INTRA:                  -0.972
REMARK UNBOUND:                -0.972
REMARK  Name = 
REMARK  8 active torsions:
REMARK  status: ('A' for Active; 'I' for Inactive)
REMARK    1  A    between atoms: C_1  and  C_2
REMARK    2  A    between atoms: C_5  and  C_6
REMARK    3  A    between atoms: C_6  and  O_7
REMARK    4  A    between atoms: O_7  and  C_8
REMARK    5  A    between atoms: C_8  and  C_9
REMARK    6  A    between atoms: C_12  and  C_13
REMARK    7  A    between atoms: C_13  and  N_14
REMARK    8  A    between atoms: C_15  and  C_17
REMARK                            x       y       z     vdW  Elec       q    Type
REMARK                         _______ _______ _______ _____ _____    ______ ____
ROOT
ATOM      1  C   UNL     1      47.834   6.753  13.460  0.00  0.00    +0.000 C 
ENDROOT
BRANCH   1   5
ATOM      2  C   UNL     1      44.752   4.076  11.996  0.00  0.00    +0.000 A 
ATOM      3  C   UNL     1      45.709   3.627  12.917  0.00  0.00    +0.000 A 
ATOM      4  C   UNL     1      46.710   4.486  13.386  0.00  0.00    +0.000 A 
ATOM      5  C   UNL     1      46.768   5.817  12.952  0.00  0.00    +0.000 A 
ATOM      6  C   UNL     1      45.828   6.258  12.010  0.00  0.00    +0.000 A 
ATOM      7  C   UNL     1      44.827   5.399  11.542  0.00  0.00    +0.000 A 
BRANCH   2   8
ATOM      8  C   UNL     1      43.673   3.146  11.499  0.00  0.00    +0.000 C 
BRANCH   8   9
ATOM      9  O   UNL     1      43.702   3.134  10.075  0.00  0.00    +0.000 OA
BRANCH   9  10
ATOM     10  C   UNL     1      44.559   2.117   9.561  0.00  0.00    +0.000 C 
BRANCH  10  15
ATOM     11  C   UNL     1      47.932   2.236   6.085  0.00  0.00    +0.000 C 
ATOM     12  C   UNL     1      46.927   2.817   6.997  0.00  0.00    +0.000 A 
ATOM     13  N   UNL     1      46.565   4.077   7.123  0.00  0.00    +0.000 NA
ATOM     14  C   UNL     1      45.612   4.044   8.107  0.00  0.00    +0.000 A 
ATOM     15  C   UNL     1      45.427   2.755   8.549  0.00  0.00    +0.000 A 
ATOM     16  O   UNL     1      46.276   1.949   7.834  0.00  0.00    +0.000 OA
ENDBRANCH  10  15
ENDBRANCH   9  10
ENDBRANCH   8   9
ENDBRANCH   2   8
ENDBRANCH   1   5
BRANCH   1  17
ATOM     17  N   UNL     1      47.814   6.839  14.898  0.00  0.00    +0.000 N 
ATOM     18  C   UNL     1      48.972   6.805  15.631  0.00  0.00    +0.000 C 
ATOM     19  O   UNL     1      50.077   6.744  15.102  0.00  0.00    +0.000 OA
ATOM     20  H   UNL     1      46.926   6.656  15.356  0.00  0.00    +0.000 HD
BRANCH  18  21
ATOM     21  C   UNL     1      48.827   6.911  17.090  0.00  0.00    +0.000 A 
ATOM     22  C   UNL     1      48.625   8.155  17.674  0.00  0.00    +0.000 A 
ATOM     23  S   UNL     1      48.424   8.092  19.366  0.00  0.00    +0.000 S 
ATOM     24  C   UNL     1      48.655   6.406  19.385  0.00  0.00    +0.000 A 
ATOM     25  N   UNL     1      48.634   5.710  20.554  0.00  0.00    +0.000 NA
ATOM     26  C   UNL     1      48.854   4.444  20.425  0.00  0.00    +0.000 A 
ATOM     27  N   UNL     1      49.088   3.810  19.232  0.00  0.00    +0.000 N 
ATOM     28  C   UNL     1      49.086   4.467  18.026  0.00  0.00    +0.000 A 
ATOM     29  O   UNL     1      49.251   3.859  16.971  0.00  0.00    +0.000 OA
ATOM     30  C   UNL     1      48.858   5.895  18.115  0.00  0.00    +0.000 A 
ATOM     31  H   UNL     1      49.243   2.813  19.198  0.00  0.00    +0.000 HD
ENDBRANCH  18  21
ENDBRANCH   1  17
TORSDOF 7
ENDMDL
MODEL 2
REMARK VINA RESULT:    -7.445      1.677      2.215
REMARK INTER + INTRA:         -11.464
REMARK INTER:                 -10.665
REMARK INTRA:                  -0.798
REMARK UNBOUND:                -0.972
REMARK  Name = 
REMARK  8 active torsions:
REMARK  status: ('A' for Active; 'I' for Inactive)
REMARK    1  A    between atoms: C_1  and  C_2
REMARK    2  A    between atoms: C_5  and  C_6
REMARK    3  A    between atoms: C_6  and  O_7
REMARK    4  A    between atoms: O_7  and  C_8
REMARK    5  A    between atoms: C_8  and  C_9
REMARK    6  A    between atoms: C_12  and  C_13
REMARK    7  A    between atoms: C_13  and  N_14
REMARK    8  A    between atoms: C_15  and  C_17
REMARK                            x       y       z     vdW  Elec       q    Type
REMARK                         _______ _______ _______ _____ _____    ______ ____
ROOT
ATOM      1  C   UNL     1      47.902   6.683  13.629  0.00  0.00    +0.000 C 
ENDROOT
BRANCH   1   5
ATOM      2  C   UNL     1      44.925   4.819  11.086  0.00  0.00    +0.000 A 
ATOM      3  C   UNL     1      45.139   4.356  12.392  0.00  0.00    +0.000 A 
ATOM      4  C   UNL     1      46.105   4.950  13.213  0.00  0.00    +0.000 A 
ATOM      5  C   UNL     1      46.868   6.029  12.749  0.00  0.00    +0.000 A 
ATOM      6  C   UNL     1      46.673   6.473  11.434  0.00  0.00    +0.000 A 
ATOM      7  C   UNL     1      45.708   5.880  10.614  0.00  0.00    +0.000 A 
BRANCH   2   8
ATOM      8  C   UNL     1      43.879   4.176  10.209  0.00  0.00    +0.000 C 
BRANCH   8   9
ATOM      9  O   UNL     1      44.526   3.591   9.083  0.00  0.00    +0.000 OA
BRANCH   9  10
ATOM     10  C   UNL     1      44.874   2.227   9.309  0.00  0.00    +0.000 C 
BRANCH  10  15
ATOM     11  C   UNL     1      47.488   2.878   5.281  0.00  0.00    +0.000 C 
ATOM     12  C   UNL     1      46.994   2.125   6.451  0.00  0.00    +0.000 A 
ATOM     13  N   UNL     1      47.294   0.897   6.822  0.00  0.00    +0.000 NA
ATOM     14  C   UNL     1      46.553   0.712   7.960  0.00  0.00    +0.000 A 
ATOM     15  C   UNL     1      45.823   1.842   8.243  0.00  0.00    +0.000 A 
ATOM     16  O   UNL     1      46.101   2.767   7.269  0.00  0.00    +0.000 OA
ENDBRANCH  10  15
ENDBRANCH   9  10
ENDBRANCH   8   9
ENDBRANCH   2   8
ENDBRANCH   1   5
BRANCH   1  17
ATOM     17  N   UNL     1      47.862   6.152  14.968  0.00  0.00    +0.000 N 
ATOM     18  C   UNL     1      48.840   6.448  15.882  0.00  0.00    +0.000 C 
ATOM     19  O   UNL     1      49.768   7.208  15.622  0.00  0.00    +0.000 OA
ATOM     20  H   UNL     1      47.253   5.356  15.127  0.00  0.00    +0.000 HD
BRANCH  18  21
ATOM     21  C   UNL     1      48.687   5.856  17.219  0.00  0.00    +0.000 A 
ATOM     22  C   UNL     1      48.936   4.501  17.404  0.00  0.00    +0.000 A 
ATOM     23  S   UNL     1      48.764   3.990  19.022  0.00  0.00    +0.000 S 
ATOM     24  C   UNL     1      48.297   5.548  19.522  0.00  0.00    +0.000 A 
ATOM     25  N   UNL     1      47.971   5.799  20.819  0.00  0.00    +0.000 NA
ATOM     26  C   UNL     1      47.606   7.015  21.053  0.00  0.00    +0.000 A 
ATOM     27  N   UNL     1      47.542   8.006  20.106  0.00  0.00    +0.000 N 
ATOM     28  C   UNL     1      47.892   7.806  18.793  0.00  0.00    +0.000 A 
ATOM     29  O   UNL     1      47.868   8.729  17.983  0.00  0.00    +0.000 OA
ATOM     30  C   UNL     1      48.296   6.452  18.474  0.00  0.00    +0.000 A 
ATOM     31  H   UNL     1      47.257   8.941  20.356  0.00  0.00    +0.000 HD
ENDBRANCH  18  21
ENDBRANCH   1  17
TORSDOF 7
ENDMDL
MODEL 3
REMARK VINA RESULT:    -7.075      2.923      8.579
REMARK INTER + INTRA:         -10.942
REMARK INTER:                  -9.557
REMARK INTRA:                  -1.385
REMARK UNBOUND:                -0.972
REMARK  Name = 
REMARK  8 active torsions:
REMARK  status: ('A' for Active; 'I' for Inactive)
REMARK    1  A    between atoms: C_1  and  C_2
REMARK    2  A    between atoms: C_5  and  C_6
REMARK    3  A    between atoms: C_6  and  O_7
REMARK    4  A    between atoms: O_7  and  C_8
REMARK    5  A    between atoms: C_8  and  C_9
REMARK    6  A    between atoms: C_12  and  C_13
REMARK    7  A    between atoms: C_13  and  N_14
REMARK    8  A    between atoms: C_15  and  C_17
REMARK                            x       y       z     vdW  Elec       q    Type
REMARK                         _______ _______ _______ _____ _____    ______ ____
ROOT
ATOM      1  C   UNL     1      47.390   7.934  11.924  0.00  0.00    +0.000 C 
ENDROOT
BRANCH   1   5
ATOM      2  C   UNL     1      49.482   7.967  15.724  0.00  0.00    +0.000 A 
ATOM      3  C   UNL     1      48.213   8.552  15.601  0.00  0.00    +0.000 A 
ATOM      4  C   UNL     1      47.538   8.550  14.375  0.00  0.00    +0.000 A 
ATOM      5  C   UNL     1      48.113   7.952  13.247  0.00  0.00    +0.000 A 
ATOM      6  C   UNL     1      49.393   7.391  13.362  0.00  0.00    +0.000 A 
ATOM      7  C   UNL     1      50.067   7.393  14.588  0.00  0.00    +0.000 A 
BRANCH   2   8
ATOM      8  C   UNL     1      50.200   7.968  17.050  0.00  0.00    +0.000 C 
BRANCH   8   9
ATOM      9  O   UNL     1      49.482   7.139  17.958  0.00  0.00    +0.000 OA
BRANCH   9  10
ATOM     10  C   UNL     1      49.846   5.766  17.839  0.00  0.00    +0.000 C 
BRANCH  10  15
ATOM     11  C   UNL     1      47.011   3.732  14.477  0.00  0.00    +0.000 C 
ATOM     12  C   UNL     1      47.388   4.135  15.846  0.00  0.00    +0.000 A 
ATOM     13  N   UNL     1      46.728   3.941  16.968  0.00  0.00    +0.000 NA
ATOM     14  C   UNL     1      47.528   4.518  17.920  0.00  0.00    +0.000 A 
ATOM     15  C   UNL     1      48.656   5.046  17.337  0.00  0.00    +0.000 A 
ATOM     16  O   UNL     1      48.576   4.803  15.989  0.00  0.00    +0.000 OA
ENDBRANCH  10  15
ENDBRANCH   9  10
ENDBRANCH   8   9
ENDBRANCH   2   8
ENDBRANCH   1   5
BRANCH   1  17
ATOM     17  N   UNL     1      46.733   6.670  11.704  0.00  0.00    +0.000 N 
ATOM     18  C   UNL     1      45.366   6.575  11.662  0.00  0.00    +0.000 C 
ATOM     19  O   UNL     1      44.640   7.559  11.767  0.00  0.00    +0.000 OA
ATOM     20  H   UNL     1      47.289   5.833  11.849  0.00  0.00    +0.000 HD
BRANCH  18  21
ATOM     21  C   UNL     1      44.811   5.236  11.422  0.00  0.00    +0.000 A 
ATOM     22  C   UNL     1      44.068   4.610  12.416  0.00  0.00    +0.000 A 
ATOM     23  S   UNL     1      43.454   3.087  11.954  0.00  0.00    +0.000 S 
ATOM     24  C   UNL     1      44.205   3.186  10.430  0.00  0.00    +0.000 A 
ATOM     25  N   UNL     1      44.099   2.171   9.530  0.00  0.00    +0.000 NA
ATOM     26  C   UNL     1      44.743   2.365   8.428  0.00  0.00    +0.000 A 
ATOM     27  N   UNL     1      45.479   3.486   8.141  0.00  0.00    +0.000 N 
ATOM     28  C   UNL     1      45.587   4.548   9.005  0.00  0.00    +0.000 A 
ATOM     29  O   UNL     1      46.216   5.557   8.696  0.00  0.00    +0.000 OA
ATOM     30  C   UNL     1      44.894   4.375  10.266  0.00  0.00    +0.000 A 
ATOM     31  H   UNL     1      45.951   3.581   7.255  0.00  0.00    +0.000 HD
ENDBRANCH  18  21
ENDBRANCH   1  17
TORSDOF 7
ENDMDL
MODEL 4
REMARK VINA RESULT:    -6.619      1.884      2.383
REMARK INTER + INTRA:         -10.299
REMARK INTER:                  -9.430
REMARK INTRA:                  -0.869
REMARK UNBOUND:                -0.972
REMARK  Name = 
REMARK  8 active torsions:
REMARK  status: ('A' for Active; 'I' for Inactive)
REMARK    1  A    between atoms: C_1  and  C_2
REMARK    2  A    between atoms: C_5  and  C_6
REMARK    3  A    between atoms: C_6  and  O_7
REMARK    4  A    between atoms: O_7  and  C_8
REMARK    5  A    between atoms: C_8  and  C_9
REMARK    6  A    between atoms: C_12  and  C_13
REMARK    7  A    between atoms: C_13  and  N_14
REMARK    8  A    between atoms: C_15  and  C_17
REMARK                            x       y       z     vdW  Elec       q    Type
REMARK                         _______ _______ _______ _____ _____    ______ ____
ROOT
ATOM      1  C   UNL     1      48.354   7.196  13.686  0.00  0.00    +0.000 C 
ENDROOT
BRANCH   1   5
ATOM      2  C   UNL     1      45.043   5.156  11.764  0.00  0.00    +0.000 A 
ATOM      3  C   UNL     1      45.536   6.364  11.247  0.00  0.00    +0.000 A 
ATOM      4  C   UNL     1      46.599   7.029  11.869  0.00  0.00    +0.000 A 
ATOM      5  C   UNL     1      47.201   6.494  13.015  0.00  0.00    +0.000 A 
ATOM      6  C   UNL     1      46.690   5.302  13.548  0.00  0.00    +0.000 A 
ATOM      7  C   UNL     1      45.628   4.637  12.926  0.00  0.00    +0.000 A 
BRANCH   2   8
ATOM      8  C   UNL     1      43.900   4.444  11.085  0.00  0.00    +0.000 C 
BRANCH   8   9
ATOM      9  O   UNL     1      44.434   3.419  10.252  0.00  0.00    +0.000 OA
BRANCH   9  10
ATOM     10  C   UNL     1      44.507   3.819   8.885  0.00  0.00    +0.000 C 
BRANCH  10  15
ATOM     11  C   UNL     1      47.690   2.481   5.486  0.00  0.00    +0.000 C 
ATOM     12  C   UNL     1      46.886   2.307   6.711  0.00  0.00    +0.000 A 
ATOM     13  N   UNL     1      46.836   1.266   7.517  0.00  0.00    +0.000 NA
ATOM     14  C   UNL     1      45.934   1.643   8.478  0.00  0.00    +0.000 A 
ATOM     15  C   UNL     1      45.465   2.910   8.221  0.00  0.00    +0.000 A 
ATOM     16  O   UNL     1      46.077   3.351   7.075  0.00  0.00    +0.000 OA
ENDBRANCH  10  15
ENDBRANCH   9  10
ENDBRANCH   8   9
ENDBRANCH   2   8
ENDBRANCH   1   5
BRANCH   1  17
ATOM     17  N   UNL     1      48.787   6.484  14.862  0.00  0.00    +0.000 N 
ATOM     18  C   UNL     1      48.778   7.077  16.098  0.00  0.00    +0.000 C 
ATOM     19  O   UNL     1      48.364   8.220  16.270  0.00  0.00    +0.000 OA
ATOM     20  H   UNL     1      49.340   5.646  14.713  0.00  0.00    +0.000 HD
BRANCH  18  21
ATOM     21  C   UNL     1      49.233   6.250  17.224  0.00  0.00    +0.000 A 
ATOM     22  C   UNL     1      48.315   5.813  18.172  0.00  0.00    +0.000 A 
ATOM     23  S   UNL     1      49.000   4.822  19.379  0.00  0.00    +0.000 S 
ATOM     24  C   UNL     1      50.556   4.988  18.711  0.00  0.00    +0.000 A 
ATOM     25  N   UNL     1      51.635   4.396  19.291  0.00  0.00    +0.000 NA
ATOM     26  C   UNL     1      52.756   4.630  18.697  0.00  0.00    +0.000 A 
ATOM     27  N   UNL     1      52.897   5.399  17.570  0.00  0.00    +0.000 N 
ATOM     28  C   UNL     1      51.833   5.988  16.932  0.00  0.00    +0.000 A 
ATOM     29  O   UNL     1      51.990   6.630  15.896  0.00  0.00    +0.000 OA
ATOM     30  C   UNL     1      50.550   5.769  17.568  0.00  0.00    +0.000 A 
ATOM     31  H   UNL     1      53.803   5.535  17.146  0.00  0.00    +0.000 HD
ENDBRANCH  18  21
ENDBRANCH   1  17
TORSDOF 7
ENDMDL
MODEL 5
REMARK VINA RESULT:    -6.069      5.766      8.423
REMARK INTER + INTRA:          -9.524
REMARK INTER:                  -8.662
REMARK INTRA:                  -0.861
REMARK UNBOUND:                -0.972
REMARK  Name = 
REMARK  8 active torsions:
REMARK  status: ('A' for Active; 'I' for Inactive)
REMARK    1  A    between atoms: C_1  and  C_2
REMARK    2  A    between atoms: C_5  and  C_6
REMARK    3  A    between atoms: C_6  and  O_7
REMARK    4  A    between atoms: O_7  and  C_8
REMARK    5  A    between atoms: C_8  and  C_9
REMARK    6  A    between atoms: C_12  and  C_13
REMARK    7  A    between atoms: C_13  and  N_14
REMARK    8  A    between atoms: C_15  and  C_17
REMARK                            x       y       z     vdW  Elec       q    Type
REMARK                         _______ _______ _______ _____ _____    ______ ____
ROOT
ATOM      1  C   UNL     1      51.301   9.122  11.412  0.00  0.00    +0.000 C 
ENDROOT
BRANCH   1   5
ATOM      2  C   UNL     1      47.182   8.120  12.329  0.00  0.00    +0.000 A 
ATOM      3  C   UNL     1      47.572   9.457  12.161  0.00  0.00    +0.000 A 
ATOM      4  C   UNL     1      48.902   9.785  11.873  0.00  0.00    +0.000 A 
ATOM      5  C   UNL     1      49.869   8.781  11.734  0.00  0.00    +0.000 A 
ATOM      6  C   UNL     1      49.485   7.447  11.929  0.00  0.00    +0.000 A 
ATOM      7  C   UNL     1      48.155   7.119  12.217  0.00  0.00    +0.000 A 
BRANCH   2   8
ATOM      8  C   UNL     1      45.746   7.775  12.635  0.00  0.00    +0.000 C 
BRANCH   8   9
ATOM      9  O   UNL     1      45.443   6.517  12.039  0.00  0.00    +0.000 OA
BRANCH   9  10
ATOM     10  C   UNL     1      44.855   5.608  12.967  0.00  0.00    +0.000 C 
BRANCH  10  15
ATOM     11  C   UNL     1      44.695   2.526   9.232  0.00  0.00    +0.000 C 
ATOM     12  C   UNL     1      44.256   3.090  10.524  0.00  0.00    +0.000 A 
ATOM     13  N   UNL     1      43.263   2.696  11.295  0.00  0.00    +0.000 NA
ATOM     14  C   UNL     1      43.306   3.569  12.351  0.00  0.00    +0.000 A 
ATOM     15  C   UNL     1      44.332   4.470  12.183  0.00  0.00    +0.000 A 
ATOM     16  O   UNL     1      44.956   4.168  10.998  0.00  0.00    +0.000 OA
ENDBRANCH  10  15
ENDBRANCH   9  10
ENDBRANCH   8   9
ENDBRANCH   2   8
ENDBRANCH   1   5
BRANCH   1  17
ATOM     17  N   UNL     1      51.701   8.560  10.146  0.00  0.00    +0.000 N 
ATOM     18  C   UNL     1      52.763   9.068   9.444  0.00  0.00    +0.000 C 
ATOM     19  O   UNL     1      53.448   9.991   9.875  0.00  0.00    +0.000 OA
ATOM     20  H   UNL     1      51.024   7.970   9.673  0.00  0.00    +0.000 HD
BRANCH  18  21
ATOM     21  C   UNL     1      53.083   8.407   8.171  0.00  0.00    +0.000 A 
ATOM     22  C   UNL     1      53.100   9.148   6.996  0.00  0.00    +0.000 A 
ATOM     23  S   UNL     1      53.540   8.240   5.621  0.00  0.00    +0.000 S 
ATOM     24  C   UNL     1      53.669   6.812   6.538  0.00  0.00    +0.000 A 
ATOM     25  N   UNL     1      53.995   5.629   5.951  0.00  0.00    +0.000 NA
ATOM     26  C   UNL     1      54.027   4.623   6.758  0.00  0.00    +0.000 A 
ATOM     27  N   UNL     1      53.769   4.693   8.103  0.00  0.00    +0.000 N 
ATOM     28  C   UNL     1      53.468   5.870   8.744  0.00  0.00    +0.000 A 
ATOM     29  O   UNL     1      53.289   5.903   9.959  0.00  0.00    +0.000 OA
ATOM     30  C   UNL     1      53.404   7.030   7.879  0.00  0.00    +0.000 A 
ATOM     31  H   UNL     1      53.821   3.868   8.683  0.00  0.00    +0.000 HD
ENDBRANCH  18  21
ENDBRANCH   1  17
TORSDOF 7
ENDMDL
MODEL 6
REMARK VINA RESULT:    -5.955      5.587      8.380
REMARK INTER + INTRA:          -9.365
REMARK INTER:                  -8.420
REMARK INTRA:                  -0.945
REMARK UNBOUND:                -0.972
REMARK  Name = 
REMARK  8 active torsions:
REMARK  status: ('A' for Active; 'I' for Inactive)
REMARK    1  A    between atoms: C_1  and  C_2
REMARK    2  A    between atoms: C_5  and  C_6
REMARK    3  A    between atoms: C_6  and  O_7
REMARK    4  A    between atoms: O_7  and  C_8
REMARK    5  A    between atoms: C_8  and  C_9
REMARK    6  A    between atoms: C_12  and  C_13
REMARK    7  A    between atoms: C_13  and  N_14
REMARK    8  A    between atoms: C_15  and  C_17
REMARK                            x       y       z     vdW  Elec       q    Type
REMARK                         _______ _______ _______ _____ _____    ______ ____
ROOT
ATOM      1  C   UNL     1      50.923   8.893  11.801  0.00  0.00    +0.000 C 
ENDROOT
BRANCH   1   5
ATOM      2  C   UNL     1      46.777   7.828  12.499  0.00  0.00    +0.000 A 
ATOM      3  C   UNL     1      47.775   6.843  12.482  0.00  0.00    +0.000 A 
ATOM      4  C   UNL     1      49.113   7.181  12.249  0.00  0.00    +0.000 A 
ATOM      5  C   UNL     1      49.484   8.516  12.041  0.00  0.00    +0.000 A 
ATOM      6  C   UNL     1      48.483   9.498  12.030  0.00  0.00    +0.000 A 
ATOM      7  C   UNL     1      47.146   9.159  12.263  0.00  0.00    +0.000 A 
BRANCH   2   8
ATOM      8  C   UNL     1      45.338   7.456  12.755  0.00  0.00    +0.000 C 
BRANCH   8   9
ATOM      9  O   UNL     1      45.268   6.055  13.003  0.00  0.00    +0.000 OA
BRANCH   9  10
ATOM     10  C   UNL     1      43.939   5.553  12.890  0.00  0.00    +0.000 C 
BRANCH  10  15
ATOM     11  C   UNL     1      44.673   3.867   8.407  0.00  0.00    +0.000 C 
ATOM     12  C   UNL     1      44.279   3.771   9.827  0.00  0.00    +0.000 A 
ATOM     13  N   UNL     1      43.834   2.721  10.485  0.00  0.00    +0.000 NA
ATOM     14  C   UNL     1      43.625   3.198  11.753  0.00  0.00    +0.000 A 
ATOM     15  C   UNL     1      43.952   4.532  11.821  0.00  0.00    +0.000 A 
ATOM     16  O   UNL     1      44.379   4.915  10.575  0.00  0.00    +0.000 OA
ENDBRANCH  10  15
ENDBRANCH   9  10
ENDBRANCH   8   9
ENDBRANCH   2   8
ENDBRANCH   1   5
BRANCH   1  17
ATOM     17  N   UNL     1      51.448   8.239  10.629  0.00  0.00    +0.000 N 
ATOM     18  C   UNL     1      52.718   7.723  10.609  0.00  0.00    +0.000 C 
ATOM     19  O   UNL     1      53.451   7.754  11.593  0.00  0.00    +0.000 OA
ATOM     20  H   UNL     1      50.962   8.408   9.754  0.00  0.00    +0.000 HD
BRANCH  18  21
ATOM     21  C   UNL     1      53.139   7.071   9.361  0.00  0.00    +0.000 A 
ATOM     22  C   UNL     1      53.525   5.736   9.378  0.00  0.00    +0.000 A 
ATOM     23  S   UNL     1      53.931   5.122   7.840  0.00  0.00    +0.000 S 
ATOM     24  C   UNL     1      53.661   6.633   7.105  0.00  0.00    +0.000 A 
ATOM     25  N   UNL     1      53.859   6.808   5.770  0.00  0.00    +0.000 NA
ATOM     26  C   UNL     1      53.647   8.011   5.352  0.00  0.00    +0.000 A 
ATOM     27  N   UNL     1      53.247   9.054   6.148  0.00  0.00    +0.000 N 
ATOM     28  C   UNL     1      53.003   8.916   7.492  0.00  0.00    +0.000 A 
ATOM     29  O   UNL     1      52.600   9.861   8.165  0.00  0.00    +0.000 OA
ATOM     30  C   UNL     1      53.242   7.587   8.016  0.00  0.00    +0.000 A 
ATOM     31  H   UNL     1      53.087   9.971   5.757  0.00  0.00    +0.000 HD
ENDBRANCH  18  21
ENDBRANCH   1  17
TORSDOF 7
ENDMDL
MODEL 7
REMARK VINA RESULT:    -5.820      2.240      2.758
REMARK INTER + INTRA:          -9.174
REMARK INTER:                  -8.401
REMARK INTRA:                  -0.773
REMARK UNBOUND:                -0.972
REMARK  Name = 
REMARK  8 active torsions:
REMARK  status: ('A' for Active; 'I' for Inactive)
REMARK    1  A    between atoms: C_1  and  C_2
REMARK    2  A    between atoms: C_5  and  C_6
REMARK    3  A    between atoms: C_6  and  O_7
REMARK    4  A    between atoms: O_7  and  C_8
REMARK    5  A    between atoms: C_8  and  C_9
REMARK    6  A    between atoms: C_12  and  C_13
REMARK    7  A    between atoms: C_13  and  N_14
REMARK    8  A    between atoms: C_15  and  C_17
REMARK                            x       y       z     vdW  Elec       q    Type
REMARK                         _______ _______ _______ _____ _____    ______ ____
ROOT
ATOM      1  C   UNL     1      47.382   8.776  12.182  0.00  0.00    +0.000 C 
ENDROOT
BRANCH   1   5
ATOM      2  C   UNL     1      44.854   5.255  12.012  0.00  0.00    +0.000 A 
ATOM      3  C   UNL     1      44.648   6.236  12.993  0.00  0.00    +0.000 A 
ATOM      4  C   UNL     1      45.467   7.370  13.056  0.00  0.00    +0.000 A 
ATOM      5  C   UNL     1      46.502   7.553  12.130  0.00  0.00    +0.000 A 
ATOM      6  C   UNL     1      46.726   6.560  11.167  0.00  0.00    +0.000 A 
ATOM      7  C   UNL     1      45.907   5.427  11.104  0.00  0.00    +0.000 A 
BRANCH   2   8
ATOM      8  C   UNL     1      43.964   4.039  11.948  0.00  0.00    +0.000 C 
BRANCH   8   9
ATOM      9  O   UNL     1      44.517   3.120  11.011  0.00  0.00    +0.000 OA
BRANCH   9  10
ATOM     10  C   UNL     1      43.959   3.277   9.708  0.00  0.00    +0.000 C 
BRANCH  10  15
ATOM     11  C   UNL     1      47.231   0.509   7.447  0.00  0.00    +0.000 C 
ATOM     12  C   UNL     1      46.495   1.759   7.725  0.00  0.00    +0.000 A 
ATOM     13  N   UNL     1      46.639   2.938   7.156  0.00  0.00    +0.000 NA
ATOM     14  C   UNL     1      45.715   3.722   7.797  0.00  0.00    +0.000 A 
ATOM     15  C   UNL     1      45.036   2.986   8.740  0.00  0.00    +0.000 A 
ATOM     16  O   UNL     1      45.536   1.708   8.702  0.00  0.00    +0.000 OA
ENDBRANCH  10  15
ENDBRANCH   9  10
ENDBRANCH   8   9
ENDBRANCH   2   8
ENDBRANCH   1   5
BRANCH   1  17
ATOM     17  N   UNL     1      48.320   8.700  13.273  0.00  0.00    +0.000 N 
ATOM     18  C   UNL     1      49.573   8.170  13.102  0.00  0.00    +0.000 C 
ATOM     19  O   UNL     1      49.970   7.776  12.010  0.00  0.00    +0.000 OA
ATOM     20  H   UNL     1      47.941   8.797  14.210  0.00  0.00    +0.000 HD
BRANCH  18  21
ATOM     21  C   UNL     1      50.444   8.155  14.285  0.00  0.00    +0.000 A 
ATOM     22  C   UNL     1      51.558   8.985  14.331  0.00  0.00    +0.000 A 
ATOM     23  S   UNL     1      52.428   8.881  15.794  0.00  0.00    +0.000 S 
ATOM     24  C   UNL     1      51.380   7.683  16.396  0.00  0.00    +0.000 A 
ATOM     25  N   UNL     1      51.583   7.126  17.621  0.00  0.00    +0.000 NA
ATOM     26  C   UNL     1      50.732   6.209  17.937  0.00  0.00    +0.000 A 
ATOM     27  N   UNL     1      49.691   5.802  17.143  0.00  0.00    +0.000 N 
ATOM     28  C   UNL     1      49.429   6.358  15.914  0.00  0.00    +0.000 A 
ATOM     29  O   UNL     1      48.459   6.001  15.250  0.00  0.00    +0.000 OA
ATOM     30  C   UNL     1      50.366   7.383  15.503  0.00  0.00    +0.000 A 
ATOM     31  H   UNL     1      49.053   5.085  17.454  0.00  0.00    +0.000 HD
ENDBRANCH  18  21
ENDBRANCH   1  17
TORSDOF 7
ENDMDL
MODEL 8
REMARK VINA RESULT:    -5.659      3.396      4.231
REMARK INTER + INTRA:          -8.946
REMARK INTER:                  -8.155
REMARK INTRA:                  -0.791
REMARK UNBOUND:                -0.972
REMARK  Name = 
REMARK  8 active torsions:
REMARK  status: ('A' for Active; 'I' for Inactive)
REMARK    1  A    between atoms: C_1  and  C_2
REMARK    2  A    between atoms: C_5  and  C_6
REMARK    3  A    between atoms: C_6  and  O_7
REMARK    4  A    between atoms: O_7  and  C_8
REMARK    5  A    between atoms: C_8  and  C_9
REMARK    6  A    between atoms: C_12  and  C_13
REMARK    7  A    between atoms: C_13  and  N_14
REMARK    8  A    between atoms: C_15  and  C_17
REMARK                            x       y       z     vdW  Elec       q    Type
REMARK                         _______ _______ _______ _____ _____    ______ ____
ROOT
ATOM      1  C   UNL     1      48.645   6.251  15.463  0.00  0.00    +0.000 C 
ENDROOT
BRANCH   1   5
ATOM      2  C   UNL     1      46.305   5.938  11.825  0.00  0.00    +0.000 A 
ATOM      3  C   UNL     1      46.132   5.015  12.868  0.00  0.00    +0.000 A 
ATOM      4  C   UNL     1      46.891   5.108  14.040  0.00  0.00    +0.000 A 
ATOM      5  C   UNL     1      47.831   6.134  14.200  0.00  0.00    +0.000 A 
ATOM      6  C   UNL     1      48.024   7.039  13.148  0.00  0.00    +0.000 A 
ATOM      7  C   UNL     1      47.265   6.946  11.976  0.00  0.00    +0.000 A 
BRANCH   2   8
ATOM      8  C   UNL     1      45.480   5.833  10.567  0.00  0.00    +0.000 C 
BRANCH   8   9
ATOM      9  O   UNL     1      44.682   4.656  10.643  0.00  0.00    +0.000 OA
BRANCH   9  10
ATOM     10  C   UNL     1      44.074   4.335   9.394  0.00  0.00    +0.000 C 
BRANCH  10  15
ATOM     11  C   UNL     1      47.059   2.856   5.876  0.00  0.00    +0.000 C 
ATOM     12  C   UNL     1      46.312   2.725   7.142  0.00  0.00    +0.000 A 
ATOM     13  N   UNL     1      46.277   1.702   7.971  0.00  0.00    +0.000 NA
ATOM     14  C   UNL     1      45.431   2.119   8.966  0.00  0.00    +0.000 A 
ATOM     15  C   UNL     1      44.978   3.391   8.704  0.00  0.00    +0.000 A 
ATOM     16  O   UNL     1      45.544   3.795   7.521  0.00  0.00    +0.000 OA
ENDBRANCH  10  15
ENDBRANCH   9  10
ENDBRANCH   8   9
ENDBRANCH   2   8
ENDBRANCH   1   5
BRANCH   1  17
ATOM     17  N   UNL     1      49.691   7.233  15.324  0.00  0.00    +0.000 N 
ATOM     18  C   UNL     1      50.950   7.008  15.816  0.00  0.00    +0.000 C 
ATOM     19  O   UNL     1      51.261   5.952  16.357  0.00  0.00    +0.000 OA
ATOM     20  H   UNL     1      49.402   8.180  15.099  0.00  0.00    +0.000 HD
BRANCH  18  21
ATOM     21  C   UNL     1      51.936   8.079  15.605  0.00  0.00    +0.000 A 
ATOM     22  C   UNL     1      52.582   8.188  14.380  0.00  0.00    +0.000 A 
ATOM     23  S   UNL     1      53.652   9.513  14.288  0.00  0.00    +0.000 S 
ATOM     24  C   UNL     1      53.331   9.955  15.900  0.00  0.00    +0.000 A 
ATOM     25  N   UNL     1      53.957  11.018  16.473  0.00  0.00    +0.000 NA
ATOM     26  C   UNL     1      53.643  11.221  17.708  0.00  0.00    +0.000 A 
ATOM     27  N   UNL     1      52.753  10.460  18.422  0.00  0.00    +0.000 N 
ATOM     28  C   UNL     1      52.074   9.398  17.875  0.00  0.00    +0.000 A 
ATOM     29  O   UNL     1      51.248   8.768  18.531  0.00  0.00    +0.000 OA
ATOM     30  C   UNL     1      52.402   9.118  16.493  0.00  0.00    +0.000 A 
ATOM     31  H   UNL     1      52.542  10.677  19.385  0.00  0.00    +0.000 HD
ENDBRANCH  18  21
ENDBRANCH   1  17
TORSDOF 7
ENDMDL
MODEL 9
REMARK VINA RESULT:    -5.213      2.072      3.157
REMARK INTER + INTRA:          -8.318
REMARK INTER:                  -7.696
REMARK INTRA:                  -0.622
REMARK UNBOUND:                -0.972
REMARK  Name = 
REMARK  8 active torsions:
REMARK  status: ('A' for Active; 'I' for Inactive)
REMARK    1  A    between atoms: C_1  and  C_2
REMARK    2  A    between atoms: C_5  and  C_6
REMARK    3  A    between atoms: C_6  and  O_7
REMARK    4  A    between atoms: O_7  and  C_8
REMARK    5  A    between atoms: C_8  and  C_9
REMARK    6  A    between atoms: C_12  and  C_13
REMARK    7  A    between atoms: C_13  and  N_14
REMARK    8  A    between atoms: C_15  and  C_17
REMARK                            x       y       z     vdW  Elec       q    Type
REMARK                         _______ _______ _______ _____ _____    ______ ____
ROOT
ATOM      1  C   UNL     1      49.894   7.987  14.527  0.00  0.00    +0.000 C 
ENDROOT
BRANCH   1   5
ATOM      2  C   UNL     1      46.213   7.991  12.232  0.00  0.00    +0.000 A 
ATOM      3  C   UNL     1      46.659   6.822  12.866  0.00  0.00    +0.000 A 
ATOM      4  C   UNL     1      47.850   6.814  13.601  0.00  0.00    +0.000 A 
ATOM      5  C   UNL     1      48.616   7.981  13.728  0.00  0.00    +0.000 A 
ATOM      6  C   UNL     1      48.185   9.142  13.071  0.00  0.00    +0.000 A 
ATOM      7  C   UNL     1      46.994   9.149  12.337  0.00  0.00    +0.000 A 
BRANCH   2   8
ATOM      8  C   UNL     1      44.926   7.992  11.446  0.00  0.00    +0.000 C 
BRANCH   8   9
ATOM      9  O   UNL     1      44.677   6.670  10.980  0.00  0.00    +0.000 OA
BRANCH   9  10
ATOM     10  C   UNL     1      43.768   5.963  11.822  0.00  0.00    +0.000 C 
BRANCH  10  15
ATOM     11  C   UNL     1      45.188   2.193   9.130  0.00  0.00    +0.000 C 
ATOM     12  C   UNL     1      44.413   2.865  10.192  0.00  0.00    +0.000 A 
ATOM     13  N   UNL     1      43.529   2.343  11.017  0.00  0.00    +0.000 NA
ATOM     14  C   UNL     1      43.125   3.409  11.777  0.00  0.00    +0.000 A 
ATOM     15  C   UNL     1      43.784   4.551  11.385  0.00  0.00    +0.000 A 
ATOM     16  O   UNL     1      44.624   4.209  10.355  0.00  0.00    +0.000 OA
ENDBRANCH  10  15
ENDBRANCH   9  10
ENDBRANCH   8   9
ENDBRANCH   2   8
ENDBRANCH   1   5
BRANCH   1  17
ATOM     17  N   UNL     1      49.650   7.655  15.908  0.00  0.00    +0.000 N 
ATOM     18  C   UNL     1      50.654   7.697  16.840  0.00  0.00    +0.000 C 
ATOM     19  O   UNL     1      51.793   8.058  16.556  0.00  0.00    +0.000 OA
ATOM     20  H   UNL     1      48.799   7.140  16.111  0.00  0.00    +0.000 HD
BRANCH  18  21
ATOM     21  C   UNL     1      50.284   7.346  18.218  0.00  0.00    +0.000 A 
ATOM     22  C   UNL     1      50.428   8.287  19.230  0.00  0.00    +0.000 A 
ATOM     23  S   UNL     1      49.903   7.736  20.756  0.00  0.00    +0.000 S 
ATOM     24  C   UNL     1      49.516   6.201  20.130  0.00  0.00    +0.000 A 
ATOM     25  N   UNL     1      49.031   5.218  20.935  0.00  0.00    +0.000 NA
ATOM     26  C   UNL     1      48.811   4.096  20.335  0.00  0.00    +0.000 A 
ATOM     27  N   UNL     1      49.026   3.871  18.999  0.00  0.00    +0.000 N 
ATOM     28  C   UNL     1      49.483   4.843  18.143  0.00  0.00    +0.000 A 
ATOM     29  O   UNL     1      49.619   4.619  16.943  0.00  0.00    +0.000 OA
ATOM     30  C   UNL     1      49.762   6.119  18.770  0.00  0.00    +0.000 A 
ATOM     31  H   UNL     1      48.824   2.972  18.588  0.00  0.00    +0.000 HD
ENDBRANCH  18  21
ENDBRANCH   1  17
TORSDOF 7
ENDMDL
