MODEL 1
REMARK VINA RESULT:    -7.131      0.000      0.000
REMARK INTER + INTRA:         -11.145
REMARK INTER:                 -10.049
REMARK INTRA:                  -1.096
REMARK UNBOUND:                -1.096
REMARK  Name = 
REMARK  9 active torsions:
REMARK  status: ('A' for Active; 'I' for Inactive)
REMARK    1  A    between atoms: C_1  and  O_2
REMARK    2  A    between atoms: O_2  and  C_3
REMARK    3  A    between atoms: C_10  and  C_11
REMARK    4  A    between atoms: N_13  and  C_14
REMARK    5  A    between atoms: C_14  and  C_15
REMARK    6  A    between atoms: C_18  and  N_19
REMARK    7  A    between atoms: N_19  and  C_20
REMARK    8  A    between atoms: N_19  and  C_21
REMARK    9  A    between atoms: C_21  and  C_22
REMARK                            x       y       z     vdW  Elec       q    Type
REMARK                         _______ _______ _______ _____ _____    ______ ____
ROOT
ATOM      1  C   UNL     1      47.307   3.378  16.885  0.00  0.00    +0.000 C 
ENDROOT
BRANCH   1   2
ATOM      2  C   UNL     1      48.799   3.370  17.081  0.00  0.00    +0.000 A 
ATOM      3  C   UNL     1      49.528   2.185  17.010  0.00  0.00    +0.000 A 
ATOM      4  C   UNL     1      50.904   2.173  17.295  0.00  0.00    +0.000 A 
ATOM      5  C   UNL     1      51.617   3.332  17.662  0.00  0.00    +0.000 A 
ATOM      6  C   UNL     1      50.855   4.510  17.715  0.00  0.00    +0.000 A 
ATOM      7  C   UNL     1      49.481   4.537  17.425  0.00  0.00    +0.000 A 
BRANCH   5   8
ATOM      8  N   UNL     1      52.975   3.274  17.999  0.00  0.00    +0.000 N 
ATOM      9  C   UNL     1      53.684   4.549  18.180  0.00  0.00    +0.000 C 
BRANCH   8  10
ATOM     10  C   UNL     1      53.523   2.175  18.822  0.00  0.00    +0.000 C 
BRANCH  10  11
ATOM     11  C   UNL     1      54.886   1.665  18.297  0.00  0.00    +0.000 C 
ATOM     12  C   UNL     1      54.774   1.272  16.810  0.00  0.00    +0.000 C 
ATOM     13  C   UNL     1      53.948  -0.004  16.607  0.00  0.00    +0.000 C 
ATOM     14  N   UNL     1      54.430  -1.130  17.408  0.00  0.00    +0.000 NA
ATOM     15  C   UNL     1      54.543  -0.794  18.829  0.00  0.00    +0.000 C 
ATOM     16  C   UNL     1      55.421   0.438  19.054  0.00  0.00    +0.000 C 
ATOM     17  H   UNL     1      55.347  -1.414  17.065  0.00  0.00    +0.000 HD
ENDBRANCH  10  11
ENDBRANCH   8  10
ENDBRANCH   5   8
ENDBRANCH   1   2
BRANCH   1  20
ATOM     18  C   UNL     1      46.947   4.168  14.591  0.00  0.00    +0.000 C 
ATOM     19  O   UNL     1      47.317   3.091  14.130  0.00  0.00    +0.000 OA
ATOM     20  N   UNL     1      46.919   4.401  15.941  0.00  0.00    +0.000 N 
ATOM     21  H   UNL     1      46.530   5.263  16.300  0.00  0.00    +0.000 HD
BRANCH  18  29
ATOM     22  C   UNL     1      44.217   4.828  12.656  0.00  0.00    +0.000 A 
ATOM     23  N   UNL     1      43.255   5.357  11.870  0.00  0.00    +0.000 NA
ATOM     24  C   UNL     1      43.456   6.574  11.354  0.00  0.00    +0.000 A 
ATOM     25  N   UNL     1      44.529   7.344  11.514  0.00  0.00    +0.000 NA
ATOM     26  C   UNL     1      45.459   6.786  12.306  0.00  0.00    +0.000 A 
ATOM     27  S   UNL     1      46.917   7.605  12.597  0.00  0.00    +0.000 S 
ATOM     28  C   UNL     1      47.494   6.337  13.574  0.00  0.00    +0.000 A 
ATOM     29  C   UNL     1      46.585   5.294  13.719  0.00  0.00    +0.000 A 
ATOM     30  C   UNL     1      45.389   5.546  12.931  0.00  0.00    +0.000 A 
BRANCH  22  32
ATOM     31  C   UNL     1      43.512   2.635  12.225  0.00  0.00    +0.000 C 
ATOM     32  O   UNL     1      44.032   3.562  13.176  0.00  0.00    +0.000 OA
ENDBRANCH  22  32
ENDBRANCH  18  29
ENDBRANCH   1  20
TORSDOF 7
ENDMDL
MODEL 2
REMARK VINA RESULT:    -6.904      4.735      9.313
REMARK INTER + INTRA:         -10.825
REMARK INTER:                  -9.550
REMARK INTRA:                  -1.275
REMARK UNBOUND:                -1.096
REMARK  Name = 
REMARK  9 active torsions:
REMARK  status: ('A' for Active; 'I' for Inactive)
REMARK    1  A    between atoms: C_1  and  O_2
REMARK    2  A    between atoms: O_2  and  C_3
REMARK    3  A    between atoms: C_10  and  C_11
REMARK    4  A    between atoms: N_13  and  C_14
REMARK    5  A    between atoms: C_14  and  C_15
REMARK    6  A    between atoms: C_18  and  N_19
REMARK    7  A    between atoms: N_19  and  C_20
REMARK    8  A    between atoms: N_19  and  C_21
REMARK    9  A    between atoms: C_21  and  C_22
REMARK                            x       y       z     vdW  Elec       q    Type
REMARK                         _______ _______ _______ _____ _____    ______ ____
ROOT
ATOM      1  C   UNL     1      47.552   8.867  13.722  0.00  0.00    +0.000 C 
ENDROOT
BRANCH   1   2
ATOM      2  C   UNL     1      46.891   7.594  13.266  0.00  0.00    +0.000 A 
ATOM      3  C   UNL     1      45.691   7.618  12.558  0.00  0.00    +0.000 A 
ATOM      4  C   UNL     1      45.031   6.423  12.226  0.00  0.00    +0.000 A 
ATOM      5  C   UNL     1      45.529   5.154  12.580  0.00  0.00    +0.000 A 
ATOM      6  C   UNL     1      46.743   5.163  13.284  0.00  0.00    +0.000 A 
ATOM      7  C   UNL     1      47.417   6.350  13.615  0.00  0.00    +0.000 A 
BRANCH   5   8
ATOM      8  N   UNL     1      44.814   3.985  12.287  0.00  0.00    +0.000 N 
ATOM      9  C   UNL     1      43.359   4.011  12.492  0.00  0.00    +0.000 C 
BRANCH   8  10
ATOM     10  C   UNL     1      45.238   3.065  11.211  0.00  0.00    +0.000 C 
BRANCH  10  11
ATOM     11  C   UNL     1      44.277   3.088   9.999  0.00  0.00    +0.000 C 
ATOM     12  C   UNL     1      44.487   1.837   9.125  0.00  0.00    +0.000 C 
ATOM     13  C   UNL     1      45.821   1.871   8.370  0.00  0.00    +0.000 C 
ATOM     14  N   UNL     1      46.002   3.092   7.583  0.00  0.00    +0.000 NA
ATOM     15  C   UNL     1      45.816   4.303   8.385  0.00  0.00    +0.000 C 
ATOM     16  C   UNL     1      44.459   4.316   9.090  0.00  0.00    +0.000 C 
ATOM     17  H   UNL     1      45.326   3.098   6.819  0.00  0.00    +0.000 HD
ENDBRANCH  10  11
ENDBRANCH   8  10
ENDBRANCH   5   8
ENDBRANCH   1   2
BRANCH   1  20
ATOM     18  C   UNL     1      48.404   8.931  16.021  0.00  0.00    +0.000 C 
ATOM     19  O   UNL     1      49.533   8.624  15.644  0.00  0.00    +0.000 OA
ATOM     20  N   UNL     1      47.362   9.063  15.141  0.00  0.00    +0.000 N 
ATOM     21  H   UNL     1      46.464   9.399  15.464  0.00  0.00    +0.000 HD
BRANCH  18  29
ATOM     22  C   UNL     1      48.005   6.723  18.590  0.00  0.00    +0.000 A 
ATOM     23  N   UNL     1      47.851   6.090  19.773  0.00  0.00    +0.000 NA
ATOM     24  C   UNL     1      47.642   6.833  20.866  0.00  0.00    +0.000 A 
ATOM     25  N   UNL     1      47.547   8.158  20.927  0.00  0.00    +0.000 NA
ATOM     26  C   UNL     1      47.711   8.750  19.733  0.00  0.00    +0.000 A 
ATOM     27  S   UNL     1      47.588  10.438  19.606  0.00  0.00    +0.000 S 
ATOM     28  C   UNL     1      47.868  10.384  17.929  0.00  0.00    +0.000 A 
ATOM     29  C   UNL     1      48.089   9.098  17.447  0.00  0.00    +0.000 A 
ATOM     30  C   UNL     1      47.957   8.122  18.517  0.00  0.00    +0.000 A 
BRANCH  22  32
ATOM     31  C   UNL     1      49.539   5.504  17.304  0.00  0.00    +0.000 C 
ATOM     32  O   UNL     1      48.198   5.967  17.451  0.00  0.00    +0.000 OA
ENDBRANCH  22  32
ENDBRANCH  18  29
ENDBRANCH   1  20
TORSDOF 7
ENDMDL
MODEL 3
REMARK VINA RESULT:    -6.477      1.615      2.838
REMARK INTER + INTRA:         -10.224
REMARK INTER:                  -8.860
REMARK INTRA:                  -1.363
REMARK UNBOUND:                -1.096
REMARK  Name = 
REMARK  9 active torsions:
REMARK  status: ('A' for Active; 'I' for Inactive)
REMARK    1  A    between atoms: C_1  and  O_2
REMARK    2  A    between atoms: O_2  and  C_3
REMARK    3  A    between atoms: C_10  and  C_11
REMARK    4  A    between atoms: N_13  and  C_14
REMARK    5  A    between atoms: C_14  and  C_15
REMARK    6  A    between atoms: C_18  and  N_19
REMARK    7  A    between atoms: N_19  and  C_20
REMARK    8  A    between atoms: N_19  and  C_21
REMARK    9  A    between atoms: C_21  and  C_22
REMARK                            x       y       z     vdW  Elec       q    Type
REMARK                         _______ _______ _______ _____ _____    ______ ____
ROOT
ATOM      1  C   UNL     1      47.570   3.598  17.316  0.00  0.00    +0.000 C 
ENDROOT
BRANCH   1   2
ATOM      2  C   UNL     1      49.069   3.522  17.416  0.00  0.00    +0.000 A 
ATOM      3  C   UNL     1      49.748   2.330  17.172  0.00  0.00    +0.000 A 
ATOM      4  C   UNL     1      51.137   2.244  17.367  0.00  0.00    +0.000 A 
ATOM      5  C   UNL     1      51.913   3.333  17.810  0.00  0.00    +0.000 A 
ATOM      6  C   UNL     1      51.202   4.521  18.038  0.00  0.00    +0.000 A 
ATOM      7  C   UNL     1      49.814   4.623  17.839  0.00  0.00    +0.000 A 
BRANCH   5   8
ATOM      8  N   UNL     1      53.286   3.196  18.054  0.00  0.00    +0.000 N 
ATOM      9  C   UNL     1      54.087   4.426  18.132  0.00  0.00    +0.000 C 
BRANCH   8  10
ATOM     10  C   UNL     1      53.821   2.094  18.881  0.00  0.00    +0.000 C 
BRANCH  10  11
ATOM     11  C   UNL     1      55.124   1.497  18.300  0.00  0.00    +0.000 C 
ATOM     12  C   UNL     1      54.932   1.136  16.814  0.00  0.00    +0.000 C 
ATOM     13  C   UNL     1      54.010  -0.075  16.623  0.00  0.00    +0.000 C 
ATOM     14  N   UNL     1      54.438  -1.245  17.393  0.00  0.00    +0.000 NA
ATOM     15  C   UNL     1      54.625  -0.940  18.812  0.00  0.00    +0.000 C 
ATOM     16  C   UNL     1      55.596   0.223  19.021  0.00  0.00    +0.000 C 
ATOM     17  H   UNL     1      55.320  -1.588  17.012  0.00  0.00    +0.000 HD
ENDBRANCH  10  11
ENDBRANCH   8  10
ENDBRANCH   5   8
ENDBRANCH   1   2
BRANCH   1  20
ATOM     18  C   UNL     1      47.147   4.078  14.948  0.00  0.00    +0.000 C 
ATOM     19  O   UNL     1      47.477   2.939  14.626  0.00  0.00    +0.000 OA
ATOM     20  N   UNL     1      47.171   4.493  16.253  0.00  0.00    +0.000 N 
ATOM     21  H   UNL     1      46.814   5.406  16.503  0.00  0.00    +0.000 HD
BRANCH  18  29
ATOM     22  C   UNL     1      48.659   6.932  13.851  0.00  0.00    +0.000 A 
ATOM     23  N   UNL     1      49.054   8.051  13.207  0.00  0.00    +0.000 NA
ATOM     24  C   UNL     1      48.280   8.521  12.222  0.00  0.00    +0.000 A 
ATOM     25  N   UNL     1      47.125   8.014  11.799  0.00  0.00    +0.000 NA
ATOM     26  C   UNL     1      46.770   6.900  12.460  0.00  0.00    +0.000 A 
ATOM     27  S   UNL     1      45.306   6.128  12.085  0.00  0.00    +0.000 S 
ATOM     28  C   UNL     1      45.570   4.937  13.269  0.00  0.00    +0.000 A 
ATOM     29  C   UNL     1      46.779   5.085  13.942  0.00  0.00    +0.000 A 
ATOM     30  C   UNL     1      47.474   6.277  13.486  0.00  0.00    +0.000 A 
BRANCH  22  32
ATOM     31  C   UNL     1      49.969   7.479  15.716  0.00  0.00    +0.000 C 
ATOM     32  O   UNL     1      49.436   6.449  14.885  0.00  0.00    +0.000 OA
ENDBRANCH  22  32
ENDBRANCH  18  29
ENDBRANCH   1  20
TORSDOF 7
ENDMDL
MODEL 4
REMARK VINA RESULT:    -6.459      3.149      9.605
REMARK INTER + INTRA:         -10.199
REMARK INTER:                  -9.097
REMARK INTRA:                  -1.102
REMARK UNBOUND:                -1.096
REMARK  Name = 
REMARK  9 active torsions:
REMARK  status: ('A' for Active; 'I' for Inactive)
REMARK    1  A    between atoms: C_1  and  O_2
REMARK    2  A    between atoms: O_2  and  C_3
REMARK    3  A    between atoms: C_10  and  C_11
REMARK    4  A    between atoms: N_13  and  C_14
REMARK    5  A    between atoms: C_14  and  C_15
REMARK    6  A    between atoms: C_18  and  N_19
REMARK    7  A    between atoms: N_19  and  C_20
REMARK    8  A    between atoms: N_19  and  C_21
REMARK    9  A    between atoms: C_21  and  C_22
REMARK                            x       y       z     vdW  Elec       q    Type
REMARK                         _______ _______ _______ _____ _____    ______ ____
ROOT
ATOM      1  C   UNL     1      48.752   3.272  18.259  0.00  0.00    +0.000 C 
ENDROOT
BRANCH   1   2
ATOM      2  C   UNL     1      48.338   3.966  16.989  0.00  0.00    +0.000 A 
ATOM      3  C   UNL     1      48.714   5.284  16.734  0.00  0.00    +0.000 A 
ATOM      4  C   UNL     1      48.238   5.955  15.595  0.00  0.00    +0.000 A 
ATOM      5  C   UNL     1      47.373   5.353  14.660  0.00  0.00    +0.000 A 
ATOM      6  C   UNL     1      47.021   4.023  14.941  0.00  0.00    +0.000 A 
ATOM      7  C   UNL     1      47.496   3.338  16.072  0.00  0.00    +0.000 A 
BRANCH   5   8
ATOM      8  N   UNL     1      46.868   6.071  13.568  0.00  0.00    +0.000 N 
ATOM      9  C   UNL     1      47.829   6.518  12.549  0.00  0.00    +0.000 C 
BRANCH   8  10
ATOM     10  C   UNL     1      45.516   5.815  13.029  0.00  0.00    +0.000 C 
BRANCH  10  11
ATOM     11  C   UNL     1      45.542   4.919  11.768  0.00  0.00    +0.000 C 
ATOM     12  C   UNL     1      44.568   5.461  10.704  0.00  0.00    +0.000 C 
ATOM     13  C   UNL     1      43.101   5.266  11.105  0.00  0.00    +0.000 C 
ATOM     14  N   UNL     1      42.781   3.878  11.444  0.00  0.00    +0.000 NA
ATOM     15  C   UNL     1      43.685   3.330  12.458  0.00  0.00    +0.000 C 
ATOM     16  C   UNL     1      45.151   3.456  12.041  0.00  0.00    +0.000 C 
ATOM     17  H   UNL     1      42.849   3.306  10.602  0.00  0.00    +0.000 HD
ENDBRANCH  10  11
ENDBRANCH   8  10
ENDBRANCH   5   8
ENDBRANCH   1   2
BRANCH   1  20
ATOM     18  C   UNL     1      50.841   2.262  17.466  0.00  0.00    +0.000 C 
ATOM     19  O   UNL     1      50.236   1.584  16.639  0.00  0.00    +0.000 OA
ATOM     20  N   UNL     1      50.187   3.116  18.314  0.00  0.00    +0.000 N 
ATOM     21  H   UNL     1      50.713   3.726  18.927  0.00  0.00    +0.000 HD
BRANCH  18  29
ATOM     22  C   UNL     1      53.357   4.553  17.711  0.00  0.00    +0.000 A 
ATOM     23  N   UNL     1      54.513   5.228  17.888  0.00  0.00    +0.000 NA
ATOM     24  C   UNL     1      55.629   4.525  18.113  0.00  0.00    +0.000 A 
ATOM     25  N   UNL     1      55.744   3.201  18.168  0.00  0.00    +0.000 NA
ATOM     26  C   UNL     1      54.573   2.567  17.993  0.00  0.00    +0.000 A 
ATOM     27  S   UNL     1      54.526   0.870  17.994  0.00  0.00    +0.000 S 
ATOM     28  C   UNL     1      52.848   0.864  17.712  0.00  0.00    +0.000 A 
ATOM     29  C   UNL     1      52.295   2.139  17.645  0.00  0.00    +0.000 A 
ATOM     30  C   UNL     1      53.331   3.152  17.773  0.00  0.00    +0.000 A 
BRANCH  22  32
ATOM     31  C   UNL     1      52.408   6.374  16.581  0.00  0.00    +0.000 C 
ATOM     32  O   UNL     1      52.202   5.265  17.455  0.00  0.00    +0.000 OA
ENDBRANCH  22  32
ENDBRANCH  18  29
ENDBRANCH   1  20
TORSDOF 7
ENDMDL
MODEL 5
REMARK VINA RESULT:    -6.424      4.470      9.237
REMARK INTER + INTRA:         -10.149
REMARK INTER:                  -9.083
REMARK INTRA:                  -1.066
REMARK UNBOUND:                -1.096
REMARK  Name = 
REMARK  9 active torsions:
REMARK  status: ('A' for Active; 'I' for Inactive)
REMARK    1  A    between atoms: C_1  and  O_2
REMARK    2  A    between atoms: O_2  and  C_3
REMARK    3  A    between atoms: C_10  and  C_11
REMARK    4  A    between atoms: N_13  and  C_14
REMARK    5  A    between atoms: C_14  and  C_15
REMARK    6  A    between atoms: C_18  and  N_19
REMARK    7  A    between atoms: N_19  and  C_20
REMARK    8  A    between atoms: N_19  and  C_21
REMARK    9  A    between atoms: C_21  and  C_22
REMARK                            x       y       z     vdW  Elec       q    Type
REMARK                         _______ _______ _______ _____ _____    ______ ____
ROOT
ATOM      1  C   UNL     1      47.900   8.936  12.849  0.00  0.00    +0.000 C 
ENDROOT
BRANCH   1   2
ATOM      2  C   UNL     1      46.956   7.840  12.433  0.00  0.00    +0.000 A 
ATOM      3  C   UNL     1      45.796   7.576  13.159  0.00  0.00    +0.000 A 
ATOM      4  C   UNL     1      44.975   6.487  12.823  0.00  0.00    +0.000 A 
ATOM      5  C   UNL     1      45.264   5.614  11.756  0.00  0.00    +0.000 A 
ATOM      6  C   UNL     1      46.434   5.913  11.040  0.00  0.00    +0.000 A 
ATOM      7  C   UNL     1      47.260   7.003  11.360  0.00  0.00    +0.000 A 
BRANCH   5   8
ATOM      8  N   UNL     1      44.457   4.501  11.487  0.00  0.00    +0.000 N 
ATOM      9  C   UNL     1      43.026   4.743  11.252  0.00  0.00    +0.000 C 
BRANCH   8  10
ATOM     10  C   UNL     1      44.978   3.320  10.767  0.00  0.00    +0.000 C 
BRANCH  10  11
ATOM     11  C   UNL     1      44.263   3.087   9.415  0.00  0.00    +0.000 C 
ATOM     12  C   UNL     1      44.582   1.679   8.875  0.00  0.00    +0.000 C 
ATOM     13  C   UNL     1      46.035   1.554   8.400  0.00  0.00    +0.000 C 
ATOM     14  N   UNL     1      46.409   2.582   7.428  0.00  0.00    +0.000 NA
ATOM     15  C   UNL     1      46.125   3.935   7.910  0.00  0.00    +0.000 C 
ATOM     16  C   UNL     1      44.661   4.096   8.324  0.00  0.00    +0.000 C 
ATOM     17  H   UNL     1      45.889   2.427   6.564  0.00  0.00    +0.000 HD
ENDBRANCH  10  11
ENDBRANCH   8  10
ENDBRANCH   5   8
ENDBRANCH   1   2
BRANCH   1  20
ATOM     18  C   UNL     1      49.158   7.962  14.716  0.00  0.00    +0.000 C 
ATOM     19  O   UNL     1      49.767   7.213  13.956  0.00  0.00    +0.000 OA
ATOM     20  N   UNL     1      48.211   8.839  14.257  0.00  0.00    +0.000 N 
ATOM     21  H   UNL     1      47.784   9.503  14.890  0.00  0.00    +0.000 HD
BRANCH  18  29
ATOM     22  C   UNL     1      48.727   5.492  17.029  0.00  0.00    +0.000 A 
ATOM     23  N   UNL     1      48.698   4.699  18.121  0.00  0.00    +0.000 NA
ATOM     24  C   UNL     1      49.106   5.213  19.287  0.00  0.00    +0.000 A 
ATOM     25  N   UNL     1      49.534   6.452  19.510  0.00  0.00    +0.000 NA
ATOM     26  C   UNL     1      49.553   7.207  18.399  0.00  0.00    +0.000 A 
ATOM     27  S   UNL     1      50.035   8.831  18.493  0.00  0.00    +0.000 S 
ATOM     28  C   UNL     1      49.778   9.058  16.827  0.00  0.00    +0.000 A 
ATOM     29  C   UNL     1      49.355   7.906  16.172  0.00  0.00    +0.000 A 
ATOM     30  C   UNL     1      49.184   6.814  17.117  0.00  0.00    +0.000 A 
BRANCH  22  32
ATOM     31  C   UNL     1      47.222   4.042  15.966  0.00  0.00    +0.000 C 
ATOM     32  O   UNL     1      48.287   4.982  15.824  0.00  0.00    +0.000 OA
ENDBRANCH  22  32
ENDBRANCH  18  29
ENDBRANCH   1  20
TORSDOF 7
ENDMDL
MODEL 6
REMARK VINA RESULT:    -6.090      3.540      9.325
REMARK INTER + INTRA:          -9.678
REMARK INTER:                  -8.352
REMARK INTRA:                  -1.325
REMARK UNBOUND:                -1.096
REMARK  Name = 
REMARK  9 active torsions:
REMARK  status: ('A' for Active; 'I' for Inactive)
REMARK    1  A    between atoms: C_1  and  O_2
REMARK    2  A    between atoms: O_2  and  C_3
REMARK    3  A    between atoms: C_10  and  C_11
REMARK    4  A    between atoms: N_13  and  C_14
REMARK    5  A    between atoms: C_14  and  C_15
REMARK    6  A    between atoms: C_18  and  N_19
REMARK    7  A    between atoms: N_19  and  C_20
REMARK    8  A    between atoms: N_19  and  C_21
REMARK    9  A    between atoms: C_21  and  C_22
REMARK                            x       y       z     vdW  Elec       q    Type
REMARK                         _______ _______ _______ _____ _____    ______ ____
ROOT
ATOM      1  C   UNL     1      50.803   8.803  13.050  0.00  0.00    +0.000 C 
ENDROOT
BRANCH   1   2
ATOM      2  C   UNL     1      49.369   8.554  12.669  0.00  0.00    +0.000 A 
ATOM      3  C   UNL     1      48.388   9.520  12.888  0.00  0.00    +0.000 A 
ATOM      4  C   UNL     1      47.037   9.239  12.624  0.00  0.00    +0.000 A 
ATOM      5  C   UNL     1      46.598   7.994  12.131  0.00  0.00    +0.000 A 
ATOM      6  C   UNL     1      47.611   7.048  11.913  0.00  0.00    +0.000 A 
ATOM      7  C   UNL     1      48.967   7.318  12.166  0.00  0.00    +0.000 A 
BRANCH   5   8
ATOM      8  N   UNL     1      45.237   7.728  11.937  0.00  0.00    +0.000 N 
ATOM      9  C   UNL     1      44.427   8.773  11.295  0.00  0.00    +0.000 C 
BRANCH   8  10
ATOM     10  C   UNL     1      44.743   6.360  11.675  0.00  0.00    +0.000 C 
BRANCH  10  11
ATOM     11  C   UNL     1      44.271   5.644  12.963  0.00  0.00    +0.000 C 
ATOM     12  C   UNL     1      45.371   4.699  13.485  0.00  0.00    +0.000 C 
ATOM     13  C   UNL     1      45.558   3.471  12.586  0.00  0.00    +0.000 C 
ATOM     14  N   UNL     1      44.312   2.740  12.351  0.00  0.00    +0.000 NA
ATOM     15  C   UNL     1      43.244   3.607  11.848  0.00  0.00    +0.000 C 
ATOM     16  C   UNL     1      42.999   4.801  12.771  0.00  0.00    +0.000 C 
ATOM     17  H   UNL     1      44.005   2.317  13.227  0.00  0.00    +0.000 HD
ENDBRANCH  10  11
ENDBRANCH   8  10
ENDBRANCH   5   8
ENDBRANCH   1   2
BRANCH   1  20
ATOM     18  C   UNL     1      51.612   8.105  15.258  0.00  0.00    +0.000 C 
ATOM     19  O   UNL     1      51.548   9.257  15.680  0.00  0.00    +0.000 OA
ATOM     20  N   UNL     1      51.273   7.791  13.969  0.00  0.00    +0.000 N 
ATOM     21  H   UNL     1      51.252   6.824  13.670  0.00  0.00    +0.000 HD
BRANCH  18  29
ATOM     22  C   UNL     1      50.106   5.541  16.928  0.00  0.00    +0.000 A 
ATOM     23  N   UNL     1      49.784   4.427  17.620  0.00  0.00    +0.000 NA
ATOM     24  C   UNL     1      50.776   3.701  18.150  0.00  0.00    +0.000 A 
ATOM     25  N   UNL     1      52.079   3.962  18.090  0.00  0.00    +0.000 NA
ATOM     26  C   UNL     1      52.358   5.073  17.389  0.00  0.00    +0.000 A 
ATOM     27  S   UNL     1      53.968   5.588  17.234  0.00  0.00    +0.000 S 
ATOM     28  C   UNL     1      53.501   6.943  16.318  0.00  0.00    +0.000 A 
ATOM     29  C   UNL     1      52.130   7.010  16.090  0.00  0.00    +0.000 A 
ATOM     30  C   UNL     1      51.447   5.916  16.762  0.00  0.00    +0.000 A 
BRANCH  22  32
ATOM     31  C   UNL     1      48.097   5.542  15.721  0.00  0.00    +0.000 C 
ATOM     32  O   UNL     1      49.092   6.311  16.396  0.00  0.00    +0.000 OA
ENDBRANCH  22  32
ENDBRANCH  18  29
ENDBRANCH   1  20
TORSDOF 7
ENDMDL
MODEL 7
REMARK VINA RESULT:    -5.965      4.448      9.367
REMARK INTER + INTRA:          -9.503
REMARK INTER:                  -8.472
REMARK INTRA:                  -1.031
REMARK UNBOUND:                -1.096
REMARK  Name = 
REMARK  9 active torsions:
REMARK  status: ('A' for Active; 'I' for Inactive)
REMARK    1  A    between atoms: C_1  and  O_2
REMARK    2  A    between atoms: O_2  and  C_3
REMARK    3  A    between atoms: C_10  and  C_11
REMARK    4  A    between atoms: N_13  and  C_14
REMARK    5  A    between atoms: C_14  and  C_15
REMARK    6  A    between atoms: C_18  and  N_19
REMARK    7  A    between atoms: N_19  and  C_20
REMARK    8  A    between atoms: N_19  and  C_21
REMARK    9  A    between atoms: C_21  and  C_22
REMARK                            x       y       z     vdW  Elec       q    Type
REMARK                         _______ _______ _______ _____ _____    ______ ____
ROOT
ATOM      1  C   UNL     1      50.078   8.917  14.407  0.00  0.00    +0.000 C 
ENDROOT
BRANCH   1   2
ATOM      2  C   UNL     1      48.873   8.405  13.665  0.00  0.00    +0.000 A 
ATOM      3  C   UNL     1      47.615   8.973  13.857  0.00  0.00    +0.000 A 
ATOM      4  C   UNL     1      46.480   8.423  13.237  0.00  0.00    +0.000 A 
ATOM      5  C   UNL     1      46.541   7.290  12.401  0.00  0.00    +0.000 A 
ATOM      6  C   UNL     1      47.823   6.749  12.221  0.00  0.00    +0.000 A 
ATOM      7  C   UNL     1      48.967   7.294  12.828  0.00  0.00    +0.000 A 
BRANCH   5   8
ATOM      8  N   UNL     1      45.381   6.731  11.848  0.00  0.00    +0.000 N 
ATOM      9  C   UNL     1      44.429   7.646  11.202  0.00  0.00    +0.000 C 
BRANCH   8  10
ATOM     10  C   UNL     1      45.376   5.372  11.267  0.00  0.00    +0.000 C 
BRANCH  10  11
ATOM     11  C   UNL     1      44.046   5.041  10.548  0.00  0.00    +0.000 C 
ATOM     12  C   UNL     1      43.063   4.367  11.525  0.00  0.00    +0.000 C 
ATOM     13  C   UNL     1      43.494   2.943  11.894  0.00  0.00    +0.000 C 
ATOM     14  N   UNL     1      43.729   2.095  10.724  0.00  0.00    +0.000 NA
ATOM     15  C   UNL     1      44.665   2.703   9.776  0.00  0.00    +0.000 C 
ATOM     16  C   UNL     1      44.212   4.098   9.345  0.00  0.00    +0.000 C 
ATOM     17  H   UNL     1      42.842   1.932  10.249  0.00  0.00    +0.000 HD
ENDBRANCH  10  11
ENDBRANCH   8  10
ENDBRANCH   5   8
ENDBRANCH   1   2
BRANCH   1  20
ATOM     18  C   UNL     1      50.620   7.476  16.317  0.00  0.00    +0.000 C 
ATOM     19  O   UNL     1      51.261   6.713  15.599  0.00  0.00    +0.000 OA
ATOM     20  N   UNL     1      49.994   8.585  15.811  0.00  0.00    +0.000 N 
ATOM     21  H   UNL     1      49.545   9.243  16.434  0.00  0.00    +0.000 HD
BRANCH  18  29
ATOM     22  C   UNL     1      49.075   4.952  18.012  0.00  0.00    +0.000 A 
ATOM     23  N   UNL     1      48.593   4.073  18.917  0.00  0.00    +0.000 NA
ATOM     24  C   UNL     1      48.797   4.324  20.215  0.00  0.00    +0.000 A 
ATOM     25  N   UNL     1      49.420   5.376  20.739  0.00  0.00    +0.000 NA
ATOM     26  C   UNL     1      49.889   6.223  19.808  0.00  0.00    +0.000 A 
ATOM     27  S   UNL     1      50.684   7.644  20.286  0.00  0.00    +0.000 S 
ATOM     28  C   UNL     1      50.914   8.122  18.671  0.00  0.00    +0.000 A 
ATOM     29  C   UNL     1      50.424   7.202  17.748  0.00  0.00    +0.000 A 
ATOM     30  C   UNL     1      49.779   6.091  18.428  0.00  0.00    +0.000 A 
BRANCH  22  32
ATOM     31  C   UNL     1      47.506   4.340  16.382  0.00  0.00    +0.000 C 
ATOM     32  O   UNL     1      48.852   4.717  16.670  0.00  0.00    +0.000 OA
ENDBRANCH  22  32
ENDBRANCH  18  29
ENDBRANCH   1  20
TORSDOF 7
ENDMDL
MODEL 8
REMARK VINA RESULT:    -5.721      4.306      9.975
REMARK INTER + INTRA:          -9.159
REMARK INTER:                  -8.352
REMARK INTRA:                  -0.807
REMARK UNBOUND:                -1.096
REMARK  Name = 
REMARK  9 active torsions:
REMARK  status: ('A' for Active; 'I' for Inactive)
REMARK    1  A    between atoms: C_1  and  O_2
REMARK    2  A    between atoms: O_2  and  C_3
REMARK    3  A    between atoms: C_10  and  C_11
REMARK    4  A    between atoms: N_13  and  C_14
REMARK    5  A    between atoms: C_14  and  C_15
REMARK    6  A    between atoms: C_18  and  N_19
REMARK    7  A    between atoms: N_19  and  C_20
REMARK    8  A    between atoms: N_19  and  C_21
REMARK    9  A    between atoms: C_21  and  C_22
REMARK                            x       y       z     vdW  Elec       q    Type
REMARK                         _______ _______ _______ _____ _____    ______ ____
ROOT
ATOM      1  C   UNL     1      48.220   7.846  13.848  0.00  0.00    +0.000 C 
ENDROOT
BRANCH   1   2
ATOM      2  C   UNL     1      47.203   6.893  13.280  0.00  0.00    +0.000 A 
ATOM      3  C   UNL     1      46.877   5.710  13.940  0.00  0.00    +0.000 A 
ATOM      4  C   UNL     1      46.003   4.780  13.352  0.00  0.00    +0.000 A 
ATOM      5  C   UNL     1      45.414   4.981  12.088  0.00  0.00    +0.000 A 
ATOM      6  C   UNL     1      45.756   6.186  11.454  0.00  0.00    +0.000 A 
ATOM      7  C   UNL     1      46.622   7.128  12.035  0.00  0.00    +0.000 A 
BRANCH   5   8
ATOM      8  N   UNL     1      44.596   4.005  11.504  0.00  0.00    +0.000 N 
ATOM      9  C   UNL     1      43.230   4.399  11.132  0.00  0.00    +0.000 C 
BRANCH   8  10
ATOM     10  C   UNL     1      45.153   2.938  10.645  0.00  0.00    +0.000 C 
BRANCH  10  11
ATOM     11  C   UNL     1      44.432   2.842   9.279  0.00  0.00    +0.000 C 
ATOM     12  C   UNL     1      44.768   1.505   8.589  0.00  0.00    +0.000 C 
ATOM     13  C   UNL     1      46.219   1.453   8.097  0.00  0.00    +0.000 C 
ATOM     14  N   UNL     1      46.572   2.584   7.238  0.00  0.00    +0.000 NA
ATOM     15  C   UNL     1      46.272   3.873   7.865  0.00  0.00    +0.000 C 
ATOM     16  C   UNL     1      44.809   3.967   8.300  0.00  0.00    +0.000 C 
ATOM     17  H   UNL     1      46.049   2.515   6.365  0.00  0.00    +0.000 HD
ENDBRANCH  10  11
ENDBRANCH   8  10
ENDBRANCH   5   8
ENDBRANCH   1   2
BRANCH   1  20
ATOM     18  C   UNL     1      50.105   7.763  15.416  0.00  0.00    +0.000 C 
ATOM     19  O   UNL     1      50.014   8.969  15.637  0.00  0.00    +0.000 OA
ATOM     20  N   UNL     1      49.266   7.127  14.540  0.00  0.00    +0.000 N 
ATOM     21  H   UNL     1      49.304   6.120  14.440  0.00  0.00    +0.000 HD
BRANCH  18  29
ATOM     22  C   UNL     1      53.485   7.649  14.978  0.00  0.00    +0.000 A 
ATOM     23  N   UNL     1      54.817   7.435  15.044  0.00  0.00    +0.000 NA
ATOM     24  C   UNL     1      55.271   6.539  15.927  0.00  0.00    +0.000 A 
ATOM     25  N   UNL     1      54.547   5.798  16.761  0.00  0.00    +0.000 NA
ATOM     26  C   UNL     1      53.230   6.044  16.669  0.00  0.00    +0.000 A 
ATOM     27  S   UNL     1      52.141   5.168  17.632  0.00  0.00    +0.000 S 
ATOM     28  C   UNL     1      50.809   5.983  16.959  0.00  0.00    +0.000 A 
ATOM     29  C   UNL     1      51.167   6.949  16.023  0.00  0.00    +0.000 A 
ATOM     30  C   UNL     1      52.607   6.956  15.824  0.00  0.00    +0.000 A 
BRANCH  22  32
ATOM     31  C   UNL     1      53.267   9.912  14.406  0.00  0.00    +0.000 C 
ATOM     32  O   UNL     1      53.001   8.555  14.056  0.00  0.00    +0.000 OA
ENDBRANCH  22  32
ENDBRANCH  18  29
ENDBRANCH   1  20
TORSDOF 7
ENDMDL
MODEL 9
REMARK VINA RESULT:    -5.383      4.319      9.747
REMARK INTER + INTRA:          -8.681
REMARK INTER:                  -7.299
REMARK INTRA:                  -1.382
REMARK UNBOUND:                -1.096
REMARK  Name = 
REMARK  9 active torsions:
REMARK  status: ('A' for Active; 'I' for Inactive)
REMARK    1  A    between atoms: C_1  and  O_2
REMARK    2  A    between atoms: O_2  and  C_3
REMARK    3  A    between atoms: C_10  and  C_11
REMARK    4  A    between atoms: N_13  and  C_14
REMARK    5  A    between atoms: C_14  and  C_15
REMARK    6  A    between atoms: C_18  and  N_19
REMARK    7  A    between atoms: N_19  and  C_20
REMARK    8  A    between atoms: N_19  and  C_21
REMARK    9  A    between atoms: C_21  and  C_22
REMARK                            x       y       z     vdW  Elec       q    Type
REMARK                         _______ _______ _______ _____ _____    ______ ____
ROOT
ATOM      1  C   UNL     1      48.944   4.976  17.305  0.00  0.00    +0.000 C 
ENDROOT
BRANCH   1   2
ATOM      2  C   UNL     1      48.256   5.246  15.994  0.00  0.00    +0.000 A 
ATOM      3  C   UNL     1      48.517   6.407  15.269  0.00  0.00    +0.000 A 
ATOM      4  C   UNL     1      47.796   6.697  14.099  0.00  0.00    +0.000 A 
ATOM      5  C   UNL     1      46.786   5.853  13.596  0.00  0.00    +0.000 A 
ATOM      6  C   UNL     1      46.554   4.688  14.343  0.00  0.00    +0.000 A 
ATOM      7  C   UNL     1      47.274   4.381  15.511  0.00  0.00    +0.000 A 
BRANCH   5   8
ATOM      8  N   UNL     1      46.044   6.203  12.460  0.00  0.00    +0.000 N 
ATOM      9  C   UNL     1      46.142   7.592  11.989  0.00  0.00    +0.000 C 
BRANCH   8  10
ATOM     10  C   UNL     1      45.778   5.234  11.377  0.00  0.00    +0.000 C 
BRANCH  10  11
ATOM     11  C   UNL     1      44.292   5.218  10.948  0.00  0.00    +0.000 C 
ATOM     12  C   UNL     1      43.398   4.786  12.127  0.00  0.00    +0.000 C 
ATOM     13  C   UNL     1      43.562   3.300  12.467  0.00  0.00    +0.000 C 
ATOM     14  N   UNL     1      43.361   2.423  11.312  0.00  0.00    +0.000 NA
ATOM     15  C   UNL     1      44.200   2.802  10.173  0.00  0.00    +0.000 C 
ATOM     16  C   UNL     1      43.996   4.265   9.778  0.00  0.00    +0.000 C 
ATOM     17  H   UNL     1      42.382   2.469  11.028  0.00  0.00    +0.000 HD
ENDBRANCH  10  11
ENDBRANCH   8  10
ENDBRANCH   5   8
ENDBRANCH   1   2
BRANCH   1  20
ATOM     18  C   UNL     1      48.532   6.761  18.936  0.00  0.00    +0.000 C 
ATOM     19  O   UNL     1      47.480   6.236  19.292  0.00  0.00    +0.000 OA
ATOM     20  N   UNL     1      49.314   6.213  17.953  0.00  0.00    +0.000 N 
ATOM     21  H   UNL     1      50.216   6.617  17.737  0.00  0.00    +0.000 HD
BRANCH  18  29
ATOM     22  C   UNL     1      51.457   7.808  20.344  0.00  0.00    +0.000 A 
ATOM     23  N   UNL     1      52.495   8.488  20.876  0.00  0.00    +0.000 NA
ATOM     24  C   UNL     1      52.334   9.792  21.130  0.00  0.00    +0.000 A 
ATOM     25  N   UNL     1      51.237  10.517  20.932  0.00  0.00    +0.000 NA
ATOM     26  C   UNL     1      50.231   9.807  20.397  0.00  0.00    +0.000 A 
ATOM     27  S   UNL     1      48.736  10.554  20.104  0.00  0.00    +0.000 S 
ATOM     28  C   UNL     1      48.070   9.107  19.506  0.00  0.00    +0.000 A 
ATOM     29  C   UNL     1      48.974   8.050  19.489  0.00  0.00    +0.000 A 
ATOM     30  C   UNL     1      50.249   8.458  20.056  0.00  0.00    +0.000 A 
BRANCH  22  32
ATOM     31  C   UNL     1      52.655   6.162  19.183  0.00  0.00    +0.000 C 
ATOM     32  O   UNL     1      51.602   6.457  20.099  0.00  0.00    +0.000 OA
ENDBRANCH  22  32
ENDBRANCH  18  29
ENDBRANCH   1  20
TORSDOF 7
ENDMDL
