MODEL 1
REMARK VINA RESULT:    -8.950      0.000      0.000
REMARK INTER + INTRA:         -11.998
REMARK INTER:                 -11.566
REMARK INTRA:                  -0.432
REMARK UNBOUND:                -0.432
REMARK  Name = 
REMARK  5 active torsions:
REMARK  status: ('A' for Active; 'I' for Inactive)
REMARK    1  A    between atoms: C_2  and  C_4
REMARK    2  A    between atoms: C_7  and  N_8
REMARK    3  A    between atoms: N_8  and  C_9
REMARK    4  A    between atoms: C_9  and  C_10
REMARK    5  A    between atoms: C_12  and  C_13
REMARK                            x       y       z     vdW  Elec       q    Type
REMARK                         _______ _______ _______ _____ _____    ______ ____
ROOT
ATOM      1  C   UNL     1      43.818   5.072  11.095  0.00  0.00    +0.000 C 
ATOM      2  C   UNL     1      42.706   4.323  11.815  0.00  0.00    +0.000 C 
ATOM      3  C   UNL     1      42.655   5.813  11.731  0.00  0.00    +0.000 C 
ENDROOT
BRANCH   1   4
ATOM      4  C   UNL     1      45.197   5.202  11.749  0.00  0.00    +0.000 A 
ATOM      5  C   UNL     1      45.966   6.327  11.470  0.00  0.00    +0.000 A 
ATOM      6  C   UNL     1      47.103   6.640  12.222  0.00  0.00    +0.000 A 
ATOM      7  C   UNL     1      47.484   5.725  13.204  0.00  0.00    +0.000 A 
ATOM      8  C   UNL     1      46.711   4.591  13.395  0.00  0.00    +0.000 A 
ATOM      9  N   UNL     1      45.581   4.317  12.705  0.00  0.00    +0.000 NA
BRANCH   6  10
ATOM     10  C   UNL     1      47.815   7.908  12.001  0.00  0.00    +0.000 A 
ATOM     11  C   UNL     1      49.177   7.945  11.684  0.00  0.00    +0.000 A 
ATOM     12  C   UNL     1      49.816   9.168  11.531  0.00  0.00    +0.000 A 
ATOM     13  C   UNL     1      49.080  10.333  11.685  0.00  0.00    +0.000 A 
ATOM     14  C   UNL     1      47.731  10.218  11.972  0.00  0.00    +0.000 A 
ATOM     15  N   UNL     1      47.083   9.042  12.128  0.00  0.00    +0.000 NA
ENDBRANCH   6  10
ENDBRANCH   1   4
BRANCH   1  16
ATOM     16  N   UNL     1      43.906   4.982   9.619  0.00  0.00    +0.000 N 
ATOM     17  H   UNL     1      43.057   5.149   9.103  0.00  0.00    +0.000 HD
BRANCH  16  21
ATOM     18  C   UNL     1      46.261   2.064   7.911  0.00  0.00    +0.000 A 
ATOM     19  C   UNL     1      46.434   3.394   7.570  0.00  0.00    +0.000 A 
ATOM     20  N   UNL     1      45.673   4.389   8.099  0.00  0.00    +0.000 NA
ATOM     21  C   UNL     1      44.743   4.022   9.011  0.00  0.00    +0.000 A 
ATOM     22  C   UNL     1      44.564   2.666   9.316  0.00  0.00    +0.000 A 
ATOM     23  N   UNL     1      45.308   1.656   8.791  0.00  0.00    +0.000 NA
BRANCH  18  25
ATOM     24  N   UNL     1      46.864  -0.268   7.653  0.00  0.00    +0.000 N 
ATOM     25  C   UNL     1      47.142   1.027   7.307  0.00  0.00    +0.000 C 
ATOM     26  O   UNL     1      48.059   1.311   6.547  0.00  0.00    +0.000 OA
ATOM     27  H   UNL     1      47.418  -1.017   7.264  0.00  0.00    +0.000 HD
ATOM     28  H   UNL     1      46.080  -0.475   8.262  0.00  0.00    +0.000 HD
ENDBRANCH  18  25
ENDBRANCH  16  21
ENDBRANCH   1  16
TORSDOF 5
ENDMDL
MODEL 2
REMARK VINA RESULT:    -8.878      3.131      6.882
REMARK INTER + INTRA:         -11.905
REMARK INTER:                 -11.145
REMARK INTRA:                  -0.759
REMARK UNBOUND:                -0.432
REMARK  Name = 
REMARK  5 active torsions:
REMARK  status: ('A' for Active; 'I' for Inactive)
REMARK    1  A    between atoms: C_2  and  C_4
REMARK    2  A    between atoms: C_7  and  N_8
REMARK    3  A    between atoms: N_8  and  C_9
REMARK    4  A    between atoms: C_9  and  C_10
REMARK    5  A    between atoms: C_12  and  C_13
REMARK                            x       y       z     vdW  Elec       q    Type
REMARK                         _______ _______ _______ _____ _____    ______ ____
ROOT
ATOM      1  C   UNL     1      46.222   7.372  12.116  0.00  0.00    +0.000 C 
ATOM      2  C   UNL     1      46.307   8.858  11.793  0.00  0.00    +0.000 C 
ATOM      3  C   UNL     1      45.635   8.415  13.052  0.00  0.00    +0.000 C 
ENDROOT
BRANCH   1   4
ATOM      4  C   UNL     1      45.254   6.477  11.339  0.00  0.00    +0.000 A 
ATOM      5  C   UNL     1      45.757   5.672  10.321  0.00  0.00    +0.000 A 
ATOM      6  C   UNL     1      44.992   4.649   9.752  0.00  0.00    +0.000 A 
ATOM      7  C   UNL     1      43.671   4.530  10.185  0.00  0.00    +0.000 A 
ATOM      8  C   UNL     1      43.208   5.400  11.160  0.00  0.00    +0.000 A 
ATOM      9  N   UNL     1      43.965   6.353  11.748  0.00  0.00    +0.000 NA
BRANCH   6  10
ATOM     10  C   UNL     1      45.594   3.722   8.782  0.00  0.00    +0.000 A 
ATOM     11  C   UNL     1      45.574   2.336   8.974  0.00  0.00    +0.000 A 
ATOM     12  C   UNL     1      46.197   1.504   8.053  0.00  0.00    +0.000 A 
ATOM     13  C   UNL     1      46.817   2.071   6.949  0.00  0.00    +0.000 A 
ATOM     14  C   UNL     1      46.773   3.447   6.813  0.00  0.00    +0.000 A 
ATOM     15  N   UNL     1      46.176   4.281   7.693  0.00  0.00    +0.000 NA
ENDBRANCH   6  10
ENDBRANCH   1   4
BRANCH   1  16
ATOM     16  N   UNL     1      47.455   6.652  12.509  0.00  0.00    +0.000 N 
ATOM     17  H   UNL     1      48.009   6.262  11.763  0.00  0.00    +0.000 HD
BRANCH  16  21
ATOM     18  C   UNL     1      47.451   4.258  15.864  0.00  0.00    +0.000 A 
ATOM     19  C   UNL     1      48.194   5.425  15.835  0.00  0.00    +0.000 A 
ATOM     20  N   UNL     1      48.235   6.239  14.747  0.00  0.00    +0.000 NA
ATOM     21  C   UNL     1      47.482   5.870  13.685  0.00  0.00    +0.000 A 
ATOM     22  C   UNL     1      46.763   4.668  13.724  0.00  0.00    +0.000 A 
ATOM     23  N   UNL     1      46.717   3.836  14.799  0.00  0.00    +0.000 NA
BRANCH  18  25
ATOM     24  N   UNL     1      48.641   3.270  17.728  0.00  0.00    +0.000 N 
ATOM     25  C   UNL     1      47.436   3.423  17.095  0.00  0.00    +0.000 C 
ATOM     26  O   UNL     1      46.412   2.903  17.520  0.00  0.00    +0.000 OA
ATOM     27  H   UNL     1      48.691   2.725  18.577  0.00  0.00    +0.000 HD
ATOM     28  H   UNL     1      49.467   3.735  17.368  0.00  0.00    +0.000 HD
ENDBRANCH  18  25
ENDBRANCH  16  21
ENDBRANCH   1  16
TORSDOF 5
ENDMDL
MODEL 3
REMARK VINA RESULT:    -8.745      1.966      3.413
REMARK INTER + INTRA:         -11.733
REMARK INTER:                 -11.879
REMARK INTRA:                   0.146
REMARK UNBOUND:                -0.432
REMARK  Name = 
REMARK  5 active torsions:
REMARK  status: ('A' for Active; 'I' for Inactive)
REMARK    1  A    between atoms: C_2  and  C_4
REMARK    2  A    between atoms: C_7  and  N_8
REMARK    3  A    between atoms: N_8  and  C_9
REMARK    4  A    between atoms: C_9  and  C_10
REMARK    5  A    between atoms: C_12  and  C_13
REMARK                            x       y       z     vdW  Elec       q    Type
REMARK                         _______ _______ _______ _____ _____    ______ ____
ROOT
ATOM      1  C   UNL     1      43.952   4.963  11.423  0.00  0.00    +0.000 C 
ATOM      2  C   UNL     1      43.313   3.828  12.210  0.00  0.00    +0.000 C 
ATOM      3  C   UNL     1      42.669   5.175  12.207  0.00  0.00    +0.000 C 
ENDROOT
BRANCH   1   4
ATOM      4  C   UNL     1      45.231   5.626  11.943  0.00  0.00    +0.000 A 
ATOM      5  C   UNL     1      45.706   5.267  13.201  0.00  0.00    +0.000 A 
ATOM      6  C   UNL     1      46.989   5.625  13.627  0.00  0.00    +0.000 A 
ATOM      7  C   UNL     1      47.736   6.437  12.774  0.00  0.00    +0.000 A 
ATOM      8  C   UNL     1      47.186   6.812  11.558  0.00  0.00    +0.000 A 
ATOM      9  N   UNL     1      45.967   6.419  11.123  0.00  0.00    +0.000 NA
BRANCH   6  10
ATOM     10  C   UNL     1      47.520   5.113  14.900  0.00  0.00    +0.000 A 
ATOM     11  C   UNL     1      47.085   3.901  15.448  0.00  0.00    +0.000 A 
ATOM     12  C   UNL     1      47.581   3.482  16.675  0.00  0.00    +0.000 A 
ATOM     13  C   UNL     1      48.514   4.275  17.327  0.00  0.00    +0.000 A 
ATOM     14  C   UNL     1      48.917   5.447  16.712  0.00  0.00    +0.000 A 
ATOM     15  N   UNL     1      48.450   5.880  15.519  0.00  0.00    +0.000 NA
ENDBRANCH   6  10
ENDBRANCH   1   4
BRANCH   1  16
ATOM     16  N   UNL     1      43.906   4.926   9.943  0.00  0.00    +0.000 N 
ATOM     17  H   UNL     1      42.996   5.007   9.516  0.00  0.00    +0.000 HD
BRANCH  16  21
ATOM     18  C   UNL     1      46.391   2.354   7.896  0.00  0.00    +0.000 A 
ATOM     19  C   UNL     1      46.447   3.717   7.665  0.00  0.00    +0.000 A 
ATOM     20  N   UNL     1      45.639   4.602   8.307  0.00  0.00    +0.000 NA
ATOM     21  C   UNL     1      44.783   4.088   9.221  0.00  0.00    +0.000 A 
ATOM     22  C   UNL     1      44.720   2.702   9.415  0.00  0.00    +0.000 A 
ATOM     23  N   UNL     1      45.513   1.801   8.776  0.00  0.00    +0.000 NA
BRANCH  18  25
ATOM     24  N   UNL     1      48.380   2.043   6.549  0.00  0.00    +0.000 N 
ATOM     25  C   UNL     1      47.317   1.444   7.171  0.00  0.00    +0.000 C 
ATOM     26  O   UNL     1      47.145   0.232   7.131  0.00  0.00    +0.000 OA
ATOM     27  H   UNL     1      49.052   1.476   6.053  0.00  0.00    +0.000 HD
ATOM     28  H   UNL     1      48.513   3.046   6.623  0.00  0.00    +0.000 HD
ENDBRANCH  18  25
ENDBRANCH  16  21
ENDBRANCH   1  16
TORSDOF 5
ENDMDL
MODEL 4
REMARK VINA RESULT:    -7.793      3.417      7.181
REMARK INTER + INTRA:         -10.503
REMARK INTER:                  -9.675
REMARK INTRA:                  -0.828
REMARK UNBOUND:                -0.432
REMARK  Name = 
REMARK  5 active torsions:
REMARK  status: ('A' for Active; 'I' for Inactive)
REMARK    1  A    between atoms: C_2  and  C_4
REMARK    2  A    between atoms: C_7  and  N_8
REMARK    3  A    between atoms: N_8  and  C_9
REMARK    4  A    between atoms: C_9  and  C_10
REMARK    5  A    between atoms: C_12  and  C_13
REMARK                            x       y       z     vdW  Elec       q    Type
REMARK                         _______ _______ _______ _____ _____    ______ ____
ROOT
ATOM      1  C   UNL     1      47.100   7.618  12.523  0.00  0.00    +0.000 C 
ATOM      2  C   UNL     1      47.494   9.012  12.054  0.00  0.00    +0.000 C 
ATOM      3  C   UNL     1      46.796   8.846  13.364  0.00  0.00    +0.000 C 
ENDROOT
BRANCH   1   4
ATOM      4  C   UNL     1      45.927   6.893  11.858  0.00  0.00    +0.000 A 
ATOM      5  C   UNL     1      46.186   6.049  10.782  0.00  0.00    +0.000 A 
ATOM      6  C   UNL     1      45.218   5.163  10.299  0.00  0.00    +0.000 A 
ATOM      7  C   UNL     1      43.953   5.227  10.883  0.00  0.00    +0.000 A 
ATOM      8  C   UNL     1      43.738   6.131  11.912  0.00  0.00    +0.000 A 
ATOM      9  N   UNL     1      44.690   6.949  12.415  0.00  0.00    +0.000 NA
BRANCH   6  10
ATOM     10  C   UNL     1      45.561   4.182   9.258  0.00  0.00    +0.000 A 
ATOM     11  C   UNL     1      45.277   2.820   9.403  0.00  0.00    +0.000 A 
ATOM     12  C   UNL     1      45.662   1.926   8.413  0.00  0.00    +0.000 A 
ATOM     13  C   UNL     1      46.313   2.411   7.289  0.00  0.00    +0.000 A 
ATOM     14  C   UNL     1      46.536   3.774   7.202  0.00  0.00    +0.000 A 
ATOM     15  N   UNL     1      46.174   4.667   8.150  0.00  0.00    +0.000 NA
ENDBRANCH   6  10
ENDBRANCH   1   4
BRANCH   1  16
ATOM     16  N   UNL     1      48.161   6.681  12.959  0.00  0.00    +0.000 N 
ATOM     17  H   UNL     1      48.641   6.171  12.234  0.00  0.00    +0.000 HD
BRANCH  16  21
ATOM     18  C   UNL     1      47.805   4.631  16.517  0.00  0.00    +0.000 A 
ATOM     19  C   UNL     1      47.167   4.174  15.376  0.00  0.00    +0.000 A 
ATOM     20  N   UNL     1      47.246   4.824  14.185  0.00  0.00    +0.000 NA
ATOM     21  C   UNL     1      48.013   5.939  14.151  0.00  0.00    +0.000 A 
ATOM     22  C   UNL     1      48.623   6.400  15.325  0.00  0.00    +0.000 A 
ATOM     23  N   UNL     1      48.548   5.770  16.528  0.00  0.00    +0.000 NA
BRANCH  18  25
ATOM     24  N   UNL     1      46.949   2.712  17.722  0.00  0.00    +0.000 N 
ATOM     25  C   UNL     1      47.691   3.861  17.784  0.00  0.00    +0.000 C 
ATOM     26  O   UNL     1      48.228   4.227  18.822  0.00  0.00    +0.000 OA
ATOM     27  H   UNL     1      46.847   2.139  18.547  0.00  0.00    +0.000 HD
ATOM     28  H   UNL     1      46.539   2.419  16.841  0.00  0.00    +0.000 HD
ENDBRANCH  18  25
ENDBRANCH  16  21
ENDBRANCH   1  16
TORSDOF 5
ENDMDL
MODEL 5
REMARK VINA RESULT:    -7.588      2.576      3.291
REMARK INTER + INTRA:         -10.237
REMARK INTER:                 -10.003
REMARK INTRA:                  -0.234
REMARK UNBOUND:                -0.432
REMARK  Name = 
REMARK  5 active torsions:
REMARK  status: ('A' for Active; 'I' for Inactive)
REMARK    1  A    between atoms: C_2  and  C_4
REMARK    2  A    between atoms: C_7  and  N_8
REMARK    3  A    between atoms: N_8  and  C_9
REMARK    4  A    between atoms: C_9  and  C_10
REMARK    5  A    between atoms: C_12  and  C_13
REMARK                            x       y       z     vdW  Elec       q    Type
REMARK                         _______ _______ _______ _____ _____    ______ ____
ROOT
ATOM      1  C   UNL     1      44.227   4.339  11.703  0.00  0.00    +0.000 C 
ATOM      2  C   UNL     1      44.685   3.232  12.642  0.00  0.00    +0.000 C 
ATOM      3  C   UNL     1      43.381   3.915  12.891  0.00  0.00    +0.000 C 
ENDROOT
BRANCH   1   4
ATOM      4  C   UNL     1      44.903   5.712  11.755  0.00  0.00    +0.000 A 
ATOM      5  C   UNL     1      44.242   6.804  11.203  0.00  0.00    +0.000 A 
ATOM      6  C   UNL     1      44.669   8.114  11.443  0.00  0.00    +0.000 A 
ATOM      7  C   UNL     1      45.840   8.273  12.183  0.00  0.00    +0.000 A 
ATOM      8  C   UNL     1      46.489   7.143  12.656  0.00  0.00    +0.000 A 
ATOM      9  N   UNL     1      46.045   5.880  12.470  0.00  0.00    +0.000 NA
BRANCH   6  10
ATOM     10  C   UNL     1      43.871   9.255  10.968  0.00  0.00    +0.000 A 
ATOM     11  C   UNL     1      44.466  10.450  10.548  0.00  0.00    +0.000 A 
ATOM     12  C   UNL     1      43.669  11.516  10.154  0.00  0.00    +0.000 A 
ATOM     13  C   UNL     1      42.291  11.365  10.172  0.00  0.00    +0.000 A 
ATOM     14  C   UNL     1      41.774  10.146  10.575  0.00  0.00    +0.000 A 
ATOM     15  N   UNL     1      42.525   9.092  10.966  0.00  0.00    +0.000 NA
ENDBRANCH   6  10
ENDBRANCH   1   4
BRANCH   1  16
ATOM     16  N   UNL     1      43.790   3.983  10.333  0.00  0.00    +0.000 N 
ATOM     17  H   UNL     1      42.918   3.485  10.250  0.00  0.00    +0.000 HD
BRANCH  16  21
ATOM     18  C   UNL     1      46.527   2.729   7.519  0.00  0.00    +0.000 A 
ATOM     19  C   UNL     1      46.176   4.065   7.611  0.00  0.00    +0.000 A 
ATOM     20  N   UNL     1      45.270   4.522   8.514  0.00  0.00    +0.000 NA
ATOM     21  C   UNL     1      44.737   3.606   9.356  0.00  0.00    +0.000 A 
ATOM     22  C   UNL     1      45.083   2.255   9.224  0.00  0.00    +0.000 A 
ATOM     23  N   UNL     1      45.980   1.776   8.320  0.00  0.00    +0.000 NA
BRANCH  18  25
ATOM     24  N   UNL     1      47.571   3.017   5.352  0.00  0.00    +0.000 N 
ATOM     25  C   UNL     1      47.540   2.299   6.518  0.00  0.00    +0.000 C 
ATOM     26  O   UNL     1      48.303   1.363   6.721  0.00  0.00    +0.000 OA
ATOM     27  H   UNL     1      48.247   2.781   4.640  0.00  0.00    +0.000 HD
ATOM     28  H   UNL     1      46.946   3.805   5.224  0.00  0.00    +0.000 HD
ENDBRANCH  18  25
ENDBRANCH  16  21
ENDBRANCH   1  16
TORSDOF 5
ENDMDL
MODEL 6
REMARK VINA RESULT:    -7.430      1.752      2.370
REMARK INTER + INTRA:         -10.033
REMARK INTER:                 -10.072
REMARK INTRA:                   0.038
REMARK UNBOUND:                -0.432
REMARK  Name = 
REMARK  5 active torsions:
REMARK  status: ('A' for Active; 'I' for Inactive)
REMARK    1  A    between atoms: C_2  and  C_4
REMARK    2  A    between atoms: C_7  and  N_8
REMARK    3  A    between atoms: N_8  and  C_9
REMARK    4  A    between atoms: C_9  and  C_10
REMARK    5  A    between atoms: C_12  and  C_13
REMARK                            x       y       z     vdW  Elec       q    Type
REMARK                         _______ _______ _______ _____ _____    ______ ____
ROOT
ATOM      1  C   UNL     1      44.265   4.581  11.699  0.00  0.00    +0.000 C 
ATOM      2  C   UNL     1      44.853   3.404  12.465  0.00  0.00    +0.000 C 
ATOM      3  C   UNL     1      43.480   3.888  12.799  0.00  0.00    +0.000 C 
ENDROOT
BRANCH   1   4
ATOM      4  C   UNL     1      44.780   5.999  11.967  0.00  0.00    +0.000 A 
ATOM      5  C   UNL     1      45.983   6.156  12.649  0.00  0.00    +0.000 A 
ATOM      6  C   UNL     1      46.639   7.390  12.698  0.00  0.00    +0.000 A 
ATOM      7  C   UNL     1      45.989   8.477  12.113  0.00  0.00    +0.000 A 
ATOM      8  C   UNL     1      44.763   8.270  11.500  0.00  0.00    +0.000 A 
ATOM      9  N   UNL     1      44.156   7.066  11.405  0.00  0.00    +0.000 NA
BRANCH   6  10
ATOM     10  C   UNL     1      47.977   7.497  13.300  0.00  0.00    +0.000 A 
ATOM     11  C   UNL     1      48.294   6.873  14.512  0.00  0.00    +0.000 A 
ATOM     12  C   UNL     1      49.556   7.043  15.065  0.00  0.00    +0.000 A 
ATOM     13  C   UNL     1      50.484   7.822  14.391  0.00  0.00    +0.000 A 
ATOM     14  C   UNL     1      50.108   8.386  13.184  0.00  0.00    +0.000 A 
ATOM     15  N   UNL     1      48.886   8.240  12.623  0.00  0.00    +0.000 NA
ENDBRANCH   6  10
ENDBRANCH   1   4
BRANCH   1  16
ATOM     16  N   UNL     1      43.865   4.391  10.286  0.00  0.00    +0.000 N 
ATOM     17  H   UNL     1      42.931   4.050  10.122  0.00  0.00    +0.000 HD
BRANCH  16  21
ATOM     18  C   UNL     1      46.538   2.881   7.537  0.00  0.00    +0.000 A 
ATOM     19  C   UNL     1      46.386   4.248   7.691  0.00  0.00    +0.000 A 
ATOM     20  N   UNL     1      45.508   4.791   8.576  0.00  0.00    +0.000 NA
ATOM     21  C   UNL     1      44.798   3.925   9.336  0.00  0.00    +0.000 A 
ATOM     22  C   UNL     1      44.945   2.545   9.141  0.00  0.00    +0.000 A 
ATOM     23  N   UNL     1      45.810   1.982   8.254  0.00  0.00    +0.000 NA
BRANCH  18  25
ATOM     24  N   UNL     1      47.536   2.954   5.331  0.00  0.00    +0.000 N 
ATOM     25  C   UNL     1      47.530   2.354   6.562  0.00  0.00    +0.000 C 
ATOM     26  O   UNL     1      48.298   1.441   6.840  0.00  0.00    +0.000 OA
ATOM     27  H   UNL     1      48.197   2.649   4.632  0.00  0.00    +0.000 HD
ATOM     28  H   UNL     1      46.908   3.727   5.140  0.00  0.00    +0.000 HD
ENDBRANCH  18  25
ENDBRANCH  16  21
ENDBRANCH   1  16
TORSDOF 5
ENDMDL
MODEL 7
REMARK VINA RESULT:    -6.822      3.383      5.834
REMARK INTER + INTRA:          -9.248
REMARK INTER:                  -8.593
REMARK INTRA:                  -0.654
REMARK UNBOUND:                -0.432
REMARK  Name = 
REMARK  5 active torsions:
REMARK  status: ('A' for Active; 'I' for Inactive)
REMARK    1  A    between atoms: C_2  and  C_4
REMARK    2  A    between atoms: C_7  and  N_8
REMARK    3  A    between atoms: N_8  and  C_9
REMARK    4  A    between atoms: C_9  and  C_10
REMARK    5  A    between atoms: C_12  and  C_13
REMARK                            x       y       z     vdW  Elec       q    Type
REMARK                         _______ _______ _______ _____ _____    ______ ____
ROOT
ATOM      1  C   UNL     1      47.737   7.995  12.644  0.00  0.00    +0.000 C 
ATOM      2  C   UNL     1      48.630   8.866  11.771  0.00  0.00    +0.000 C 
ATOM      3  C   UNL     1      48.752   7.380  11.697  0.00  0.00    +0.000 C 
ENDROOT
BRANCH   1   4
ATOM      4  C   UNL     1      48.005   7.896  14.149  0.00  0.00    +0.000 A 
ATOM      5  C   UNL     1      48.165   6.637  14.718  0.00  0.00    +0.000 A 
ATOM      6  C   UNL     1      48.666   6.479  16.014  0.00  0.00    +0.000 A 
ATOM      7  C   UNL     1      48.912   7.642  16.744  0.00  0.00    +0.000 A 
ATOM      8  C   UNL     1      48.677   8.869  16.143  0.00  0.00    +0.000 A 
ATOM      9  N   UNL     1      48.244   9.021  14.872  0.00  0.00    +0.000 NA
BRANCH   6  10
ATOM     10  C   UNL     1      48.961   5.137  16.539  0.00  0.00    +0.000 A 
ATOM     11  C   UNL     1      47.993   4.126  16.569  0.00  0.00    +0.000 A 
ATOM     12  C   UNL     1      48.305   2.890  17.118  0.00  0.00    +0.000 A 
ATOM     13  C   UNL     1      49.582   2.680  17.615  0.00  0.00    +0.000 A 
ATOM     14  C   UNL     1      50.494   3.717  17.528  0.00  0.00    +0.000 A 
ATOM     15  N   UNL     1      50.218   4.931  17.001  0.00  0.00    +0.000 NA
ENDBRANCH   6  10
ENDBRANCH   1   4
BRANCH   1  16
ATOM     16  N   UNL     1      46.293   7.902  12.327  0.00  0.00    +0.000 N 
ATOM     17  H   UNL     1      45.671   8.476  12.875  0.00  0.00    +0.000 HD
BRANCH  16  21
ATOM     18  C   UNL     1      44.566   4.282  11.384  0.00  0.00    +0.000 A 
ATOM     19  C   UNL     1      45.171   5.048  10.403  0.00  0.00    +0.000 A 
ATOM     20  N   UNL     1      45.743   6.253  10.665  0.00  0.00    +0.000 NA
ATOM     21  C   UNL     1      45.722   6.667  11.954  0.00  0.00    +0.000 A 
ATOM     22  C   UNL     1      45.075   5.891  12.924  0.00  0.00    +0.000 A 
ATOM     23  N   UNL     1      44.489   4.688  12.681  0.00  0.00    +0.000 NA
BRANCH  18  25
ATOM     24  N   UNL     1      44.621   2.262  10.048  0.00  0.00    +0.000 N 
ATOM     25  C   UNL     1      43.975   2.963  11.031  0.00  0.00    +0.000 C 
ATOM     26  O   UNL     1      42.973   2.527  11.584  0.00  0.00    +0.000 OA
ATOM     27  H   UNL     1      44.275   1.354   9.775  0.00  0.00    +0.000 HD
ATOM     28  H   UNL     1      45.464   2.636   9.628  0.00  0.00    +0.000 HD
ENDBRANCH  18  25
ENDBRANCH  16  21
ENDBRANCH   1  16
TORSDOF 5
ENDMDL
MODEL 8
REMARK VINA RESULT:    -6.542      3.972      7.956
REMARK INTER + INTRA:          -8.887
REMARK INTER:                  -8.044
REMARK INTRA:                  -0.843
REMARK UNBOUND:                -0.432
REMARK  Name = 
REMARK  5 active torsions:
REMARK  status: ('A' for Active; 'I' for Inactive)
REMARK    1  A    between atoms: C_2  and  C_4
REMARK    2  A    between atoms: C_7  and  N_8
REMARK    3  A    between atoms: N_8  and  C_9
REMARK    4  A    between atoms: C_9  and  C_10
REMARK    5  A    between atoms: C_12  and  C_13
REMARK                            x       y       z     vdW  Elec       q    Type
REMARK                         _______ _______ _______ _____ _____    ______ ____
ROOT
ATOM      1  C   UNL     1      49.303   8.386  12.620  0.00  0.00    +0.000 C 
ATOM      2  C   UNL     1      50.142   9.080  11.556  0.00  0.00    +0.000 C 
ATOM      3  C   UNL     1      49.818   9.800  12.824  0.00  0.00    +0.000 C 
ENDROOT
BRANCH   1   4
ATOM      4  C   UNL     1      47.800   8.193  12.399  0.00  0.00    +0.000 A 
ATOM      5  C   UNL     1      47.369   7.110  11.641  0.00  0.00    +0.000 A 
ATOM      6  C   UNL     1      46.025   6.723  11.617  0.00  0.00    +0.000 A 
ATOM      7  C   UNL     1      45.122   7.527  12.313  0.00  0.00    +0.000 A 
ATOM      8  C   UNL     1      45.604   8.629  13.002  0.00  0.00    +0.000 A 
ATOM      9  N   UNL     1      46.910   8.970  13.069  0.00  0.00    +0.000 NA
BRANCH   6  10
ATOM     10  C   UNL     1      45.618   5.491  10.924  0.00  0.00    +0.000 A 
ATOM     11  C   UNL     1      45.670   5.375   9.530  0.00  0.00    +0.000 A 
ATOM     12  C   UNL     1      45.230   4.209   8.918  0.00  0.00    +0.000 A 
ATOM     13  C   UNL     1      44.759   3.173   9.711  0.00  0.00    +0.000 A 
ATOM     14  C   UNL     1      44.762   3.349  11.083  0.00  0.00    +0.000 A 
ATOM     15  N   UNL     1      45.182   4.473  11.706  0.00  0.00    +0.000 NA
ENDBRANCH   6  10
ENDBRANCH   1   4
BRANCH   1  16
ATOM     16  N   UNL     1      49.901   7.273  13.393  0.00  0.00    +0.000 N 
ATOM     17  H   UNL     1      50.206   6.469  12.867  0.00  0.00    +0.000 HD
BRANCH  16  21
ATOM     18  C   UNL     1      48.498   6.444  17.177  0.00  0.00    +0.000 A 
ATOM     19  C   UNL     1      48.189   5.611  16.116  0.00  0.00    +0.000 A 
ATOM     20  N   UNL     1      48.619   5.852  14.849  0.00  0.00    +0.000 NA
ATOM     21  C   UNL     1      49.402   6.941  14.670  0.00  0.00    +0.000 A 
ATOM     22  C   UNL     1      49.675   7.787  15.753  0.00  0.00    +0.000 A 
ATOM     23  N   UNL     1      49.246   7.570  17.025  0.00  0.00    +0.000 NA
BRANCH  18  25
ATOM     24  N   UNL     1      46.783   5.506  18.608  0.00  0.00    +0.000 N 
ATOM     25  C   UNL     1      48.009   6.112  18.543  0.00  0.00    +0.000 C 
ATOM     26  O   UNL     1      48.661   6.361  19.549  0.00  0.00    +0.000 OA
ATOM     27  H   UNL     1      46.404   5.243  19.506  0.00  0.00    +0.000 HD
ATOM     28  H   UNL     1      46.279   5.286  17.756  0.00  0.00    +0.000 HD
ENDBRANCH  18  25
ENDBRANCH  16  21
ENDBRANCH   1  16
TORSDOF 5
ENDMDL
MODEL 9
REMARK VINA RESULT:    -6.518      4.238      5.981
REMARK INTER + INTRA:          -8.855
REMARK INTER:                  -8.062
REMARK INTRA:                  -0.793
REMARK UNBOUND:                -0.432
REMARK  Name = 
REMARK  5 active torsions:
REMARK  status: ('A' for Active; 'I' for Inactive)
REMARK    1  A    between atoms: C_2  and  C_4
REMARK    2  A    between atoms: C_7  and  N_8
REMARK    3  A    between atoms: N_8  and  C_9
REMARK    4  A    between atoms: C_9  and  C_10
REMARK    5  A    between atoms: C_12  and  C_13
REMARK                            x       y       z     vdW  Elec       q    Type
REMARK                         _______ _______ _______ _____ _____    ______ ____
ROOT
ATOM      1  C   UNL     1      47.874   8.098  13.121  0.00  0.00    +0.000 C 
ATOM      2  C   UNL     1      48.422   9.066  12.082  0.00  0.00    +0.000 C 
ATOM      3  C   UNL     1      48.619   7.598  11.895  0.00  0.00    +0.000 C 
ENDROOT
BRANCH   1   4
ATOM      4  C   UNL     1      48.564   7.972  14.482  0.00  0.00    +0.000 A 
ATOM      5  C   UNL     1      48.148   8.798  15.522  0.00  0.00    +0.000 A 
ATOM      6  C   UNL     1      48.541   8.563  16.844  0.00  0.00    +0.000 A 
ATOM      7  C   UNL     1      49.441   7.520  17.061  0.00  0.00    +0.000 A 
ATOM      8  C   UNL     1      49.866   6.769  15.977  0.00  0.00    +0.000 A 
ATOM      9  N   UNL     1      49.444   6.962  14.707  0.00  0.00    +0.000 NA
BRANCH   6  10
ATOM     10  C   UNL     1      47.974   9.362  17.941  0.00  0.00    +0.000 A 
ATOM     11  C   UNL     1      47.575   8.780  19.150  0.00  0.00    +0.000 A 
ATOM     12  C   UNL     1      47.002   9.569  20.138  0.00  0.00    +0.000 A 
ATOM     13  C   UNL     1      46.850  10.928  19.907  0.00  0.00    +0.000 A 
ATOM     14  C   UNL     1      47.292  11.437  18.699  0.00  0.00    +0.000 A 
ATOM     15  N   UNL     1      47.852  10.693  17.718  0.00  0.00    +0.000 NA
ENDBRANCH   6  10
ENDBRANCH   1   4
BRANCH   1  16
ATOM     16  N   UNL     1      46.410   7.899  13.217  0.00  0.00    +0.000 N 
ATOM     17  H   UNL     1      45.946   8.319  14.008  0.00  0.00    +0.000 HD
BRANCH  16  21
ATOM     18  C   UNL     1      44.645   4.405  11.930  0.00  0.00    +0.000 A 
ATOM     19  C   UNL     1      45.531   4.394  12.993  0.00  0.00    +0.000 A 
ATOM     20  N   UNL     1      46.146   5.519  13.444  0.00  0.00    +0.000 NA
ATOM     21  C   UNL     1      45.827   6.677  12.819  0.00  0.00    +0.000 A 
ATOM     22  C   UNL     1      44.952   6.660  11.725  0.00  0.00    +0.000 A 
ATOM     23  N   UNL     1      44.335   5.544  11.252  0.00  0.00    +0.000 NA
BRANCH  18  25
ATOM     24  N   UNL     1      43.687   2.254  12.498  0.00  0.00    +0.000 N 
ATOM     25  C   UNL     1      43.993   3.139  11.499  0.00  0.00    +0.000 C 
ATOM     26  O   UNL     1      43.742   2.900  10.325  0.00  0.00    +0.000 OA
ATOM     27  H   UNL     1      43.231   1.383  12.269  0.00  0.00    +0.000 HD
ATOM     28  H   UNL     1      43.881   2.491  13.465  0.00  0.00    +0.000 HD
ENDBRANCH  18  25
ENDBRANCH  16  21
ENDBRANCH   1  16
TORSDOF 5
ENDMDL
