MODEL 1
REMARK VINA RESULT:    -7.445      0.000      0.000
REMARK INTER + INTRA:         -10.595
REMARK INTER:                  -9.839
REMARK INTRA:                  -0.756
REMARK UNBOUND:                -0.756
REMARK  Name = 
REMARK  7 active torsions:
REMARK  status: ('A' for Active; 'I' for Inactive)
REMARK    1  A    between atoms: C_1  and  S_2
REMARK    2  A    between atoms: S_2  and  C_3
REMARK    3  A    between atoms: N_10  and  C_11
REMARK    4  A    between atoms: C_11  and  C_12
REMARK    5  A    between atoms: C_15  and  C_16
REMARK    6  A    between atoms: C_16  and  C_17
REMARK    7  A    between atoms: C_17  and  N_18
REMARK                            x       y       z     vdW  Elec       q    Type
REMARK                         _______ _______ _______ _____ _____    ______ ____
ROOT
ATOM      1  C   UNL     1      43.820   4.734  10.422  0.00  0.00    +0.000 C 
ENDROOT
BRANCH   1   9
ATOM      2  C   UNL     1      47.914   6.730  13.056  0.00  0.00    +0.000 A 
ATOM      3  C   UNL     1      47.493   7.062  11.769  0.00  0.00    +0.000 A 
ATOM      4  C   UNL     1      46.329   6.509  11.221  0.00  0.00    +0.000 A 
ATOM      5  C   UNL     1      45.592   5.613  12.010  0.00  0.00    +0.000 A 
ATOM      6  C   UNL     1      45.956   5.316  13.327  0.00  0.00    +0.000 A 
ATOM      7  C   UNL     1      44.973   4.437  13.855  0.00  0.00    +0.000 A 
ATOM      8  C   UNL     1      44.061   4.184  12.856  0.00  0.00    +0.000 A 
ATOM      9  N   UNL     1      44.456   4.872  11.734  0.00  0.00    +0.000 N 
ATOM     10  C   UNL     1      47.131   5.885  13.855  0.00  0.00    +0.000 A 
BRANCH   2  12
ATOM     11  C   UNL     1      49.253   6.990  15.433  0.00  0.00    +0.000 C 
ATOM     12  S   UNL     1      49.455   7.390  13.674  0.00  0.00    +0.000 S 
ENDBRANCH   2  12
ENDBRANCH   1   9
BRANCH   1  13
ATOM     13  C   UNL     1      44.562   3.809   9.488  0.00  0.00    +0.000 A 
ATOM     14  C   UNL     1      44.515   2.416   9.628  0.00  0.00    +0.000 A 
ATOM     15  C   UNL     1      45.294   1.591   8.812  0.00  0.00    +0.000 A 
ATOM     16  C   UNL     1      46.126   2.143   7.831  0.00  0.00    +0.000 A 
ATOM     17  C   UNL     1      46.084   3.524   7.609  0.00  0.00    +0.000 A 
ATOM     18  C   UNL     1      45.308   4.348   8.429  0.00  0.00    +0.000 A 
BRANCH  16  19
ATOM     19  C   UNL     1      47.112   1.272   7.093  0.00  0.00    +0.000 C 
BRANCH  19  20
ATOM     20  C   UNL     1      48.357   2.010   6.599  0.00  0.00    +0.000 C 
BRANCH  20  21
ATOM     21  N   UNL     1      48.378   2.034   5.135  0.00  0.00    +0.000 NA
ATOM     22  H   UNL     1      49.324   1.857   4.800  0.00  0.00    +0.000 HD
ATOM     23  H   UNL     1      48.126   2.965   4.804  0.00  0.00    +0.000 HD
ENDBRANCH  20  21
ENDBRANCH  19  20
ENDBRANCH  16  19
ENDBRANCH   1  13
TORSDOF 6
ENDMDL
MODEL 2
REMARK VINA RESULT:    -7.440      1.417      2.054
REMARK INTER + INTRA:         -10.588
REMARK INTER:                  -9.876
REMARK INTRA:                  -0.712
REMARK UNBOUND:                -0.756
REMARK  Name = 
REMARK  7 active torsions:
REMARK  status: ('A' for Active; 'I' for Inactive)
REMARK    1  A    between atoms: C_1  and  S_2
REMARK    2  A    between atoms: S_2  and  C_3
REMARK    3  A    between atoms: N_10  and  C_11
REMARK    4  A    between atoms: C_11  and  C_12
REMARK    5  A    between atoms: C_15  and  C_16
REMARK    6  A    between atoms: C_16  and  C_17
REMARK    7  A    between atoms: C_17  and  N_18
REMARK                            x       y       z     vdW  Elec       q    Type
REMARK                         _______ _______ _______ _____ _____    ______ ____
ROOT
ATOM      1  C   UNL     1      43.897   4.778  10.593  0.00  0.00    +0.000 C 
ENDROOT
BRANCH   1   9
ATOM      2  C   UNL     1      47.265   5.052  14.625  0.00  0.00    +0.000 A 
ATOM      3  C   UNL     1      46.765   3.901  14.018  0.00  0.00    +0.000 A 
ATOM      4  C   UNL     1      45.935   3.978  12.892  0.00  0.00    +0.000 A 
ATOM      5  C   UNL     1      45.627   5.249  12.387  0.00  0.00    +0.000 A 
ATOM      6  C   UNL     1      46.171   6.414  12.936  0.00  0.00    +0.000 A 
ATOM      7  C   UNL     1      45.712   7.509  12.157  0.00  0.00    +0.000 A 
ATOM      8  C   UNL     1      44.877   7.008  11.184  0.00  0.00    +0.000 A 
ATOM      9  N   UNL     1      44.805   5.646  11.346  0.00  0.00    +0.000 N 
ATOM     10  C   UNL     1      47.002   6.311  14.068  0.00  0.00    +0.000 A 
BRANCH   2  12
ATOM     11  C   UNL     1      47.121   3.862  17.090  0.00  0.00    +0.000 C 
ATOM     12  S   UNL     1      48.241   4.906  16.114  0.00  0.00    +0.000 S 
ENDBRANCH   2  12
ENDBRANCH   1   9
BRANCH   1  13
ATOM     13  C   UNL     1      44.605   3.864   9.623  0.00  0.00    +0.000 A 
ATOM     14  C   UNL     1      44.498   2.469   9.700  0.00  0.00    +0.000 A 
ATOM     15  C   UNL     1      45.247   1.648   8.853  0.00  0.00    +0.000 A 
ATOM     16  C   UNL     1      46.109   2.206   7.902  0.00  0.00    +0.000 A 
ATOM     17  C   UNL     1      46.128   3.596   7.741  0.00  0.00    +0.000 A 
ATOM     18  C   UNL     1      45.382   4.416   8.593  0.00  0.00    +0.000 A 
BRANCH  16  19
ATOM     19  C   UNL     1      47.062   1.327   7.131  0.00  0.00    +0.000 C 
BRANCH  19  20
ATOM     20  C   UNL     1      48.326   2.039   6.649  0.00  0.00    +0.000 C 
BRANCH  20  21
ATOM     21  N   UNL     1      48.385   2.023   5.187  0.00  0.00    +0.000 NA
ATOM     22  H   UNL     1      49.317   1.744   4.881  0.00  0.00    +0.000 HD
ATOM     23  H   UNL     1      48.235   2.965   4.827  0.00  0.00    +0.000 HD
ENDBRANCH  20  21
ENDBRANCH  19  20
ENDBRANCH  16  19
ENDBRANCH   1  13
TORSDOF 6
ENDMDL
MODEL 3
REMARK VINA RESULT:    -7.232      1.172      1.780
REMARK INTER + INTRA:         -10.313
REMARK INTER:                  -9.697
REMARK INTRA:                  -0.616
REMARK UNBOUND:                -0.756
REMARK  Name = 
REMARK  7 active torsions:
REMARK  status: ('A' for Active; 'I' for Inactive)
REMARK    1  A    between atoms: C_1  and  S_2
REMARK    2  A    between atoms: S_2  and  C_3
REMARK    3  A    between atoms: N_10  and  C_11
REMARK    4  A    between atoms: C_11  and  C_12
REMARK    5  A    between atoms: C_15  and  C_16
REMARK    6  A    between atoms: C_16  and  C_17
REMARK    7  A    between atoms: C_17  and  N_18
REMARK                            x       y       z     vdW  Elec       q    Type
REMARK                         _______ _______ _______ _____ _____    ______ ____
ROOT
ATOM      1  C   UNL     1      43.764   5.051  11.068  0.00  0.00    +0.000 C 
ENDROOT
BRANCH   1   9
ATOM      2  C   UNL     1      47.783   6.761  14.001  0.00  0.00    +0.000 A 
ATOM      3  C   UNL     1      47.472   5.440  13.678  0.00  0.00    +0.000 A 
ATOM      4  C   UNL     1      46.415   5.135  12.814  0.00  0.00    +0.000 A 
ATOM      5  C   UNL     1      45.678   6.199  12.273  0.00  0.00    +0.000 A 
ATOM      6  C   UNL     1      46.012   7.532  12.526  0.00  0.00    +0.000 A 
ATOM      7  C   UNL     1      45.117   8.347  11.782  0.00  0.00    +0.000 A 
ATOM      8  C   UNL     1      44.240   7.512  11.128  0.00  0.00    +0.000 A 
ATOM      9  N   UNL     1      44.564   6.216  11.452  0.00  0.00    +0.000 N 
ATOM     10  C   UNL     1      47.080   7.815  13.400  0.00  0.00    +0.000 A 
BRANCH   2  12
ATOM     11  C   UNL     1      48.674   5.830  16.419  0.00  0.00    +0.000 C 
ATOM     12  S   UNL     1      49.081   7.095  15.182  0.00  0.00    +0.000 S 
ENDBRANCH   2  12
ENDBRANCH   1   9
BRANCH   1  13
ATOM     13  C   UNL     1      44.429   4.181  10.029  0.00  0.00    +0.000 A 
ATOM     14  C   UNL     1      44.248   2.792   9.994  0.00  0.00    +0.000 A 
ATOM     15  C   UNL     1      44.957   2.003   9.085  0.00  0.00    +0.000 A 
ATOM     16  C   UNL     1      45.853   2.589   8.184  0.00  0.00    +0.000 A 
ATOM     17  C   UNL     1      45.947   3.984   8.135  0.00  0.00    +0.000 A 
ATOM     18  C   UNL     1      45.240   4.772   9.048  0.00  0.00    +0.000 A 
BRANCH  16  19
ATOM     19  C   UNL     1      46.764   1.724   7.347  0.00  0.00    +0.000 C 
BRANCH  19  20
ATOM     20  C   UNL     1      47.972   2.460   6.766  0.00  0.00    +0.000 C 
BRANCH  20  21
ATOM     21  N   UNL     1      48.490   1.735   5.605  0.00  0.00    +0.000 NA
ATOM     22  H   UNL     1      49.348   1.246   5.857  0.00  0.00    +0.000 HD
ATOM     23  H   UNL     1      48.742   2.397   4.872  0.00  0.00    +0.000 HD
ENDBRANCH  20  21
ENDBRANCH  19  20
ENDBRANCH  16  19
ENDBRANCH   1  13
TORSDOF 6
ENDMDL
MODEL 4
REMARK VINA RESULT:    -7.173      1.375      1.640
REMARK INTER + INTRA:         -10.235
REMARK INTER:                  -9.558
REMARK INTRA:                  -0.678
REMARK UNBOUND:                -0.756
REMARK  Name = 
REMARK  7 active torsions:
REMARK  status: ('A' for Active; 'I' for Inactive)
REMARK    1  A    between atoms: C_1  and  S_2
REMARK    2  A    between atoms: S_2  and  C_3
REMARK    3  A    between atoms: N_10  and  C_11
REMARK    4  A    between atoms: C_11  and  C_12
REMARK    5  A    between atoms: C_15  and  C_16
REMARK    6  A    between atoms: C_16  and  C_17
REMARK    7  A    between atoms: C_17  and  N_18
REMARK                            x       y       z     vdW  Elec       q    Type
REMARK                         _______ _______ _______ _____ _____    ______ ____
ROOT
ATOM      1  C   UNL     1      44.275   4.296  11.707  0.00  0.00    +0.000 C 
ENDROOT
BRANCH   1   9
ATOM      2  C   UNL     1      47.501   7.974  13.641  0.00  0.00    +0.000 A 
ATOM      3  C   UNL     1      46.313   8.175  12.938  0.00  0.00    +0.000 A 
ATOM      4  C   UNL     1      45.507   7.097  12.553  0.00  0.00    +0.000 A 
ATOM      5  C   UNL     1      45.925   5.805  12.903  0.00  0.00    +0.000 A 
ATOM      6  C   UNL     1      47.075   5.582  13.666  0.00  0.00    +0.000 A 
ATOM      7  C   UNL     1      47.174   4.184  13.894  0.00  0.00    +0.000 A 
ATOM      8  C   UNL     1      46.121   3.580  13.244  0.00  0.00    +0.000 A 
ATOM      9  N   UNL     1      45.387   4.561  12.622  0.00  0.00    +0.000 N 
ATOM     10  C   UNL     1      47.870   6.683  14.040  0.00  0.00    +0.000 A 
BRANCH   2  12
ATOM     11  C   UNL     1      49.138   9.756  12.354  0.00  0.00    +0.000 C 
ATOM     12  S   UNL     1      48.541   9.375  14.025  0.00  0.00    +0.000 S 
ENDBRANCH   2  12
ENDBRANCH   1   9
BRANCH   1  13
ATOM     13  C   UNL     1      44.718   3.872  10.328  0.00  0.00    +0.000 A 
ATOM     14  C   UNL     1      44.633   2.542   9.894  0.00  0.00    +0.000 A 
ATOM     15  C   UNL     1      45.146   2.164   8.650  0.00  0.00    +0.000 A 
ATOM     16  C   UNL     1      45.743   3.110   7.810  0.00  0.00    +0.000 A 
ATOM     17  C   UNL     1      45.723   4.458   8.188  0.00  0.00    +0.000 A 
ATOM     18  C   UNL     1      45.213   4.834   9.434  0.00  0.00    +0.000 A 
BRANCH  16  19
ATOM     19  C   UNL     1      46.474   2.669   6.566  0.00  0.00    +0.000 C 
BRANCH  19  20
ATOM     20  C   UNL     1      47.681   1.771   6.830  0.00  0.00    +0.000 C 
BRANCH  20  21
ATOM     21  N   UNL     1      48.577   1.780   5.672  0.00  0.00    +0.000 NA
ATOM     22  H   UNL     1      49.328   2.453   5.821  0.00  0.00    +0.000 HD
ATOM     23  H   UNL     1      48.068   2.094   4.847  0.00  0.00    +0.000 HD
ENDBRANCH  20  21
ENDBRANCH  19  20
ENDBRANCH  16  19
ENDBRANCH   1  13
TORSDOF 6
ENDMDL
MODEL 5
REMARK VINA RESULT:    -5.686      1.595      2.090
REMARK INTER + INTRA:          -8.270
REMARK INTER:                  -7.677
REMARK INTRA:                  -0.592
REMARK UNBOUND:                -0.756
REMARK  Name = 
REMARK  7 active torsions:
REMARK  status: ('A' for Active; 'I' for Inactive)
REMARK    1  A    between atoms: C_1  and  S_2
REMARK    2  A    between atoms: S_2  and  C_3
REMARK    3  A    between atoms: N_10  and  C_11
REMARK    4  A    between atoms: C_11  and  C_12
REMARK    5  A    between atoms: C_15  and  C_16
REMARK    6  A    between atoms: C_16  and  C_17
REMARK    7  A    between atoms: C_17  and  N_18
REMARK                            x       y       z     vdW  Elec       q    Type
REMARK                         _______ _______ _______ _____ _____    ______ ____
ROOT
ATOM      1  C   UNL     1      43.818   3.994  11.207  0.00  0.00    +0.000 C 
ENDROOT
BRANCH   1   9
ATOM      2  C   UNL     1      46.819   8.064  12.660  0.00  0.00    +0.000 A 
ATOM      3  C   UNL     1      47.233   6.758  12.398  0.00  0.00    +0.000 A 
ATOM      4  C   UNL     1      46.332   5.791  11.936  0.00  0.00    +0.000 A 
ATOM      5  C   UNL     1      44.999   6.176  11.736  0.00  0.00    +0.000 A 
ATOM      6  C   UNL     1      44.574   7.494  11.925  0.00  0.00    +0.000 A 
ATOM      7  C   UNL     1      43.199   7.555  11.576  0.00  0.00    +0.000 A 
ATOM      8  C   UNL     1      42.802   6.285  11.223  0.00  0.00    +0.000 A 
ATOM      9  N   UNL     1      43.885   5.450  11.350  0.00  0.00    +0.000 N 
ATOM     10  C   UNL     1      45.499   8.449  12.390  0.00  0.00    +0.000 A 
BRANCH   2  12
ATOM     11  C   UNL     1      48.276  10.240  11.854  0.00  0.00    +0.000 C 
ATOM     12  S   UNL     1      47.985   9.236  13.337  0.00  0.00    +0.000 S 
ENDBRANCH   2  12
ENDBRANCH   1   9
BRANCH   1  13
ATOM     13  C   UNL     1      44.390   3.490   9.904  0.00  0.00    +0.000 A 
ATOM     14  C   UNL     1      45.043   2.255   9.805  0.00  0.00    +0.000 A 
ATOM     15  C   UNL     1      45.650   1.864   8.609  0.00  0.00    +0.000 A 
ATOM     16  C   UNL     1      45.606   2.695   7.484  0.00  0.00    +0.000 A 
ATOM     17  C   UNL     1      44.853   3.873   7.544  0.00  0.00    +0.000 A 
ATOM     18  C   UNL     1      44.250   4.265   8.743  0.00  0.00    +0.000 A 
BRANCH  16  19
ATOM     19  C   UNL     1      46.429   2.367   6.263  0.00  0.00    +0.000 C 
BRANCH  19  20
ATOM     20  C   UNL     1      47.728   1.619   6.562  0.00  0.00    +0.000 C 
BRANCH  20  21
ATOM     21  N   UNL     1      48.678   1.802   5.464  0.00  0.00    +0.000 NA
ATOM     22  H   UNL     1      49.164   2.692   5.572  0.00  0.00    +0.000 HD
ATOM     23  H   UNL     1      48.174   1.856   4.580  0.00  0.00    +0.000 HD
ENDBRANCH  20  21
ENDBRANCH  19  20
ENDBRANCH  16  19
ENDBRANCH   1  13
TORSDOF 6
ENDMDL
MODEL 6
REMARK VINA RESULT:    -5.577      2.499      3.562
REMARK INTER + INTRA:          -8.127
REMARK INTER:                  -7.638
REMARK INTRA:                  -0.488
REMARK UNBOUND:                -0.756
REMARK  Name = 
REMARK  7 active torsions:
REMARK  status: ('A' for Active; 'I' for Inactive)
REMARK    1  A    between atoms: C_1  and  S_2
REMARK    2  A    between atoms: S_2  and  C_3
REMARK    3  A    between atoms: N_10  and  C_11
REMARK    4  A    between atoms: C_11  and  C_12
REMARK    5  A    between atoms: C_15  and  C_16
REMARK    6  A    between atoms: C_16  and  C_17
REMARK    7  A    between atoms: C_17  and  N_18
REMARK                            x       y       z     vdW  Elec       q    Type
REMARK                         _______ _______ _______ _____ _____    ______ ____
ROOT
ATOM      1  C   UNL     1      45.877   6.045  12.766  0.00  0.00    +0.000 C 
ENDROOT
BRANCH   1   9
ATOM      2  C   UNL     1      49.590   9.596  11.634  0.00  0.00    +0.000 A 
ATOM      3  C   UNL     1      49.720   8.207  11.637  0.00  0.00    +0.000 A 
ATOM      4  C   UNL     1      48.619   7.377  11.877  0.00  0.00    +0.000 A 
ATOM      5  C   UNL     1      47.375   7.983  12.109  0.00  0.00    +0.000 A 
ATOM      6  C   UNL     1      47.206   9.369  12.044  0.00  0.00    +0.000 A 
ATOM      7  C   UNL     1      45.829   9.642  12.261  0.00  0.00    +0.000 A 
ATOM      8  C   UNL     1      45.197   8.441  12.490  0.00  0.00    +0.000 A 
ATOM      9  N   UNL     1      46.140   7.445  12.428  0.00  0.00    +0.000 N 
ATOM     10  C   UNL     1      48.328  10.183  11.801  0.00  0.00    +0.000 A 
BRANCH   2  12
ATOM     11  C   UNL     1      52.069   9.448  10.475  0.00  0.00    +0.000 C 
ATOM     12  S   UNL     1      51.042  10.613  11.416  0.00  0.00    +0.000 S 
ENDBRANCH   2  12
ENDBRANCH   1   9
BRANCH   1  13
ATOM     13  C   UNL     1      45.539   5.189  11.570  0.00  0.00    +0.000 A 
ATOM     14  C   UNL     1      44.966   3.918  11.700  0.00  0.00    +0.000 A 
ATOM     15  C   UNL     1      44.760   3.110  10.579  0.00  0.00    +0.000 A 
ATOM     16  C   UNL     1      45.111   3.562   9.303  0.00  0.00    +0.000 A 
ATOM     17  C   UNL     1      45.572   4.876   9.155  0.00  0.00    +0.000 A 
ATOM     18  C   UNL     1      45.782   5.681  10.278  0.00  0.00    +0.000 A 
BRANCH  16  19
ATOM     19  C   UNL     1      45.078   2.619   8.126  0.00  0.00    +0.000 C 
BRANCH  19  20
ATOM     20  C   UNL     1      46.446   2.070   7.720  0.00  0.00    +0.000 C 
BRANCH  20  21
ATOM     21  N   UNL     1      46.513   0.634   7.997  0.00  0.00    +0.000 NA
ATOM     22  H   UNL     1      47.101   0.466   8.812  0.00  0.00    +0.000 HD
ATOM     23  H   UNL     1      46.961   0.155   7.216  0.00  0.00    +0.000 HD
ENDBRANCH  20  21
ENDBRANCH  19  20
ENDBRANCH  16  19
ENDBRANCH   1  13
TORSDOF 6
ENDMDL
MODEL 7
REMARK VINA RESULT:    -5.164      1.776      3.374
REMARK INTER + INTRA:          -7.580
REMARK INTER:                  -7.221
REMARK INTRA:                  -0.358
REMARK UNBOUND:                -0.756
REMARK  Name = 
REMARK  7 active torsions:
REMARK  status: ('A' for Active; 'I' for Inactive)
REMARK    1  A    between atoms: C_1  and  S_2
REMARK    2  A    between atoms: S_2  and  C_3
REMARK    3  A    between atoms: N_10  and  C_11
REMARK    4  A    between atoms: C_11  and  C_12
REMARK    5  A    between atoms: C_15  and  C_16
REMARK    6  A    between atoms: C_16  and  C_17
REMARK    7  A    between atoms: C_17  and  N_18
REMARK                            x       y       z     vdW  Elec       q    Type
REMARK                         _______ _______ _______ _____ _____    ______ ____
ROOT
ATOM      1  C   UNL     1      45.661   6.399  12.397  0.00  0.00    +0.000 C 
ENDROOT
BRANCH   1   9
ATOM      2  C   UNL     1      49.952   6.925  15.395  0.00  0.00    +0.000 A 
ATOM      3  C   UNL     1      48.782   6.232  15.706  0.00  0.00    +0.000 A 
ATOM      4  C   UNL     1      47.746   6.104  14.773  0.00  0.00    +0.000 A 
ATOM      5  C   UNL     1      47.922   6.687  13.510  0.00  0.00    +0.000 A 
ATOM      6  C   UNL     1      49.111   7.327  13.151  0.00  0.00    +0.000 A 
ATOM      7  C   UNL     1      48.983   7.742  11.798  0.00  0.00    +0.000 A 
ATOM      8  C   UNL     1      47.723   7.389  11.372  0.00  0.00    +0.000 A 
ATOM      9  N   UNL     1      47.075   6.780  12.419  0.00  0.00    +0.000 N 
ATOM     10  C   UNL     1      50.139   7.444  14.107  0.00  0.00    +0.000 A 
BRANCH   2  12
ATOM     11  C   UNL     1      50.873   8.872  17.090  0.00  0.00    +0.000 C 
ATOM     12  S   UNL     1      51.204   7.142  16.650  0.00  0.00    +0.000 S 
ENDBRANCH   2  12
ENDBRANCH   1   9
BRANCH   1  13
ATOM     13  C   UNL     1      45.368   5.226  11.494  0.00  0.00    +0.000 A 
ATOM     14  C   UNL     1      45.107   3.945  11.997  0.00  0.00    +0.000 A 
ATOM     15  C   UNL     1      44.941   2.859  11.133  0.00  0.00    +0.000 A 
ATOM     16  C   UNL     1      45.020   3.035   9.747  0.00  0.00    +0.000 A 
ATOM     17  C   UNL     1      45.160   4.332   9.238  0.00  0.00    +0.000 A 
ATOM     18  C   UNL     1      45.331   5.416  10.104  0.00  0.00    +0.000 A 
BRANCH  16  19
ATOM     19  C   UNL     1      45.043   1.839   8.828  0.00  0.00    +0.000 C 
BRANCH  19  20
ATOM     20  C   UNL     1      46.341   1.677   8.038  0.00  0.00    +0.000 C 
BRANCH  20  21
ATOM     21  N   UNL     1      46.659   0.257   7.878  0.00  0.00    +0.000 NA
ATOM     22  H   UNL     1      46.153  -0.291   8.573  0.00  0.00    +0.000 HD
ATOM     23  H   UNL     1      47.650   0.105   8.059  0.00  0.00    +0.000 HD
ENDBRANCH  20  21
ENDBRANCH  19  20
ENDBRANCH  16  19
ENDBRANCH   1  13
TORSDOF 6
ENDMDL
MODEL 8
REMARK VINA RESULT:    -5.077      3.889      8.603
REMARK INTER + INTRA:          -7.465
REMARK INTER:                  -6.853
REMARK INTRA:                  -0.612
REMARK UNBOUND:                -0.756
REMARK  Name = 
REMARK  7 active torsions:
REMARK  status: ('A' for Active; 'I' for Inactive)
REMARK    1  A    between atoms: C_1  and  S_2
REMARK    2  A    between atoms: S_2  and  C_3
REMARK    3  A    between atoms: N_10  and  C_11
REMARK    4  A    between atoms: C_11  and  C_12
REMARK    5  A    between atoms: C_15  and  C_16
REMARK    6  A    between atoms: C_16  and  C_17
REMARK    7  A    between atoms: C_17  and  N_18
REMARK                            x       y       z     vdW  Elec       q    Type
REMARK                         _______ _______ _______ _____ _____    ______ ____
ROOT
ATOM      1  C   UNL     1      48.941   6.930  14.475  0.00  0.00    +0.000 C 
ENDROOT
BRANCH   1   9
ATOM      2  C   UNL     1      44.738   5.470  11.666  0.00  0.00    +0.000 A 
ATOM      3  C   UNL     1      45.545   4.660  12.465  0.00  0.00    +0.000 A 
ATOM      4  C   UNL     1      46.587   5.202  13.228  0.00  0.00    +0.000 A 
ATOM      5  C   UNL     1      46.792   6.588  13.171  0.00  0.00    +0.000 A 
ATOM      6  C   UNL     1      45.955   7.429  12.432  0.00  0.00    +0.000 A 
ATOM      7  C   UNL     1      46.396   8.763  12.640  0.00  0.00    +0.000 A 
ATOM      8  C   UNL     1      47.502   8.713  13.459  0.00  0.00    +0.000 A 
ATOM      9  N   UNL     1      47.755   7.395  13.752  0.00  0.00    +0.000 N 
ATOM     10  C   UNL     1      44.914   6.861  11.673  0.00  0.00    +0.000 A 
BRANCH   2  12
ATOM     11  C   UNL     1      43.880   2.973  10.935  0.00  0.00    +0.000 C 
ATOM     12  S   UNL     1      43.483   4.720  10.640  0.00  0.00    +0.000 S 
ENDBRANCH   2  12
ENDBRANCH   1   9
BRANCH   1  13
ATOM     13  C   UNL     1      48.677   6.629  15.931  0.00  0.00    +0.000 A 
ATOM     14  C   UNL     1      48.282   5.359  16.369  0.00  0.00    +0.000 A 
ATOM     15  C   UNL     1      47.947   5.139  17.708  0.00  0.00    +0.000 A 
ATOM     16  C   UNL     1      48.013   6.182  18.638  0.00  0.00    +0.000 A 
ATOM     17  C   UNL     1      48.521   7.420  18.229  0.00  0.00    +0.000 A 
ATOM     18  C   UNL     1      48.852   7.640  16.888  0.00  0.00    +0.000 A 
BRANCH  16  19
ATOM     19  C   UNL     1      47.461   5.997  20.029  0.00  0.00    +0.000 C 
BRANCH  19  20
ATOM     20  C   UNL     1      48.468   5.445  21.038  0.00  0.00    +0.000 C 
BRANCH  20  21
ATOM     21  N   UNL     1      48.476   3.982  20.991  0.00  0.00    +0.000 NA
ATOM     22  H   UNL     1      49.102   3.616  21.708  0.00  0.00    +0.000 HD
ATOM     23  H   UNL     1      48.851   3.670  20.096  0.00  0.00    +0.000 HD
ENDBRANCH  20  21
ENDBRANCH  19  20
ENDBRANCH  16  19
ENDBRANCH   1  13
TORSDOF 6
ENDMDL
MODEL 9
REMARK VINA RESULT:    -4.945      4.060      6.364
REMARK INTER + INTRA:          -7.290
REMARK INTER:                  -6.662
REMARK INTRA:                  -0.628
REMARK UNBOUND:                -0.756
REMARK  Name = 
REMARK  7 active torsions:
REMARK  status: ('A' for Active; 'I' for Inactive)
REMARK    1  A    between atoms: C_1  and  S_2
REMARK    2  A    between atoms: S_2  and  C_3
REMARK    3  A    between atoms: N_10  and  C_11
REMARK    4  A    between atoms: C_11  and  C_12
REMARK    5  A    between atoms: C_15  and  C_16
REMARK    6  A    between atoms: C_16  and  C_17
REMARK    7  A    between atoms: C_17  and  N_18
REMARK                            x       y       z     vdW  Elec       q    Type
REMARK                         _______ _______ _______ _____ _____    ______ ____
ROOT
ATOM      1  C   UNL     1      48.908   6.989  13.704  0.00  0.00    +0.000 C 
ENDROOT
BRANCH   1   9
ATOM      2  C   UNL     1      49.124   6.627  18.949  0.00  0.00    +0.000 A 
ATOM      3  C   UNL     1      49.575   5.693  18.017  0.00  0.00    +0.000 A 
ATOM      4  C   UNL     1      49.529   5.959  16.643  0.00  0.00    +0.000 A 
ATOM      5  C   UNL     1      49.024   7.200  16.229  0.00  0.00    +0.000 A 
ATOM      6  C   UNL     1      48.630   8.180  17.146  0.00  0.00    +0.000 A 
ATOM      7  C   UNL     1      48.235   9.325  16.404  0.00  0.00    +0.000 A 
ATOM      8  C   UNL     1      48.354   9.018  15.068  0.00  0.00    +0.000 A 
ATOM      9  N   UNL     1      48.802   7.723  14.967  0.00  0.00    +0.000 N 
ATOM     10  C   UNL     1      48.685   7.888  18.522  0.00  0.00    +0.000 A 
BRANCH   2  12
ATOM     11  C   UNL     1      48.731   4.434  20.544  0.00  0.00    +0.000 C 
ATOM     12  S   UNL     1      49.116   6.203  20.684  0.00  0.00    +0.000 S 
ENDBRANCH   2  12
ENDBRANCH   1   9
BRANCH   1  13
ATOM     13  C   UNL     1      47.599   6.400  13.239  0.00  0.00    +0.000 A 
ATOM     14  C   UNL     1      47.083   5.214  13.775  0.00  0.00    +0.000 A 
ATOM     15  C   UNL     1      45.921   4.640  13.251  0.00  0.00    +0.000 A 
ATOM     16  C   UNL     1      45.245   5.249  12.188  0.00  0.00    +0.000 A 
ATOM     17  C   UNL     1      45.689   6.494  11.730  0.00  0.00    +0.000 A 
ATOM     18  C   UNL     1      46.854   7.064  12.252  0.00  0.00    +0.000 A 
BRANCH  16  19
ATOM     19  C   UNL     1      44.115   4.529  11.494  0.00  0.00    +0.000 C 
BRANCH  19  20
ATOM     20  C   UNL     1      42.723   5.052  11.850  0.00  0.00    +0.000 C 
BRANCH  20  21
ATOM     21  N   UNL     1      42.654   5.368  13.278  0.00  0.00    +0.000 NA
ATOM     22  H   UNL     1      41.680   5.444  13.568  0.00  0.00    +0.000 HD
ATOM     23  H   UNL     1      43.077   6.279  13.448  0.00  0.00    +0.000 HD
ENDBRANCH  20  21
ENDBRANCH  19  20
ENDBRANCH  16  19
ENDBRANCH   1  13
TORSDOF 6
ENDMDL
