MODEL 1
REMARK VINA RESULT:    -8.187      0.000      0.000
REMARK INTER + INTRA:         -11.381
REMARK INTER:                 -10.820
REMARK INTRA:                  -0.561
REMARK UNBOUND:                -0.561
REMARK  Name = 
REMARK  6 active torsions:
REMARK  status: ('A' for Active; 'I' for Inactive)
REMARK    1  A    between atoms: N_1  and  C_2
REMARK    2  A    between atoms: C_2  and  C_3
REMARK    3  A    between atoms: C_3  and  C_4
REMARK    4  A    between atoms: C_7  and  C_8
REMARK    5  A    between atoms: C_8  and  N_9
REMARK    6  A    between atoms: C_14  and  C_15
REMARK                            x       y       z     vdW  Elec       q    Type
REMARK                         _______ _______ _______ _____ _____    ______ ____
ROOT
ATOM      1  N   UNL     1      44.750   5.590  11.337  0.00  0.00    +0.000 N 
ATOM      2  C   UNL     1      44.850   6.961  11.390  0.00  0.00    +0.000 A 
ATOM      3  C   UNL     1      45.623   7.292  12.479  0.00  0.00    +0.000 A 
ATOM      4  C   UNL     1      45.998   6.084  13.123  0.00  0.00    +0.000 A 
ATOM      5  C   UNL     1      46.740   5.793  14.279  0.00  0.00    +0.000 A 
ATOM      6  C   UNL     1      46.896   4.450  14.627  0.00  0.00    +0.000 A 
ATOM      7  N   UNL     1      46.380   3.435  13.875  0.00  0.00    +0.000 NA
ATOM      8  C   UNL     1      45.670   3.708  12.756  0.00  0.00    +0.000 A 
ATOM      9  C   UNL     1      45.461   5.030  12.384  0.00  0.00    +0.000 A 
ENDROOT
BRANCH   6  10
ATOM     10  C   UNL     1      47.646   4.095  15.906  0.00  0.00    +0.000 C 
ATOM     11  F   UNL     1      48.631   4.991  16.223  0.00  0.00    +0.000 F 
ATOM     12  F   UNL     1      46.838   4.050  17.005  0.00  0.00    +0.000 F 
ATOM     13  F   UNL     1      48.270   2.883  15.847  0.00  0.00    +0.000 F 
ENDBRANCH   6  10
BRANCH   1  14
ATOM     14  C   UNL     1      43.892   4.868  10.400  0.00  0.00    +0.000 C 
BRANCH  14  18
ATOM     15  C   UNL     1      46.173   2.247   7.813  0.00  0.00    +0.000 A 
ATOM     16  C   UNL     1      45.294   1.717   8.764  0.00  0.00    +0.000 A 
ATOM     17  C   UNL     1      44.553   2.561   9.596  0.00  0.00    +0.000 A 
ATOM     18  C   UNL     1      44.672   3.953   9.491  0.00  0.00    +0.000 A 
ATOM     19  C   UNL     1      45.536   4.481   8.521  0.00  0.00    +0.000 A 
ATOM     20  C   UNL     1      46.274   3.637   7.688  0.00  0.00    +0.000 A 
BRANCH  15  21
ATOM     21  C   UNL     1      47.000   1.335   6.939  0.00  0.00    +0.000 C 
BRANCH  21  22
ATOM     22  C   UNL     1      48.331   1.970   6.527  0.00  0.00    +0.000 C 
BRANCH  22  23
ATOM     23  N   UNL     1      48.372   2.207   5.083  0.00  0.00    +0.000 NA
ATOM     24  H   UNL     1      49.004   1.536   4.650  0.00  0.00    +0.000 HD
ATOM     25  H   UNL     1      48.767   3.129   4.900  0.00  0.00    +0.000 HD
ENDBRANCH  22  23
ENDBRANCH  21  22
ENDBRANCH  15  21
ENDBRANCH  14  18
ENDBRANCH   1  14
TORSDOF 6
ENDMDL
MODEL 2
REMARK VINA RESULT:    -7.553      1.585      2.024
REMARK INTER + INTRA:         -10.543
REMARK INTER:                 -10.042
REMARK INTRA:                  -0.501
REMARK UNBOUND:                -0.561
REMARK  Name = 
REMARK  6 active torsions:
REMARK  status: ('A' for Active; 'I' for Inactive)
REMARK    1  A    between atoms: N_1  and  C_2
REMARK    2  A    between atoms: C_2  and  C_3
REMARK    3  A    between atoms: C_3  and  C_4
REMARK    4  A    between atoms: C_7  and  C_8
REMARK    5  A    between atoms: C_8  and  N_9
REMARK    6  A    between atoms: C_14  and  C_15
REMARK                            x       y       z     vdW  Elec       q    Type
REMARK                         _______ _______ _______ _____ _____    ______ ____
ROOT
ATOM      1  N   UNL     1      45.047   6.122  11.832  0.00  0.00    +0.000 N 
ATOM      2  C   UNL     1      44.673   7.412  11.533  0.00  0.00    +0.000 A 
ATOM      3  C   UNL     1      45.535   8.268  12.180  0.00  0.00    +0.000 A 
ATOM      4  C   UNL     1      46.459   7.477  12.910  0.00  0.00    +0.000 A 
ATOM      5  C   UNL     1      47.526   7.780  13.771  0.00  0.00    +0.000 A 
ATOM      6  C   UNL     1      48.223   6.713  14.340  0.00  0.00    +0.000 A 
ATOM      7  N   UNL     1      47.918   5.412  14.066  0.00  0.00    +0.000 NA
ATOM      8  C   UNL     1      46.895   5.111  13.233  0.00  0.00    +0.000 A 
ATOM      9  C   UNL     1      46.152   6.138  12.665  0.00  0.00    +0.000 A 
ENDROOT
BRANCH   6  10
ATOM     10  C   UNL     1      49.352   7.002  15.323  0.00  0.00    +0.000 C 
ATOM     11  F   UNL     1      49.126   8.107  16.099  0.00  0.00    +0.000 F 
ATOM     12  F   UNL     1      49.564   5.983  16.207  0.00  0.00    +0.000 F 
ATOM     13  F   UNL     1      50.552   7.229  14.715  0.00  0.00    +0.000 F 
ENDBRANCH   6  10
BRANCH   1  14
ATOM     14  C   UNL     1      44.283   4.939  11.442  0.00  0.00    +0.000 C 
BRANCH  14  18
ATOM     15  C   UNL     1      45.851   3.101   7.847  0.00  0.00    +0.000 A 
ATOM     16  C   UNL     1      45.136   2.340   8.779  0.00  0.00    +0.000 A 
ATOM     17  C   UNL     1      44.624   2.933   9.937  0.00  0.00    +0.000 A 
ATOM     18  C   UNL     1      44.813   4.298  10.185  0.00  0.00    +0.000 A 
ATOM     19  C   UNL     1      45.510   5.062   9.237  0.00  0.00    +0.000 A 
ATOM     20  C   UNL     1      46.018   4.471   8.078  0.00  0.00    +0.000 A 
BRANCH  15  21
ATOM     21  C   UNL     1      46.434   2.455   6.614  0.00  0.00    +0.000 C 
BRANCH  21  22
ATOM     22  C   UNL     1      47.820   1.855   6.867  0.00  0.00    +0.000 C 
BRANCH  22  23
ATOM     23  N   UNL     1      48.597   1.792   5.629  0.00  0.00    +0.000 NA
ATOM     24  H   UNL     1      48.643   0.826   5.309  0.00  0.00    +0.000 HD
ATOM     25  H   UNL     1      49.559   2.076   5.815  0.00  0.00    +0.000 HD
ENDBRANCH  22  23
ENDBRANCH  21  22
ENDBRANCH  15  21
ENDBRANCH  14  18
ENDBRANCH   1  14
TORSDOF 6
ENDMDL
MODEL 3
REMARK VINA RESULT:    -7.533      4.058      7.383
REMARK INTER + INTRA:         -10.516
REMARK INTER:                  -9.943
REMARK INTRA:                  -0.573
REMARK UNBOUND:                -0.561
REMARK  Name = 
REMARK  6 active torsions:
REMARK  status: ('A' for Active; 'I' for Inactive)
REMARK    1  A    between atoms: N_1  and  C_2
REMARK    2  A    between atoms: C_2  and  C_3
REMARK    3  A    between atoms: C_3  and  C_4
REMARK    4  A    between atoms: C_7  and  C_8
REMARK    5  A    between atoms: C_8  and  N_9
REMARK    6  A    between atoms: C_14  and  C_15
REMARK                            x       y       z     vdW  Elec       q    Type
REMARK                         _______ _______ _______ _____ _____    ______ ____
ROOT
ATOM      1  N   UNL     1      43.972   4.626  10.891  0.00  0.00    +0.000 N 
ATOM      2  C   UNL     1      43.407   3.515  11.474  0.00  0.00    +0.000 A 
ATOM      3  C   UNL     1      43.851   2.403  10.795  0.00  0.00    +0.000 A 
ATOM      4  C   UNL     1      44.706   2.848   9.754  0.00  0.00    +0.000 A 
ATOM      5  C   UNL     1      45.412   2.193   8.733  0.00  0.00    +0.000 A 
ATOM      6  C   UNL     1      46.159   2.978   7.854  0.00  0.00    +0.000 A 
ATOM      7  N   UNL     1      46.241   4.334   7.975  0.00  0.00    +0.000 NA
ATOM      8  C   UNL     1      45.568   4.974   8.960  0.00  0.00    +0.000 A 
ATOM      9  C   UNL     1      44.786   4.239   9.842  0.00  0.00    +0.000 A 
ENDROOT
BRANCH   6  10
ATOM     10  C   UNL     1      46.895   2.307   6.698  0.00  0.00    +0.000 C 
ATOM     11  F   UNL     1      48.243   2.543   6.704  0.00  0.00    +0.000 F 
ATOM     12  F   UNL     1      46.770   0.948   6.703  0.00  0.00    +0.000 F 
ATOM     13  F   UNL     1      46.463   2.721   5.472  0.00  0.00    +0.000 F 
ENDBRANCH   6  10
BRANCH   1  14
ATOM     14  C   UNL     1      43.627   6.001  11.247  0.00  0.00    +0.000 C 
BRANCH  14  18
ATOM     15  C   UNL     1      46.976   8.113  13.003  0.00  0.00    +0.000 A 
ATOM     16  C   UNL     1      46.017   8.803  12.252  0.00  0.00    +0.000 A 
ATOM     17  C   UNL     1      44.932   8.123  11.689  0.00  0.00    +0.000 A 
ATOM     18  C   UNL     1      44.782   6.742  11.869  0.00  0.00    +0.000 A 
ATOM     19  C   UNL     1      45.733   6.059  12.642  0.00  0.00    +0.000 A 
ATOM     20  C   UNL     1      46.815   6.738  13.207  0.00  0.00    +0.000 A 
BRANCH  15  21
ATOM     21  C   UNL     1      48.167   8.840  13.581  0.00  0.00    +0.000 C 
BRANCH  21  22
ATOM     22  C   UNL     1      48.437   8.453  15.037  0.00  0.00    +0.000 C 
BRANCH  22  23
ATOM     23  N   UNL     1      47.566   9.198  15.946  0.00  0.00    +0.000 NA
ATOM     24  H   UNL     1      48.069  10.007  16.308  0.00  0.00    +0.000 HD
ATOM     25  H   UNL     1      47.340   8.619  16.755  0.00  0.00    +0.000 HD
ENDBRANCH  22  23
ENDBRANCH  21  22
ENDBRANCH  15  21
ENDBRANCH  14  18
ENDBRANCH   1  14
TORSDOF 6
ENDMDL
MODEL 4
REMARK VINA RESULT:    -7.259      2.395      3.253
REMARK INTER + INTRA:         -10.154
REMARK INTER:                  -9.456
REMARK INTRA:                  -0.698
REMARK UNBOUND:                -0.561
REMARK  Name = 
REMARK  6 active torsions:
REMARK  status: ('A' for Active; 'I' for Inactive)
REMARK    1  A    between atoms: N_1  and  C_2
REMARK    2  A    between atoms: C_2  and  C_3
REMARK    3  A    between atoms: C_3  and  C_4
REMARK    4  A    between atoms: C_7  and  C_8
REMARK    5  A    between atoms: C_8  and  N_9
REMARK    6  A    between atoms: C_14  and  C_15
REMARK                            x       y       z     vdW  Elec       q    Type
REMARK                         _______ _______ _______ _____ _____    ______ ____
ROOT
ATOM      1  N   UNL     1      45.382   5.104  12.456  0.00  0.00    +0.000 N 
ATOM      2  C   UNL     1      45.783   4.038  13.228  0.00  0.00    +0.000 A 
ATOM      3  C   UNL     1      46.864   4.437  13.980  0.00  0.00    +0.000 A 
ATOM      4  C   UNL     1      47.143   5.789  13.649  0.00  0.00    +0.000 A 
ATOM      5  C   UNL     1      48.127   6.703  14.056  0.00  0.00    +0.000 A 
ATOM      6  C   UNL     1      48.102   7.978  13.490  0.00  0.00    +0.000 A 
ATOM      7  N   UNL     1      47.149   8.359  12.590  0.00  0.00    +0.000 NA
ATOM      8  C   UNL     1      46.193   7.487  12.198  0.00  0.00    +0.000 A 
ATOM      9  C   UNL     1      46.193   6.196  12.710  0.00  0.00    +0.000 A 
ENDROOT
BRANCH   6  10
ATOM     10  C   UNL     1      49.188   8.980  13.864  0.00  0.00    +0.000 C 
ATOM     11  F   UNL     1      49.390   9.942  12.912  0.00  0.00    +0.000 F 
ATOM     12  F   UNL     1      48.910   9.666  15.011  0.00  0.00    +0.000 F 
ATOM     13  F   UNL     1      50.410   8.404  14.057  0.00  0.00    +0.000 F 
ENDBRANCH   6  10
BRANCH   1  14
ATOM     14  C   UNL     1      44.351   5.024  11.423  0.00  0.00    +0.000 C 
BRANCH  14  18
ATOM     15  C   UNL     1      45.859   3.235   7.777  0.00  0.00    +0.000 A 
ATOM     16  C   UNL     1      45.048   2.497   8.647  0.00  0.00    +0.000 A 
ATOM     17  C   UNL     1      44.556   3.074   9.821  0.00  0.00    +0.000 A 
ATOM     18  C   UNL     1      44.861   4.402  10.147  0.00  0.00    +0.000 A 
ATOM     19  C   UNL     1      45.653   5.146   9.261  0.00  0.00    +0.000 A 
ATOM     20  C   UNL     1      46.142   4.570   8.086  0.00  0.00    +0.000 A 
BRANCH  15  21
ATOM     21  C   UNL     1      46.419   2.602   6.526  0.00  0.00    +0.000 C 
BRANCH  21  22
ATOM     22  C   UNL     1      47.705   1.815   6.795  0.00  0.00    +0.000 C 
BRANCH  22  23
ATOM     23  N   UNL     1      48.587   1.840   5.628  0.00  0.00    +0.000 NA
ATOM     24  H   UNL     1      48.274   2.566   4.984  0.00  0.00    +0.000 HD
ATOM     25  H   UNL     1      48.510   0.958   5.122  0.00  0.00    +0.000 HD
ENDBRANCH  22  23
ENDBRANCH  21  22
ENDBRANCH  15  21
ENDBRANCH  14  18
ENDBRANCH   1  14
TORSDOF 6
ENDMDL
MODEL 5
REMARK VINA RESULT:    -5.851      4.149      8.196
REMARK INTER + INTRA:          -8.293
REMARK INTER:                  -7.693
REMARK INTRA:                  -0.601
REMARK UNBOUND:                -0.561
REMARK  Name = 
REMARK  6 active torsions:
REMARK  status: ('A' for Active; 'I' for Inactive)
REMARK    1  A    between atoms: N_1  and  C_2
REMARK    2  A    between atoms: C_2  and  C_3
REMARK    3  A    between atoms: C_3  and  C_4
REMARK    4  A    between atoms: C_7  and  C_8
REMARK    5  A    between atoms: C_8  and  N_9
REMARK    6  A    between atoms: C_14  and  C_15
REMARK                            x       y       z     vdW  Elec       q    Type
REMARK                         _______ _______ _______ _____ _____    ______ ____
ROOT
ATOM      1  N   UNL     1      47.477   7.327  13.663  0.00  0.00    +0.000 N 
ATOM      2  C   UNL     1      47.046   8.603  13.382  0.00  0.00    +0.000 A 
ATOM      3  C   UNL     1      45.859   8.511  12.693  0.00  0.00    +0.000 A 
ATOM      4  C   UNL     1      45.558   7.133  12.535  0.00  0.00    +0.000 A 
ATOM      5  C   UNL     1      44.520   6.434  11.899  0.00  0.00    +0.000 A 
ATOM      6  C   UNL     1      44.561   5.040  11.933  0.00  0.00    +0.000 A 
ATOM      7  N   UNL     1      45.549   4.353  12.577  0.00  0.00    +0.000 NA
ATOM      8  C   UNL     1      46.551   5.020  13.197  0.00  0.00    +0.000 A 
ATOM      9  C   UNL     1      46.570   6.408  13.166  0.00  0.00    +0.000 A 
ENDROOT
BRANCH   6  10
ATOM     10  C   UNL     1      43.482   4.245  11.206  0.00  0.00    +0.000 C 
ATOM     11  F   UNL     1      43.345   2.966  11.671  0.00  0.00    +0.000 F 
ATOM     12  F   UNL     1      42.240   4.802  11.322  0.00  0.00    +0.000 F 
ATOM     13  F   UNL     1      43.714   4.118   9.868  0.00  0.00    +0.000 F 
ENDBRANCH   6  10
BRANCH   1  14
ATOM     14  C   UNL     1      48.773   7.015  14.262  0.00  0.00    +0.000 C 
BRANCH  14  18
ATOM     15  C   UNL     1      48.459   6.321  18.526  0.00  0.00    +0.000 A 
ATOM     16  C   UNL     1      48.378   5.253  17.625  0.00  0.00    +0.000 A 
ATOM     17  C   UNL     1      48.484   5.474  16.249  0.00  0.00    +0.000 A 
ATOM     18  C   UNL     1      48.679   6.767  15.746  0.00  0.00    +0.000 A 
ATOM     19  C   UNL     1      48.784   7.831  16.653  0.00  0.00    +0.000 A 
ATOM     20  C   UNL     1      48.680   7.610  18.028  0.00  0.00    +0.000 A 
BRANCH  15  21
ATOM     21  C   UNL     1      48.308   6.087  20.010  0.00  0.00    +0.000 C 
BRANCH  21  22
ATOM     22  C   UNL     1      49.172   4.926  20.509  0.00  0.00    +0.000 C 
BRANCH  22  23
ATOM     23  N   UNL     1      48.356   3.738  20.761  0.00  0.00    +0.000 NA
ATOM     24  H   UNL     1      47.370   3.982  20.680  0.00  0.00    +0.000 HD
ATOM     25  H   UNL     1      48.494   3.425  21.722  0.00  0.00    +0.000 HD
ENDBRANCH  22  23
ENDBRANCH  21  22
ENDBRANCH  15  21
ENDBRANCH  14  18
ENDBRANCH   1  14
TORSDOF 6
ENDMDL
MODEL 6
REMARK VINA RESULT:    -5.826      4.397      6.893
REMARK INTER + INTRA:          -8.260
REMARK INTER:                  -7.831
REMARK INTRA:                  -0.429
REMARK UNBOUND:                -0.561
REMARK  Name = 
REMARK  6 active torsions:
REMARK  status: ('A' for Active; 'I' for Inactive)
REMARK    1  A    between atoms: N_1  and  C_2
REMARK    2  A    between atoms: C_2  and  C_3
REMARK    3  A    between atoms: C_3  and  C_4
REMARK    4  A    between atoms: C_7  and  C_8
REMARK    5  A    between atoms: C_8  and  N_9
REMARK    6  A    between atoms: C_14  and  C_15
REMARK                            x       y       z     vdW  Elec       q    Type
REMARK                         _______ _______ _______ _____ _____    ______ ____
ROOT
ATOM      1  N   UNL     1      44.820   5.399  12.260  0.00  0.00    +0.000 N 
ATOM      2  C   UNL     1      44.254   4.332  12.918  0.00  0.00    +0.000 A 
ATOM      3  C   UNL     1      44.249   3.255  12.061  0.00  0.00    +0.000 A 
ATOM      4  C   UNL     1      44.818   3.680  10.833  0.00  0.00    +0.000 A 
ATOM      5  C   UNL     1      45.042   3.049   9.599  0.00  0.00    +0.000 A 
ATOM      6  C   UNL     1      45.626   3.805   8.581  0.00  0.00    +0.000 A 
ATOM      7  N   UNL     1      46.000   5.105   8.759  0.00  0.00    +0.000 NA
ATOM      8  C   UNL     1      45.793   5.719   9.947  0.00  0.00    +0.000 A 
ATOM      9  C   UNL     1      45.188   5.017  10.982  0.00  0.00    +0.000 A 
ENDROOT
BRANCH   6  10
ATOM     10  C   UNL     1      45.833   3.172   7.209  0.00  0.00    +0.000 C 
ATOM     11  F   UNL     1      46.507   1.982   7.258  0.00  0.00    +0.000 F 
ATOM     12  F   UNL     1      44.662   2.893   6.567  0.00  0.00    +0.000 F 
ATOM     13  F   UNL     1      46.553   3.957   6.356  0.00  0.00    +0.000 F 
ENDBRANCH   6  10
BRANCH   1  14
ATOM     14  C   UNL     1      44.871   6.757  12.798  0.00  0.00    +0.000 C 
BRANCH  14  18
ATOM     15  C   UNL     1      48.832   8.501  12.631  0.00  0.00    +0.000 A 
ATOM     16  C   UNL     1      48.647   7.207  13.129  0.00  0.00    +0.000 A 
ATOM     17  C   UNL     1      47.370   6.640  13.179  0.00  0.00    +0.000 A 
ATOM     18  C   UNL     1      46.253   7.354  12.727  0.00  0.00    +0.000 A 
ATOM     19  C   UNL     1      46.446   8.642  12.206  0.00  0.00    +0.000 A 
ATOM     20  C   UNL     1      47.722   9.207  12.154  0.00  0.00    +0.000 A 
BRANCH  15  21
ATOM     21  C   UNL     1      50.206   9.127  12.609  0.00  0.00    +0.000 C 
BRANCH  21  22
ATOM     22  C   UNL     1      51.224   8.277  11.845  0.00  0.00    +0.000 C 
BRANCH  22  23
ATOM     23  N   UNL     1      51.715   8.986  10.663  0.00  0.00    +0.000 NA
ATOM     24  H   UNL     1      52.724   8.865  10.592  0.00  0.00    +0.000 HD
ATOM     25  H   UNL     1      51.556   9.987  10.774  0.00  0.00    +0.000 HD
ENDBRANCH  22  23
ENDBRANCH  21  22
ENDBRANCH  15  21
ENDBRANCH  14  18
ENDBRANCH   1  14
TORSDOF 6
ENDMDL
MODEL 7
REMARK VINA RESULT:    -5.456      5.002      6.819
REMARK INTER + INTRA:          -7.772
REMARK INTER:                  -7.078
REMARK INTRA:                  -0.694
REMARK UNBOUND:                -0.561
REMARK  Name = 
REMARK  6 active torsions:
REMARK  status: ('A' for Active; 'I' for Inactive)
REMARK    1  A    between atoms: N_1  and  C_2
REMARK    2  A    between atoms: C_2  and  C_3
REMARK    3  A    between atoms: C_3  and  C_4
REMARK    4  A    between atoms: C_7  and  C_8
REMARK    5  A    between atoms: C_8  and  N_9
REMARK    6  A    between atoms: C_14  and  C_15
REMARK                            x       y       z     vdW  Elec       q    Type
REMARK                         _______ _______ _______ _____ _____    ______ ____
ROOT
ATOM      1  N   UNL     1      47.704   6.768  13.522  0.00  0.00    +0.000 N 
ATOM      2  C   UNL     1      47.914   5.945  14.604  0.00  0.00    +0.000 A 
ATOM      3  C   UNL     1      47.142   4.818  14.440  0.00  0.00    +0.000 A 
ATOM      4  C   UNL     1      46.426   4.960  13.223  0.00  0.00    +0.000 A 
ATOM      5  C   UNL     1      45.477   4.167  12.559  0.00  0.00    +0.000 A 
ATOM      6  C   UNL     1      44.959   4.646  11.355  0.00  0.00    +0.000 A 
ATOM      7  N   UNL     1      45.363   5.828  10.806  0.00  0.00    +0.000 NA
ATOM      8  C   UNL     1      46.282   6.596  11.436  0.00  0.00    +0.000 A 
ATOM      9  C   UNL     1      46.805   6.176  12.652  0.00  0.00    +0.000 A 
ENDROOT
BRANCH   6  10
ATOM     10  C   UNL     1      43.885   3.840  10.633  0.00  0.00    +0.000 C 
ATOM     11  F   UNL     1      44.156   2.500  10.583  0.00  0.00    +0.000 F 
ATOM     12  F   UNL     1      42.658   3.936  11.224  0.00  0.00    +0.000 F 
ATOM     13  F   UNL     1      43.709   4.219   9.334  0.00  0.00    +0.000 F 
ENDBRANCH   6  10
BRANCH   1  14
ATOM     14  C   UNL     1      48.242   8.122  13.408  0.00  0.00    +0.000 C 
BRANCH  14  18
ATOM     15  C   UNL     1      52.236   8.221  11.735  0.00  0.00    +0.000 A 
ATOM     16  C   UNL     1      52.018   8.573  13.072  0.00  0.00    +0.000 A 
ATOM     17  C   UNL     1      50.730   8.537  13.615  0.00  0.00    +0.000 A 
ATOM     18  C   UNL     1      49.636   8.143  12.834  0.00  0.00    +0.000 A 
ATOM     19  C   UNL     1      49.862   7.768  11.502  0.00  0.00    +0.000 A 
ATOM     20  C   UNL     1      51.149   7.801  10.960  0.00  0.00    +0.000 A 
BRANCH  15  21
ATOM     21  C   UNL     1      53.621   8.294  11.139  0.00  0.00    +0.000 C 
BRANCH  21  22
ATOM     22  C   UNL     1      54.095   6.944  10.594  0.00  0.00    +0.000 C 
BRANCH  22  23
ATOM     23  N   UNL     1      54.605   6.095  11.671  0.00  0.00    +0.000 NA
ATOM     24  H   UNL     1      53.823   5.737  12.217  0.00  0.00    +0.000 HD
ATOM     25  H   UNL     1      55.167   6.655  12.311  0.00  0.00    +0.000 HD
ENDBRANCH  22  23
ENDBRANCH  21  22
ENDBRANCH  15  21
ENDBRANCH  14  18
ENDBRANCH   1  14
TORSDOF 6
ENDMDL
MODEL 8
REMARK VINA RESULT:    -5.374      4.163      5.842
REMARK INTER + INTRA:          -7.663
REMARK INTER:                  -6.967
REMARK INTRA:                  -0.696
REMARK UNBOUND:                -0.561
REMARK  Name = 
REMARK  6 active torsions:
REMARK  status: ('A' for Active; 'I' for Inactive)
REMARK    1  A    between atoms: N_1  and  C_2
REMARK    2  A    between atoms: C_2  and  C_3
REMARK    3  A    between atoms: C_3  and  C_4
REMARK    4  A    between atoms: C_7  and  C_8
REMARK    5  A    between atoms: C_8  and  N_9
REMARK    6  A    between atoms: C_14  and  C_15
REMARK                            x       y       z     vdW  Elec       q    Type
REMARK                         _______ _______ _______ _____ _____    ______ ____
ROOT
ATOM      1  N   UNL     1      48.986   7.855  14.694  0.00  0.00    +0.000 N 
ATOM      2  C   UNL     1      48.866   9.224  14.632  0.00  0.00    +0.000 A 
ATOM      3  C   UNL     1      48.575   9.686  15.895  0.00  0.00    +0.000 A 
ATOM      4  C   UNL     1      48.502   8.562  16.758  0.00  0.00    +0.000 A 
ATOM      5  C   UNL     1      48.211   8.405  18.122  0.00  0.00    +0.000 A 
ATOM      6  C   UNL     1      48.215   7.109  18.641  0.00  0.00    +0.000 A 
ATOM      7  N   UNL     1      48.515   6.018  17.879  0.00  0.00    +0.000 NA
ATOM      8  C   UNL     1      48.803   6.161  16.564  0.00  0.00    +0.000 A 
ATOM      9  C   UNL     1      48.782   7.428  15.994  0.00  0.00    +0.000 A 
ENDROOT
BRANCH   6  10
ATOM     10  C   UNL     1      47.848   6.892  20.105  0.00  0.00    +0.000 C 
ATOM     11  F   UNL     1      47.297   7.997  20.695  0.00  0.00    +0.000 F 
ATOM     12  F   UNL     1      46.932   5.897  20.284  0.00  0.00    +0.000 F 
ATOM     13  F   UNL     1      48.918   6.565  20.886  0.00  0.00    +0.000 F 
ENDBRANCH   6  10
BRANCH   1  14
ATOM     14  C   UNL     1      49.151   6.995  13.524  0.00  0.00    +0.000 C 
BRANCH  14  18
ATOM     15  C   UNL     1      45.390   5.580  11.908  0.00  0.00    +0.000 A 
ATOM     16  C   UNL     1      46.050   4.856  12.907  0.00  0.00    +0.000 A 
ATOM     17  C   UNL     1      47.262   5.314  13.434  0.00  0.00    +0.000 A 
ATOM     18  C   UNL     1      47.835   6.507  12.976  0.00  0.00    +0.000 A 
ATOM     19  C   UNL     1      47.158   7.242  11.992  0.00  0.00    +0.000 A 
ATOM     20  C   UNL     1      45.946   6.787  11.468  0.00  0.00    +0.000 A 
BRANCH  15  21
ATOM     21  C   UNL     1      44.099   5.068  11.314  0.00  0.00    +0.000 C 
BRANCH  21  22
ATOM     22  C   UNL     1      43.191   4.420  12.361  0.00  0.00    +0.000 C 
BRANCH  22  23
ATOM     23  N   UNL     1      42.634   5.426  13.266  0.00  0.00    +0.000 NA
ATOM     24  H   UNL     1      42.763   6.352  12.860  0.00  0.00    +0.000 HD
ATOM     25  H   UNL     1      43.155   5.424  14.142  0.00  0.00    +0.000 HD
ENDBRANCH  22  23
ENDBRANCH  21  22
ENDBRANCH  15  21
ENDBRANCH  14  18
ENDBRANCH   1  14
TORSDOF 6
ENDMDL
MODEL 9
REMARK VINA RESULT:    -5.364      4.254      8.647
REMARK INTER + INTRA:          -7.649
REMARK INTER:                  -6.981
REMARK INTRA:                  -0.669
REMARK UNBOUND:                -0.561
REMARK  Name = 
REMARK  6 active torsions:
REMARK  status: ('A' for Active; 'I' for Inactive)
REMARK    1  A    between atoms: N_1  and  C_2
REMARK    2  A    between atoms: C_2  and  C_3
REMARK    3  A    between atoms: C_3  and  C_4
REMARK    4  A    between atoms: C_7  and  C_8
REMARK    5  A    between atoms: C_8  and  N_9
REMARK    6  A    between atoms: C_14  and  C_15
REMARK                            x       y       z     vdW  Elec       q    Type
REMARK                         _______ _______ _______ _____ _____    ______ ____
ROOT
ATOM      1  N   UNL     1      48.109   6.881  13.867  0.00  0.00    +0.000 N 
ATOM      2  C   UNL     1      47.936   8.004  13.092  0.00  0.00    +0.000 A 
ATOM      3  C   UNL     1      46.902   7.765  12.216  0.00  0.00    +0.000 A 
ATOM      4  C   UNL     1      46.435   6.446  12.452  0.00  0.00    +0.000 A 
ATOM      5  C   UNL     1      45.445   5.647  11.858  0.00  0.00    +0.000 A 
ATOM      6  C   UNL     1      45.270   4.355  12.355  0.00  0.00    +0.000 A 
ATOM      7  N   UNL     1      46.003   3.868  13.398  0.00  0.00    +0.000 NA
ATOM      8  C   UNL     1      46.955   4.633  13.980  0.00  0.00    +0.000 A 
ATOM      9  C   UNL     1      47.187   5.916  13.502  0.00  0.00    +0.000 A 
ENDROOT
BRANCH   6  10
ATOM     10  C   UNL     1      44.243   3.438  11.699  0.00  0.00    +0.000 C 
ATOM     11  F   UNL     1      44.760   2.687  10.679  0.00  0.00    +0.000 F 
ATOM     12  F   UNL     1      43.701   2.536  12.568  0.00  0.00    +0.000 F 
ATOM     13  F   UNL     1      43.191   4.112  11.152  0.00  0.00    +0.000 F 
ENDBRANCH   6  10
BRANCH   1  14
ATOM     14  C   UNL     1      49.206   6.704  14.817  0.00  0.00    +0.000 C 
BRANCH  14  18
ATOM     15  C   UNL     1      47.950   7.475  18.890  0.00  0.00    +0.000 A 
ATOM     16  C   UNL     1      48.128   6.163  18.439  0.00  0.00    +0.000 A 
ATOM     17  C   UNL     1      48.539   5.912  17.127  0.00  0.00    +0.000 A 
ATOM     18  C   UNL     1      48.784   6.968  16.240  0.00  0.00    +0.000 A 
ATOM     19  C   UNL     1      48.628   8.283  16.703  0.00  0.00    +0.000 A 
ATOM     20  C   UNL     1      48.220   8.534  18.016  0.00  0.00    +0.000 A 
BRANCH  15  21
ATOM     21  C   UNL     1      47.473   7.746  20.297  0.00  0.00    +0.000 C 
BRANCH  21  22
ATOM     22  C   UNL     1      47.793   9.169  20.760  0.00  0.00    +0.000 C 
BRANCH  22  23
ATOM     23  N   UNL     1      46.566   9.928  21.005  0.00  0.00    +0.000 NA
ATOM     24  H   UNL     1      45.963   9.399  21.632  0.00  0.00    +0.000 HD
ATOM     25  H   UNL     1      46.049  10.033  20.133  0.00  0.00    +0.000 HD
ENDBRANCH  22  23
ENDBRANCH  21  22
ENDBRANCH  15  21
ENDBRANCH  14  18
ENDBRANCH   1  14
TORSDOF 6
ENDMDL
