MODEL 1
REMARK VINA RESULT:    -7.601      0.000      0.000
REMARK INTER + INTRA:         -10.180
REMARK INTER:                  -9.822
REMARK INTRA:                  -0.357
REMARK UNBOUND:                -0.357
REMARK  Name = 
REMARK  5 active torsions:
REMARK  status: ('A' for Active; 'I' for Inactive)
REMARK    1  A    between atoms: C_2  and  C_3
REMARK    2  A    between atoms: N_7  and  C_8
REMARK    3  A    between atoms: C_8  and  C_9
REMARK    4  A    between atoms: C_12  and  O_13
REMARK    5  A    between atoms: O_13  and  C_14
REMARK                            x       y       z     vdW  Elec       q    Type
REMARK                         _______ _______ _______ _____ _____    ______ ____
ROOT
ATOM      1  C   UNL     1      44.059   4.833  11.667  0.00  0.00    +0.000 C 
ATOM      2  C   UNL     1      43.287   6.099  11.300  0.00  0.00    +0.000 C 
ATOM      3  C   UNL     1      42.537   4.844  11.594  0.00  0.00    +0.000 C 
ENDROOT
BRANCH   1   8
ATOM      4  C   UNL     1      48.060   6.219  14.567  0.00  0.00    +0.000 A 
ATOM      5  C   UNL     1      47.338   6.846  13.592  0.00  0.00    +0.000 A 
ATOM      6  N   UNL     1      46.217   6.331  13.050  0.00  0.00    +0.000 NA
ATOM      7  C   UNL     1      45.784   5.138  13.502  0.00  0.00    +0.000 A 
ATOM      8  N   UNL     1      44.649   4.545  12.973  0.00  0.00    +0.000 N 
ATOM      9  N   UNL     1      46.413   4.468  14.488  0.00  0.00    +0.000 NA
ATOM     10  C   UNL     1      47.545   5.017  14.987  0.00  0.00    +0.000 A 
ATOM     11  H   UNL     1      44.371   3.737  13.514  0.00  0.00    +0.000 HD
BRANCH   4  13
ATOM     12  N   UNL     1      50.230   7.232  15.515  0.00  0.00    +0.000 NA
ATOM     13  C   UNL     1      49.251   6.774  15.093  0.00  0.00    +0.000 C 
ENDBRANCH   4  13
ENDBRANCH   1   8
BRANCH   1  14
ATOM     14  C   UNL     1      44.845   4.276  10.479  0.00  0.00    +0.000 A 
ATOM     15  C   UNL     1      44.711   2.939  10.071  0.00  0.00    +0.000 A 
ATOM     16  C   UNL     1      45.119   2.528   8.800  0.00  0.00    +0.000 A 
ATOM     17  C   UNL     1      45.662   3.451   7.912  0.00  0.00    +0.000 A 
ATOM     18  C   UNL     1      45.981   4.728   8.370  0.00  0.00    +0.000 A 
ATOM     19  C   UNL     1      45.583   5.134   9.646  0.00  0.00    +0.000 A 
BRANCH  17  20
ATOM     20  O   UNL     1      45.941   3.204   6.603  0.00  0.00    +0.000 OA
BRANCH  20  21
ATOM     21  C   UNL     1      47.121   2.464   6.301  0.00  0.00    +0.000 C 
ATOM     22  F   UNL     1      48.162   2.697   7.130  0.00  0.00    +0.000 F 
ATOM     23  F   UNL     1      46.839   1.142   6.364  0.00  0.00    +0.000 F 
ATOM     24  F   UNL     1      47.507   2.750   5.038  0.00  0.00    +0.000 F 
ENDBRANCH  20  21
ENDBRANCH  17  20
ENDBRANCH   1  14
TORSDOF 5
ENDMDL
MODEL 2
REMARK VINA RESULT:    -7.391      4.916      7.143
REMARK INTER + INTRA:          -9.909
REMARK INTER:                  -9.621
REMARK INTRA:                  -0.288
REMARK UNBOUND:                -0.357
REMARK  Name = 
REMARK  5 active torsions:
REMARK  status: ('A' for Active; 'I' for Inactive)
REMARK    1  A    between atoms: C_2  and  C_3
REMARK    2  A    between atoms: N_7  and  C_8
REMARK    3  A    between atoms: C_8  and  C_9
REMARK    4  A    between atoms: C_12  and  O_13
REMARK    5  A    between atoms: O_13  and  C_14
REMARK                            x       y       z     vdW  Elec       q    Type
REMARK                         _______ _______ _______ _____ _____    ______ ____
ROOT
ATOM      1  C   UNL     1      43.907   5.547  11.410  0.00  0.00    +0.000 C 
ATOM      2  C   UNL     1      42.742   4.753  11.997  0.00  0.00    +0.000 C 
ATOM      3  C   UNL     1      42.554   6.196  11.672  0.00  0.00    +0.000 C 
ENDROOT
BRANCH   1   8
ATOM      4  C   UNL     1      46.069   2.298   8.077  0.00  0.00    +0.000 A 
ATOM      5  C   UNL     1      45.283   2.133   9.182  0.00  0.00    +0.000 A 
ATOM      6  N   UNL     1      44.704   3.156   9.840  0.00  0.00    +0.000 NA
ATOM      7  C   UNL     1      44.905   4.405   9.376  0.00  0.00    +0.000 A 
ATOM      8  N   UNL     1      44.353   5.501  10.018  0.00  0.00    +0.000 N 
ATOM      9  N   UNL     1      45.634   4.656   8.270  0.00  0.00    +0.000 NA
ATOM     10  C   UNL     1      46.212   3.597   7.655  0.00  0.00    +0.000 A 
ATOM     11  H   UNL     1      44.465   6.343   9.470  0.00  0.00    +0.000 HD
BRANCH   4  13
ATOM     12  N   UNL     1      47.187   0.303   6.893  0.00  0.00    +0.000 NA
ATOM     13  C   UNL     1      46.688   1.204   7.427  0.00  0.00    +0.000 C 
ENDBRANCH   4  13
ENDBRANCH   1   8
BRANCH   1  14
ATOM     14  C   UNL     1      45.030   5.757  12.428  0.00  0.00    +0.000 A 
ATOM     15  C   UNL     1      45.687   4.673  13.031  0.00  0.00    +0.000 A 
ATOM     16  C   UNL     1      46.927   4.836  13.654  0.00  0.00    +0.000 A 
ATOM     17  C   UNL     1      47.533   6.088  13.678  0.00  0.00    +0.000 A 
ATOM     18  C   UNL     1      46.808   7.202  13.260  0.00  0.00    +0.000 A 
ATOM     19  C   UNL     1      45.563   7.039  12.648  0.00  0.00    +0.000 A 
BRANCH  17  20
ATOM     20  O   UNL     1      48.801   6.333  14.108  0.00  0.00    +0.000 OA
BRANCH  20  21
ATOM     21  C   UNL     1      48.991   6.630  15.488  0.00  0.00    +0.000 C 
ATOM     22  F   UNL     1      50.232   6.376  15.956  0.00  0.00    +0.000 F 
ATOM     23  F   UNL     1      48.740   7.944  15.692  0.00  0.00    +0.000 F 
ATOM     24  F   UNL     1      48.104   5.917  16.217  0.00  0.00    +0.000 F 
ENDBRANCH  20  21
ENDBRANCH  17  20
ENDBRANCH   1  14
TORSDOF 5
ENDMDL
MODEL 3
REMARK VINA RESULT:    -7.332      1.217      1.883
REMARK INTER + INTRA:          -9.832
REMARK INTER:                  -9.529
REMARK INTRA:                  -0.303
REMARK UNBOUND:                -0.357
REMARK  Name = 
REMARK  5 active torsions:
REMARK  status: ('A' for Active; 'I' for Inactive)
REMARK    1  A    between atoms: C_2  and  C_3
REMARK    2  A    between atoms: N_7  and  C_8
REMARK    3  A    between atoms: C_8  and  C_9
REMARK    4  A    between atoms: C_12  and  O_13
REMARK    5  A    between atoms: O_13  and  C_14
REMARK                            x       y       z     vdW  Elec       q    Type
REMARK                         _______ _______ _______ _____ _____    ______ ____
ROOT
ATOM      1  C   UNL     1      43.746   5.424  11.434  0.00  0.00    +0.000 C 
ATOM      2  C   UNL     1      42.258   5.548  11.753  0.00  0.00    +0.000 C 
ATOM      3  C   UNL     1      43.183   4.991  12.782  0.00  0.00    +0.000 C 
ENDROOT
BRANCH   1   8
ATOM      4  C   UNL     1      48.088   6.802  13.797  0.00  0.00    +0.000 A 
ATOM      5  C   UNL     1      47.514   5.598  13.504  0.00  0.00    +0.000 A 
ATOM      6  N   UNL     1      46.413   5.468  12.739  0.00  0.00    +0.000 NA
ATOM      7  C   UNL     1      45.858   6.585  12.230  0.00  0.00    +0.000 A 
ATOM      8  N   UNL     1      44.714   6.520  11.451  0.00  0.00    +0.000 N 
ATOM      9  N   UNL     1      46.380   7.810  12.436  0.00  0.00    +0.000 NA
ATOM     10  C   UNL     1      47.475   7.891  13.227  0.00  0.00    +0.000 A 
ATOM     11  H   UNL     1      44.509   7.413  11.023  0.00  0.00    +0.000 HD
BRANCH   4  13
ATOM     12  N   UNL     1      50.168   6.994  15.305  0.00  0.00    +0.000 NA
ATOM     13  C   UNL     1      49.227   6.907  14.630  0.00  0.00    +0.000 C 
ENDBRANCH   4  13
ENDBRANCH   1   8
BRANCH   1  14
ATOM     14  C   UNL     1      44.020   4.353  10.376  0.00  0.00    +0.000 A 
ATOM     15  C   UNL     1      44.289   4.692   9.040  0.00  0.00    +0.000 A 
ATOM     16  C   UNL     1      44.895   3.780   8.172  0.00  0.00    +0.000 A 
ATOM     17  C   UNL     1      45.247   2.514   8.630  0.00  0.00    +0.000 A 
ATOM     18  C   UNL     1      44.810   2.100   9.886  0.00  0.00    +0.000 A 
ATOM     19  C   UNL     1      44.194   3.010  10.749  0.00  0.00    +0.000 A 
BRANCH  17  20
ATOM     20  O   UNL     1      45.982   1.608   7.929  0.00  0.00    +0.000 OA
BRANCH  20  21
ATOM     21  C   UNL     1      47.051   2.096   7.123  0.00  0.00    +0.000 C 
ATOM     22  F   UNL     1      47.457   3.350   7.421  0.00  0.00    +0.000 F 
ATOM     23  F   UNL     1      48.118   1.277   7.266  0.00  0.00    +0.000 F 
ATOM     24  F   UNL     1      46.672   2.066   5.826  0.00  0.00    +0.000 F 
ENDBRANCH  20  21
ENDBRANCH  17  20
ENDBRANCH   1  14
TORSDOF 5
ENDMDL
MODEL 4
REMARK VINA RESULT:    -6.988      5.046      7.456
REMARK INTER + INTRA:          -9.388
REMARK INTER:                  -8.992
REMARK INTRA:                  -0.396
REMARK UNBOUND:                -0.357
REMARK  Name = 
REMARK  5 active torsions:
REMARK  status: ('A' for Active; 'I' for Inactive)
REMARK    1  A    between atoms: C_2  and  C_3
REMARK    2  A    between atoms: N_7  and  C_8
REMARK    3  A    between atoms: C_8  and  C_9
REMARK    4  A    between atoms: C_12  and  O_13
REMARK    5  A    between atoms: O_13  and  C_14
REMARK                            x       y       z     vdW  Elec       q    Type
REMARK                         _______ _______ _______ _____ _____    ______ ____
ROOT
ATOM      1  C   UNL     1      44.306   4.628  11.790  0.00  0.00    +0.000 C 
ATOM      2  C   UNL     1      43.274   3.639  12.330  0.00  0.00    +0.000 C 
ATOM      3  C   UNL     1      43.015   5.103  12.446  0.00  0.00    +0.000 C 
ENDROOT
BRANCH   1   8
ATOM      4  C   UNL     1      46.525   2.797   7.540  0.00  0.00    +0.000 A 
ATOM      5  C   UNL     1      46.011   2.214   8.662  0.00  0.00    +0.000 A 
ATOM      6  N   UNL     1      45.338   2.895   9.611  0.00  0.00    +0.000 NA
ATOM      7  C   UNL     1      45.159   4.219   9.435  0.00  0.00    +0.000 A 
ATOM      8  N   UNL     1      44.493   4.979  10.383  0.00  0.00    +0.000 N 
ATOM      9  N   UNL     1      45.600   4.868   8.340  0.00  0.00    +0.000 NA
ATOM     10  C   UNL     1      46.286   4.145   7.425  0.00  0.00    +0.000 A 
ATOM     11  H   UNL     1      44.308   5.912  10.041  0.00  0.00    +0.000 HD
BRANCH   4  13
ATOM     12  N   UNL     1      47.844   1.445   5.789  0.00  0.00    +0.000 NA
ATOM     13  C   UNL     1      47.254   2.059   6.578  0.00  0.00    +0.000 C 
ENDBRANCH   4  13
ENDBRANCH   1   8
BRANCH   1  14
ATOM     14  C   UNL     1      45.592   4.626  12.619  0.00  0.00    +0.000 A 
ATOM     15  C   UNL     1      46.113   5.807  13.169  0.00  0.00    +0.000 A 
ATOM     16  C   UNL     1      47.044   5.770  14.210  0.00  0.00    +0.000 A 
ATOM     17  C   UNL     1      47.464   4.547  14.722  0.00  0.00    +0.000 A 
ATOM     18  C   UNL     1      47.108   3.374  14.059  0.00  0.00    +0.000 A 
ATOM     19  C   UNL     1      46.186   3.414  13.011  0.00  0.00    +0.000 A 
BRANCH  17  20
ATOM     20  O   UNL     1      48.235   4.389  15.833  0.00  0.00    +0.000 OA
BRANCH  20  21
ATOM     21  C   UNL     1      47.600   3.947  17.029  0.00  0.00    +0.000 C 
ATOM     22  F   UNL     1      47.523   2.605  17.166  0.00  0.00    +0.000 F 
ATOM     23  F   UNL     1      48.285   4.427  18.093  0.00  0.00    +0.000 F 
ATOM     24  F   UNL     1      46.348   4.454  17.074  0.00  0.00    +0.000 F 
ENDBRANCH  20  21
ENDBRANCH  17  20
ENDBRANCH   1  14
TORSDOF 5
ENDMDL
MODEL 5
REMARK VINA RESULT:    -6.974      3.921      6.466
REMARK INTER + INTRA:          -9.369
REMARK INTER:                  -8.580
REMARK INTRA:                  -0.789
REMARK UNBOUND:                -0.357
REMARK  Name = 
REMARK  5 active torsions:
REMARK  status: ('A' for Active; 'I' for Inactive)
REMARK    1  A    between atoms: C_2  and  C_3
REMARK    2  A    between atoms: N_7  and  C_8
REMARK    3  A    between atoms: C_8  and  C_9
REMARK    4  A    between atoms: C_12  and  O_13
REMARK    5  A    between atoms: O_13  and  C_14
REMARK                            x       y       z     vdW  Elec       q    Type
REMARK                         _______ _______ _______ _____ _____    ______ ____
ROOT
ATOM      1  C   UNL     1      43.967   4.943  12.070  0.00  0.00    +0.000 C 
ATOM      2  C   UNL     1      42.651   5.051  12.839  0.00  0.00    +0.000 C 
ATOM      3  C   UNL     1      42.710   5.507  11.420  0.00  0.00    +0.000 C 
ENDROOT
BRANCH   1   8
ATOM      4  C   UNL     1      46.014   3.253   7.678  0.00  0.00    +0.000 A 
ATOM      5  C   UNL     1      45.959   4.475   8.285  0.00  0.00    +0.000 A 
ATOM      6  N   UNL     1      45.478   4.665   9.530  0.00  0.00    +0.000 NA
ATOM      7  C   UNL     1      45.037   3.589  10.211  0.00  0.00    +0.000 A 
ATOM      8  N   UNL     1      44.514   3.719  11.486  0.00  0.00    +0.000 N 
ATOM      9  N   UNL     1      45.089   2.342   9.703  0.00  0.00    +0.000 NA
ATOM     10  C   UNL     1      45.562   2.205   8.442  0.00  0.00    +0.000 A 
ATOM     11  H   UNL     1      44.369   2.817  11.919  0.00  0.00    +0.000 HD
BRANCH   4  13
ATOM     12  N   UNL     1      46.899   2.955   5.278  0.00  0.00    +0.000 NA
ATOM     13  C   UNL     1      46.496   3.093   6.358  0.00  0.00    +0.000 C 
ENDBRANCH   4  13
ENDBRANCH   1   8
BRANCH   1  14
ATOM     14  C   UNL     1      45.021   5.920  12.596  0.00  0.00    +0.000 A 
ATOM     15  C   UNL     1      46.187   5.469  13.234  0.00  0.00    +0.000 A 
ATOM     16  C   UNL     1      47.301   6.301  13.375  0.00  0.00    +0.000 A 
ATOM     17  C   UNL     1      47.266   7.599  12.875  0.00  0.00    +0.000 A 
ATOM     18  C   UNL     1      46.056   8.120  12.420  0.00  0.00    +0.000 A 
ATOM     19  C   UNL     1      44.941   7.289  12.290  0.00  0.00    +0.000 A 
BRANCH  17  20
ATOM     20  O   UNL     1      48.335   8.439  12.810  0.00  0.00    +0.000 OA
BRANCH  20  21
ATOM     21  C   UNL     1      49.351   8.152  11.853  0.00  0.00    +0.000 C 
ATOM     22  F   UNL     1      48.934   7.446  10.780  0.00  0.00    +0.000 F 
ATOM     23  F   UNL     1      49.867   9.318  11.399  0.00  0.00    +0.000 F 
ATOM     24  F   UNL     1      50.343   7.464  12.459  0.00  0.00    +0.000 F 
ENDBRANCH  20  21
ENDBRANCH  17  20
ENDBRANCH   1  14
TORSDOF 5
ENDMDL
MODEL 6
REMARK VINA RESULT:    -6.931      1.517      2.232
REMARK INTER + INTRA:          -9.315
REMARK INTER:                  -9.611
REMARK INTRA:                   0.296
REMARK UNBOUND:                -0.357
REMARK  Name = 
REMARK  5 active torsions:
REMARK  status: ('A' for Active; 'I' for Inactive)
REMARK    1  A    between atoms: C_2  and  C_3
REMARK    2  A    between atoms: N_7  and  C_8
REMARK    3  A    between atoms: C_8  and  C_9
REMARK    4  A    between atoms: C_12  and  O_13
REMARK    5  A    between atoms: O_13  and  C_14
REMARK                            x       y       z     vdW  Elec       q    Type
REMARK                         _______ _______ _______ _____ _____    ______ ____
ROOT
ATOM      1  C   UNL     1      45.064   5.091  12.268  0.00  0.00    +0.000 C 
ATOM      2  C   UNL     1      43.732   5.610  12.807  0.00  0.00    +0.000 C 
ATOM      3  C   UNL     1      44.245   4.289  13.273  0.00  0.00    +0.000 C 
ENDROOT
BRANCH   1   8
ATOM      4  C   UNL     1      48.127   4.859  16.379  0.00  0.00    +0.000 A 
ATOM      5  C   UNL     1      47.133   4.056  15.896  0.00  0.00    +0.000 A 
ATOM      6  N   UNL     1      46.544   4.244  14.699  0.00  0.00    +0.000 NA
ATOM      7  C   UNL     1      46.966   5.273  13.938  0.00  0.00    +0.000 A 
ATOM      8  N   UNL     1      46.388   5.531  12.706  0.00  0.00    +0.000 N 
ATOM      9  N   UNL     1      47.967   6.090  14.320  0.00  0.00    +0.000 NA
ATOM     10  C   UNL     1      48.514   5.873  15.539  0.00  0.00    +0.000 A 
ATOM     11  H   UNL     1      46.908   6.232  12.195  0.00  0.00    +0.000 HD
BRANCH   4  13
ATOM     12  N   UNL     1      49.168   4.477  18.705  0.00  0.00    +0.000 NA
ATOM     13  C   UNL     1      48.703   4.652  17.655  0.00  0.00    +0.000 C 
ENDBRANCH   4  13
ENDBRANCH   1   8
BRANCH   1  14
ATOM     14  C   UNL     1      44.978   4.718  10.787  0.00  0.00    +0.000 A 
ATOM     15  C   UNL     1      45.680   5.435   9.806  0.00  0.00    +0.000 A 
ATOM     16  C   UNL     1      45.907   4.893   8.539  0.00  0.00    +0.000 A 
ATOM     17  C   UNL     1      45.439   3.619   8.234  0.00  0.00    +0.000 A 
ATOM     18  C   UNL     1      44.577   2.981   9.124  0.00  0.00    +0.000 A 
ATOM     19  C   UNL     1      44.342   3.529  10.387  0.00  0.00    +0.000 A 
BRANCH  17  20
ATOM     20  O   UNL     1      45.737   2.929   7.100  0.00  0.00    +0.000 OA
BRANCH  20  21
ATOM     21  C   UNL     1      46.871   2.067   7.122  0.00  0.00    +0.000 C 
ATOM     22  F   UNL     1      46.860   1.142   8.107  0.00  0.00    +0.000 F 
ATOM     23  F   UNL     1      46.944   1.407   5.943  0.00  0.00    +0.000 F 
ATOM     24  F   UNL     1      47.989   2.816   7.251  0.00  0.00    +0.000 F 
ENDBRANCH  20  21
ENDBRANCH  17  20
ENDBRANCH   1  14
TORSDOF 5
ENDMDL
MODEL 7
REMARK VINA RESULT:    -5.812      2.079      3.055
REMARK INTER + INTRA:          -7.868
REMARK INTER:                  -8.036
REMARK INTRA:                   0.169
REMARK UNBOUND:                -0.357
REMARK  Name = 
REMARK  5 active torsions:
REMARK  status: ('A' for Active; 'I' for Inactive)
REMARK    1  A    between atoms: C_2  and  C_3
REMARK    2  A    between atoms: N_7  and  C_8
REMARK    3  A    between atoms: C_8  and  C_9
REMARK    4  A    between atoms: C_12  and  O_13
REMARK    5  A    between atoms: O_13  and  C_14
REMARK                            x       y       z     vdW  Elec       q    Type
REMARK                         _______ _______ _______ _____ _____    ______ ____
ROOT
ATOM      1  C   UNL     1      45.958   5.404  12.943  0.00  0.00    +0.000 C 
ATOM      2  C   UNL     1      45.622   4.376  14.023  0.00  0.00    +0.000 C 
ATOM      3  C   UNL     1      47.043   4.567  13.609  0.00  0.00    +0.000 C 
ENDROOT
BRANCH   1   8
ATOM      4  C   UNL     1      49.386   9.220  12.790  0.00  0.00    +0.000 A 
ATOM      5  C   UNL     1      49.290   8.011  12.162  0.00  0.00    +0.000 A 
ATOM      6  N   UNL     1      48.210   7.211  12.252  0.00  0.00    +0.000 NA
ATOM      7  C   UNL     1      47.167   7.634  12.993  0.00  0.00    +0.000 A 
ATOM      8  N   UNL     1      46.034   6.851  13.140  0.00  0.00    +0.000 N 
ATOM      9  N   UNL     1      47.160   8.829  13.615  0.00  0.00    +0.000 NA
ATOM     10  C   UNL     1      48.277   9.588  13.511  0.00  0.00    +0.000 A 
ATOM     11  H   UNL     1      45.289   7.363  13.594  0.00  0.00    +0.000 HD
BRANCH   4  13
ATOM     12  N   UNL     1      51.503  10.678  12.638  0.00  0.00    +0.000 NA
ATOM     13  C   UNL     1      50.549  10.021  12.700  0.00  0.00    +0.000 C 
ENDBRANCH   4  13
ENDBRANCH   1   8
BRANCH   1  14
ATOM     14  C   UNL     1      45.445   4.978  11.566  0.00  0.00    +0.000 A 
ATOM     15  C   UNL     1      45.681   5.755  10.422  0.00  0.00    +0.000 A 
ATOM     16  C   UNL     1      45.555   5.212   9.141  0.00  0.00    +0.000 A 
ATOM     17  C   UNL     1      45.196   3.877   8.985  0.00  0.00    +0.000 A 
ATOM     18  C   UNL     1      44.770   3.153  10.097  0.00  0.00    +0.000 A 
ATOM     19  C   UNL     1      44.886   3.702  11.376  0.00  0.00    +0.000 A 
BRANCH  17  20
ATOM     20  O   UNL     1      45.200   3.201   7.804  0.00  0.00    +0.000 OA
BRANCH  20  21
ATOM     21  C   UNL     1      46.460   2.819   7.259  0.00  0.00    +0.000 C 
ATOM     22  F   UNL     1      47.414   3.773   7.316  0.00  0.00    +0.000 F 
ATOM     23  F   UNL     1      46.921   1.740   7.934  0.00  0.00    +0.000 F 
ATOM     24  F   UNL     1      46.289   2.462   5.966  0.00  0.00    +0.000 F 
ENDBRANCH  20  21
ENDBRANCH  17  20
ENDBRANCH   1  14
TORSDOF 5
ENDMDL
MODEL 8
REMARK VINA RESULT:    -5.632      6.095      8.874
REMARK INTER + INTRA:          -7.636
REMARK INTER:                  -6.936
REMARK INTRA:                  -0.700
REMARK UNBOUND:                -0.357
REMARK  Name = 
REMARK  5 active torsions:
REMARK  status: ('A' for Active; 'I' for Inactive)
REMARK    1  A    between atoms: C_2  and  C_3
REMARK    2  A    between atoms: N_7  and  C_8
REMARK    3  A    between atoms: C_8  and  C_9
REMARK    4  A    between atoms: C_12  and  O_13
REMARK    5  A    between atoms: O_13  and  C_14
REMARK                            x       y       z     vdW  Elec       q    Type
REMARK                         _______ _______ _______ _____ _____    ______ ____
ROOT
ATOM      1  C   UNL     1      48.197   7.818  13.631  0.00  0.00    +0.000 C 
ATOM      2  C   UNL     1      49.210   8.601  12.797  0.00  0.00    +0.000 C 
ATOM      3  C   UNL     1      49.069   7.131  12.587  0.00  0.00    +0.000 C 
ENDROOT
BRANCH   1   8
ATOM      4  C   UNL     1      44.483   4.489  12.424  0.00  0.00    +0.000 A 
ATOM      5  C   UNL     1      45.689   4.370  13.054  0.00  0.00    +0.000 A 
ATOM      6  N   UNL     1      46.457   5.425  13.392  0.00  0.00    +0.000 NA
ATOM      7  C   UNL     1      46.003   6.659  13.100  0.00  0.00    +0.000 A 
ATOM      8  N   UNL     1      46.753   7.783  13.405  0.00  0.00    +0.000 N 
ATOM      9  N   UNL     1      44.808   6.871  12.515  0.00  0.00    +0.000 NA
ATOM     10  C   UNL     1      44.082   5.779  12.177  0.00  0.00    +0.000 A 
ATOM     11  H   UNL     1      46.220   8.631  13.265  0.00  0.00    +0.000 HD
BRANCH   4  13
ATOM     12  N   UNL     1      43.095   2.426  11.752  0.00  0.00    +0.000 NA
ATOM     13  C   UNL     1      43.716   3.359  12.054  0.00  0.00    +0.000 C 
ENDBRANCH   4  13
ENDBRANCH   1   8
BRANCH   1  14
ATOM     14  C   UNL     1      48.611   7.731  15.102  0.00  0.00    +0.000 A 
ATOM     15  C   UNL     1      48.260   8.729  16.024  0.00  0.00    +0.000 A 
ATOM     16  C   UNL     1      48.299   8.489  17.400  0.00  0.00    +0.000 A 
ATOM     17  C   UNL     1      48.686   7.240  17.875  0.00  0.00    +0.000 A 
ATOM     18  C   UNL     1      49.222   6.310  16.986  0.00  0.00    +0.000 A 
ATOM     19  C   UNL     1      49.192   6.557  15.612  0.00  0.00    +0.000 A 
BRANCH  17  20
ATOM     20  O   UNL     1      48.608   6.841  19.174  0.00  0.00    +0.000 OA
BRANCH  20  21
ATOM     21  C   UNL     1      47.587   5.911  19.526  0.00  0.00    +0.000 C 
ATOM     22  F   UNL     1      46.525   5.894  18.691  0.00  0.00    +0.000 F 
ATOM     23  F   UNL     1      48.115   4.665  19.539  0.00  0.00    +0.000 F 
ATOM     24  F   UNL     1      47.148   6.192  20.772  0.00  0.00    +0.000 F 
ENDBRANCH  20  21
ENDBRANCH  17  20
ENDBRANCH   1  14
TORSDOF 5
ENDMDL
MODEL 9
REMARK VINA RESULT:    -5.584      3.955      5.451
REMARK INTER + INTRA:          -7.574
REMARK INTER:                  -7.303
REMARK INTRA:                  -0.271
REMARK UNBOUND:                -0.357
REMARK  Name = 
REMARK  5 active torsions:
REMARK  status: ('A' for Active; 'I' for Inactive)
REMARK    1  A    between atoms: C_2  and  C_3
REMARK    2  A    between atoms: N_7  and  C_8
REMARK    3  A    between atoms: C_8  and  C_9
REMARK    4  A    between atoms: C_12  and  O_13
REMARK    5  A    between atoms: O_13  and  C_14
REMARK                            x       y       z     vdW  Elec       q    Type
REMARK                         _______ _______ _______ _____ _____    ______ ____
ROOT
ATOM      1  C   UNL     1      48.338   7.670  13.114  0.00  0.00    +0.000 C 
ATOM      2  C   UNL     1      49.517   7.292  12.220  0.00  0.00    +0.000 C 
ATOM      3  C   UNL     1      48.745   8.535  11.927  0.00  0.00    +0.000 C 
ENDROOT
BRANCH   1   8
ATOM      4  C   UNL     1      49.874   6.537  17.878  0.00  0.00    +0.000 A 
ATOM      5  C   UNL     1      50.231   6.088  16.639  0.00  0.00    +0.000 A 
ATOM      6  N   UNL     1      49.783   6.636  15.493  0.00  0.00    +0.000 NA
ATOM      7  C   UNL     1      48.947   7.689  15.578  0.00  0.00    +0.000 A 
ATOM      8  N   UNL     1      48.437   8.287  14.437  0.00  0.00    +0.000 N 
ATOM      9  N   UNL     1      48.573   8.222  16.758  0.00  0.00    +0.000 NA
ATOM     10  C   UNL     1      49.033   7.623  17.881  0.00  0.00    +0.000 A 
ATOM     11  H   UNL     1      47.953   9.147  14.657  0.00  0.00    +0.000 HD
BRANCH   4  13
ATOM     12  N   UNL     1      50.721   5.419  20.038  0.00  0.00    +0.000 NA
ATOM     13  C   UNL     1      50.338   5.918  19.063  0.00  0.00    +0.000 C 
ENDBRANCH   4  13
ENDBRANCH   1   8
BRANCH   1  14
ATOM     14  C   UNL     1      47.161   6.707  12.951  0.00  0.00    +0.000 A 
ATOM     15  C   UNL     1      46.178   6.908  11.969  0.00  0.00    +0.000 A 
ATOM     16  C   UNL     1      45.334   5.869  11.569  0.00  0.00    +0.000 A 
ATOM     17  C   UNL     1      45.465   4.608  12.141  0.00  0.00    +0.000 A 
ATOM     18  C   UNL     1      46.297   4.447  13.247  0.00  0.00    +0.000 A 
ATOM     19  C   UNL     1      47.132   5.490  13.654  0.00  0.00    +0.000 A 
BRANCH  17  20
ATOM     20  O   UNL     1      44.815   3.489  11.720  0.00  0.00    +0.000 OA
BRANCH  20  21
ATOM     21  C   UNL     1      43.419   3.386  11.990  0.00  0.00    +0.000 C 
ATOM     22  F   UNL     1      42.637   4.186  11.234  0.00  0.00    +0.000 F 
ATOM     23  F   UNL     1      43.024   2.109  11.778  0.00  0.00    +0.000 F 
ATOM     24  F   UNL     1      43.202   3.681  13.291  0.00  0.00    +0.000 F 
ENDBRANCH  20  21
ENDBRANCH  17  20
ENDBRANCH   1  14
TORSDOF 5
ENDMDL
