MODEL 1
REMARK VINA RESULT:    -7.549      0.000      0.000
REMARK INTER + INTRA:         -11.649
REMARK INTER:                 -10.197
REMARK INTRA:                  -1.452
REMARK UNBOUND:                -1.452
REMARK  Name = 
REMARK  6 active torsions:
REMARK  status: ('A' for Active; 'I' for Inactive)
REMARK    1  A    between atoms: C_2  and  C_3
REMARK    2  A    between atoms: N_10  and  C_11
REMARK    3  A    between atoms: C_11  and  C_12
REMARK    4  A    between atoms: C_15  and  C_16
REMARK    5  A    between atoms: C_16  and  N_17
REMARK    6  A    between atoms: C_18  and  C_20
REMARK                            x       y       z     vdW  Elec       q    Type
REMARK                         _______ _______ _______ _____ _____    ______ ____
ROOT
ATOM      1  C   UNL     1      46.061   7.787  11.891  0.00  0.00    +0.000 A 
ATOM      2  C   UNL     1      47.182   6.953  11.789  0.00  0.00    +0.000 A 
ATOM      3  C   UNL     1      48.316   7.184  12.578  0.00  0.00    +0.000 A 
ATOM      4  C   UNL     1      48.345   8.239  13.503  0.00  0.00    +0.000 A 
ATOM      5  C   UNL     1      47.225   9.073  13.602  0.00  0.00    +0.000 A 
ATOM      6  C   UNL     1      46.101   8.838  12.809  0.00  0.00    +0.000 A 
ATOM      7  F   UNL     1      45.040   9.649  12.938  0.00  0.00    +0.000 F 
ENDROOT
BRANCH   1   8
ATOM      8  C   UNL     1      44.846   7.552  11.039  0.00  0.00    +0.000 C 
BRANCH   8  16
ATOM      9  C   UNL     1      44.096   2.835  10.236  0.00  0.00    +0.000 A 
ATOM     10  C   UNL     1      44.509   1.975   9.234  0.00  0.00    +0.000 A 
ATOM     11  C   UNL     1      44.950   2.762   8.149  0.00  0.00    +0.000 A 
ATOM     12  C   UNL     1      44.820   4.080   8.524  0.00  0.00    +0.000 A 
ATOM     13  N   UNL     1      44.290   4.137   9.810  0.00  0.00    +0.000 N 
ATOM     14  C   UNL     1      43.974   5.309  10.527  0.00  0.00    +0.000 C 
ATOM     15  O   UNL     1      42.981   5.343  11.233  0.00  0.00    +0.000 OA
ATOM     16  N   UNL     1      44.925   6.283  10.348  0.00  0.00    +0.000 N 
ATOM     17  H   UNL     1      45.806   6.053   9.907  0.00  0.00    +0.000 HD
BRANCH   9  19
ATOM     18  N   UNL     1      43.306   2.210  12.613  0.00  0.00    +0.000 NA
ATOM     19  C   UNL     1      43.642   2.458  11.537  0.00  0.00    +0.000 C 
ENDBRANCH   9  19
ENDBRANCH   8  16
ENDBRANCH   1   8
BRANCH   4  20
ATOM     20  C   UNL     1      49.574   8.500  14.338  0.00  0.00    +0.000 C 
BRANCH  20  21
ATOM     21  N   UNL     1      49.744   7.484  15.346  0.00  0.00    +0.000 N 
ATOM     22  C   UNL     1      49.150   7.592  16.577  0.00  0.00    +0.000 C 
ATOM     23  O   UNL     1      48.560   8.610  16.932  0.00  0.00    +0.000 OA
ATOM     24  H   UNL     1      50.067   6.574  15.031  0.00  0.00    +0.000 HD
BRANCH  22  25
ATOM     25  C   UNL     1      49.261   6.427  17.464  0.00  0.00    +0.000 A 
ATOM     26  C   UNL     1      49.956   6.521  18.663  0.00  0.00    +0.000 A 
ATOM     27  S   UNL     1      49.889   5.097  19.603  0.00  0.00    +0.000 S 
ATOM     28  C   UNL     1      48.858   4.342  18.479  0.00  0.00    +0.000 A 
ATOM     29  N   UNL     1      48.296   3.131  18.743  0.00  0.00    +0.000 NA
ATOM     30  C   UNL     1      47.539   2.678  17.799  0.00  0.00    +0.000 A 
ATOM     31  N   UNL     1      47.333   3.302  16.597  0.00  0.00    +0.000 N 
ATOM     32  C   UNL     1      47.897   4.514  16.279  0.00  0.00    +0.000 A 
ATOM     33  O   UNL     1      47.752   5.013  15.167  0.00  0.00    +0.000 OA
ATOM     34  C   UNL     1      48.684   5.109  17.342  0.00  0.00    +0.000 A 
ATOM     35  H   UNL     1      46.779   2.865  15.874  0.00  0.00    +0.000 HD
ENDBRANCH  22  25
ENDBRANCH  20  21
ENDBRANCH   4  20
TORSDOF 6
ENDMDL
MODEL 2
REMARK VINA RESULT:    -7.267      3.134      3.693
REMARK INTER + INTRA:         -11.267
REMARK INTER:                 -10.520
REMARK INTRA:                  -0.747
REMARK UNBOUND:                -1.452
REMARK  Name = 
REMARK  6 active torsions:
REMARK  status: ('A' for Active; 'I' for Inactive)
REMARK    1  A    between atoms: C_2  and  C_3
REMARK    2  A    between atoms: N_10  and  C_11
REMARK    3  A    between atoms: C_11  and  C_12
REMARK    4  A    between atoms: C_15  and  C_16
REMARK    5  A    between atoms: C_16  and  N_17
REMARK    6  A    between atoms: C_18  and  C_20
REMARK                            x       y       z     vdW  Elec       q    Type
REMARK                         _______ _______ _______ _____ _____    ______ ____
ROOT
ATOM      1  C   UNL     1      47.109   6.393  13.294  0.00  0.00    +0.000 A 
ATOM      2  C   UNL     1      46.541   5.167  13.666  0.00  0.00    +0.000 A 
ATOM      3  C   UNL     1      46.900   4.553  14.872  0.00  0.00    +0.000 A 
ATOM      4  C   UNL     1      47.818   5.160  15.743  0.00  0.00    +0.000 A 
ATOM      5  C   UNL     1      48.387   6.383  15.368  0.00  0.00    +0.000 A 
ATOM      6  C   UNL     1      48.025   6.987  14.164  0.00  0.00    +0.000 A 
ATOM      7  F   UNL     1      48.581   8.165  13.841  0.00  0.00    +0.000 F 
ENDROOT
BRANCH   1   8
ATOM      8  C   UNL     1      46.737   7.052  11.996  0.00  0.00    +0.000 C 
BRANCH   8  16
ATOM      9  C   UNL     1      44.482   3.393   9.764  0.00  0.00    +0.000 A 
ATOM     10  C   UNL     1      44.729   2.717   8.582  0.00  0.00    +0.000 A 
ATOM     11  C   UNL     1      45.618   3.504   7.818  0.00  0.00    +0.000 A 
ATOM     12  C   UNL     1      45.910   4.625   8.560  0.00  0.00    +0.000 A 
ATOM     13  N   UNL     1      45.211   4.569   9.763  0.00  0.00    +0.000 N 
ATOM     14  C   UNL     1      45.218   5.552  10.774  0.00  0.00    +0.000 C 
ATOM     15  O   UNL     1      44.194   5.805  11.384  0.00  0.00    +0.000 OA
ATOM     16  N   UNL     1      46.473   6.073  10.964  0.00  0.00    +0.000 N 
ATOM     17  H   UNL     1      47.275   5.625  10.539  0.00  0.00    +0.000 HD
BRANCH   9  19
ATOM     18  N   UNL     1      43.044   2.479  11.703  0.00  0.00    +0.000 NA
ATOM     19  C   UNL     1      43.691   2.921  10.855  0.00  0.00    +0.000 C 
ENDBRANCH   9  19
ENDBRANCH   8  16
ENDBRANCH   1   8
BRANCH   4  20
ATOM     20  C   UNL     1      48.220   4.487  17.031  0.00  0.00    +0.000 C 
BRANCH  20  21
ATOM     21  N   UNL     1      49.638   4.226  17.061  0.00  0.00    +0.000 N 
ATOM     22  C   UNL     1      50.356   4.318  18.225  0.00  0.00    +0.000 C 
ATOM     23  O   UNL     1      49.867   4.751  19.265  0.00  0.00    +0.000 OA
ATOM     24  H   UNL     1      50.025   3.706  16.280  0.00  0.00    +0.000 HD
BRANCH  22  25
ATOM     25  C   UNL     1      51.756   3.876  18.168  0.00  0.00    +0.000 A 
ATOM     26  C   UNL     1      52.780   4.741  18.531  0.00  0.00    +0.000 A 
ATOM     27  S   UNL     1      54.327   4.018  18.497  0.00  0.00    +0.000 S 
ATOM     28  C   UNL     1      53.668   2.505  18.081  0.00  0.00    +0.000 A 
ATOM     29  N   UNL     1      54.444   1.389  18.032  0.00  0.00    +0.000 NA
ATOM     30  C   UNL     1      53.810   0.314  17.699  0.00  0.00    +0.000 A 
ATOM     31  N   UNL     1      52.483   0.262  17.365  0.00  0.00    +0.000 N 
ATOM     32  C   UNL     1      51.666   1.367  17.380  0.00  0.00    +0.000 A 
ATOM     33  O   UNL     1      50.500   1.303  17.006  0.00  0.00    +0.000 OA
ATOM     34  C   UNL     1      52.310   2.585  17.835  0.00  0.00    +0.000 A 
ATOM     35  H   UNL     1      52.060  -0.600  17.053  0.00  0.00    +0.000 HD
ENDBRANCH  22  25
ENDBRANCH  20  21
ENDBRANCH   4  20
TORSDOF 6
ENDMDL
MODEL 3
REMARK VINA RESULT:    -6.888      4.371      8.891
REMARK INTER + INTRA:         -10.756
REMARK INTER:                  -9.680
REMARK INTRA:                  -1.076
REMARK UNBOUND:                -1.452
REMARK  Name = 
REMARK  6 active torsions:
REMARK  status: ('A' for Active; 'I' for Inactive)
REMARK    1  A    between atoms: C_2  and  C_3
REMARK    2  A    between atoms: N_10  and  C_11
REMARK    3  A    between atoms: C_11  and  C_12
REMARK    4  A    between atoms: C_15  and  C_16
REMARK    5  A    between atoms: C_16  and  N_17
REMARK    6  A    between atoms: C_18  and  C_20
REMARK                            x       y       z     vdW  Elec       q    Type
REMARK                         _______ _______ _______ _____ _____    ______ ____
ROOT
ATOM      1  C   UNL     1      49.696   4.489  17.383  0.00  0.00    +0.000 A 
ATOM      2  C   UNL     1      50.502   5.570  17.004  0.00  0.00    +0.000 A 
ATOM      3  C   UNL     1      50.047   6.500  16.060  0.00  0.00    +0.000 A 
ATOM      4  C   UNL     1      48.770   6.382  15.491  0.00  0.00    +0.000 A 
ATOM      5  C   UNL     1      47.967   5.299  15.869  0.00  0.00    +0.000 A 
ATOM      6  C   UNL     1      48.429   4.375  16.808  0.00  0.00    +0.000 A 
ATOM      7  F   UNL     1      47.630   3.356  17.157  0.00  0.00    +0.000 F 
ENDROOT
BRANCH   1   8
ATOM      8  C   UNL     1      50.182   3.482  18.387  0.00  0.00    +0.000 C 
BRANCH   8  16
ATOM      9  C   UNL     1      54.323   0.991  18.076  0.00  0.00    +0.000 A 
ATOM     10  C   UNL     1      55.649   1.377  17.992  0.00  0.00    +0.000 A 
ATOM     11  C   UNL     1      55.674   2.740  17.624  0.00  0.00    +0.000 A 
ATOM     12  C   UNL     1      54.367   3.156  17.518  0.00  0.00    +0.000 A 
ATOM     13  N   UNL     1      53.524   2.083  17.791  0.00  0.00    +0.000 N 
ATOM     14  C   UNL     1      52.115   2.102  17.746  0.00  0.00    +0.000 C 
ATOM     15  O   UNL     1      51.506   1.134  17.323  0.00  0.00    +0.000 OA
ATOM     16  N   UNL     1      51.607   3.265  18.268  0.00  0.00    +0.000 N 
ATOM     17  H   UNL     1      52.213   3.895  18.779  0.00  0.00    +0.000 HD
BRANCH   9  19
ATOM     18  N   UNL     1      53.491  -1.318  18.879  0.00  0.00    +0.000 NA
ATOM     19  C   UNL     1      53.843  -0.290  18.488  0.00  0.00    +0.000 C 
ENDBRANCH   9  19
ENDBRANCH   8  16
ENDBRANCH   1   8
BRANCH   4  20
ATOM     20  C   UNL     1      48.290   7.372  14.459  0.00  0.00    +0.000 C 
BRANCH  20  21
ATOM     21  N   UNL     1      46.986   7.012  13.962  0.00  0.00    +0.000 N 
ATOM     22  C   UNL     1      46.765   6.796  12.626  0.00  0.00    +0.000 C 
ATOM     23  O   UNL     1      47.622   7.024  11.776  0.00  0.00    +0.000 OA
ATOM     24  H   UNL     1      46.320   6.651  14.638  0.00  0.00    +0.000 HD
BRANCH  22  25
ATOM     25  C   UNL     1      45.441   6.282  12.254  0.00  0.00    +0.000 A 
ATOM     26  C   UNL     1      44.483   7.132  11.717  0.00  0.00    +0.000 A 
ATOM     27  S   UNL     1      43.046   6.335  11.254  0.00  0.00    +0.000 S 
ATOM     28  C   UNL     1      43.691   4.817  11.676  0.00  0.00    +0.000 A 
ATOM     29  N   UNL     1      43.021   3.666  11.397  0.00  0.00    +0.000 NA
ATOM     30  C   UNL     1      43.629   2.591  11.778  0.00  0.00    +0.000 A 
ATOM     31  N   UNL     1      44.820   2.566  12.454  0.00  0.00    +0.000 N 
ATOM     32  C   UNL     1      45.520   3.704  12.775  0.00  0.00    +0.000 A 
ATOM     33  O   UNL     1      46.548   3.653  13.443  0.00  0.00    +0.000 OA
ATOM     34  C   UNL     1      44.925   4.934  12.289  0.00  0.00    +0.000 A 
ATOM     35  H   UNL     1      45.213   1.694  12.779  0.00  0.00    +0.000 HD
ENDBRANCH  22  25
ENDBRANCH  20  21
ENDBRANCH   4  20
TORSDOF 6
ENDMDL
MODEL 4
REMARK VINA RESULT:    -6.883      1.933      2.327
REMARK INTER + INTRA:         -10.749
REMARK INTER:                  -9.723
REMARK INTRA:                  -1.026
REMARK UNBOUND:                -1.452
REMARK  Name = 
REMARK  6 active torsions:
REMARK  status: ('A' for Active; 'I' for Inactive)
REMARK    1  A    between atoms: C_2  and  C_3
REMARK    2  A    between atoms: N_10  and  C_11
REMARK    3  A    between atoms: C_11  and  C_12
REMARK    4  A    between atoms: C_15  and  C_16
REMARK    5  A    between atoms: C_16  and  N_17
REMARK    6  A    between atoms: C_18  and  C_20
REMARK                            x       y       z     vdW  Elec       q    Type
REMARK                         _______ _______ _______ _____ _____    ______ ____
ROOT
ATOM      1  C   UNL     1      46.111   7.756  12.217  0.00  0.00    +0.000 A 
ATOM      2  C   UNL     1      46.935   6.663  12.514  0.00  0.00    +0.000 A 
ATOM      3  C   UNL     1      48.070   6.825  13.319  0.00  0.00    +0.000 A 
ATOM      4  C   UNL     1      48.394   8.078  13.862  0.00  0.00    +0.000 A 
ATOM      5  C   UNL     1      47.571   9.170  13.561  0.00  0.00    +0.000 A 
ATOM      6  C   UNL     1      46.443   9.001  12.757  0.00  0.00    +0.000 A 
ATOM      7  F   UNL     1      45.670  10.065  12.498  0.00  0.00    +0.000 F 
ENDROOT
BRANCH   1   8
ATOM      8  C   UNL     1      44.899   7.592  11.345  0.00  0.00    +0.000 C 
BRANCH   8  16
ATOM      9  C   UNL     1      44.105   2.950  10.213  0.00  0.00    +0.000 A 
ATOM     10  C   UNL     1      44.516   2.157   9.157  0.00  0.00    +0.000 A 
ATOM     11  C   UNL     1      44.974   3.012   8.132  0.00  0.00    +0.000 A 
ATOM     12  C   UNL     1      44.855   4.302   8.596  0.00  0.00    +0.000 A 
ATOM     13  N   UNL     1      44.316   4.276   9.880  0.00  0.00    +0.000 N 
ATOM     14  C   UNL     1      44.007   5.400  10.673  0.00  0.00    +0.000 C 
ATOM     15  O   UNL     1      43.009   5.395  11.373  0.00  0.00    +0.000 OA
ATOM     16  N   UNL     1      44.969   6.373  10.570  0.00  0.00    +0.000 N 
ATOM     17  H   UNL     1      45.852   6.164  10.120  0.00  0.00    +0.000 HD
BRANCH   9  19
ATOM     18  N   UNL     1      43.299   2.163  12.536  0.00  0.00    +0.000 NA
ATOM     19  C   UNL     1      43.636   2.489  11.481  0.00  0.00    +0.000 C 
ENDBRANCH   9  19
ENDBRANCH   8  16
ENDBRANCH   1   8
BRANCH   4  20
ATOM     20  C   UNL     1      49.628   8.256  14.710  0.00  0.00    +0.000 C 
BRANCH  20  21
ATOM     21  N   UNL     1      49.984   7.027  15.375  0.00  0.00    +0.000 N 
ATOM     22  C   UNL     1      49.423   6.675  16.575  0.00  0.00    +0.000 C 
ATOM     23  O   UNL     1      48.696   7.437  17.206  0.00  0.00    +0.000 OA
ATOM     24  H   UNL     1      50.432   6.313  14.809  0.00  0.00    +0.000 HD
BRANCH  22  25
ATOM     25  C   UNL     1      49.740   5.332  17.078  0.00  0.00    +0.000 A 
ATOM     26  C   UNL     1      48.741   4.373  17.198  0.00  0.00    +0.000 A 
ATOM     27  S   UNL     1      49.318   2.847  17.701  0.00  0.00    +0.000 S 
ATOM     28  C   UNL     1      50.930   3.395  17.690  0.00  0.00    +0.000 A 
ATOM     29  N   UNL     1      51.966   2.537  17.891  0.00  0.00    +0.000 NA
ATOM     30  C   UNL     1      53.132   3.093  17.859  0.00  0.00    +0.000 A 
ATOM     31  N   UNL     1      53.352   4.434  17.692  0.00  0.00    +0.000 N 
ATOM     32  C   UNL     1      52.336   5.340  17.507  0.00  0.00    +0.000 A 
ATOM     33  O   UNL     1      52.560   6.544  17.432  0.00  0.00    +0.000 OA
ATOM     34  C   UNL     1      51.011   4.753  17.444  0.00  0.00    +0.000 A 
ATOM     35  H   UNL     1      54.286   4.816  17.739  0.00  0.00    +0.000 HD
ENDBRANCH  22  25
ENDBRANCH  20  21
ENDBRANCH   4  20
TORSDOF 6
ENDMDL
MODEL 5
REMARK VINA RESULT:    -6.778      1.770      2.065
REMARK INTER + INTRA:         -10.607
REMARK INTER:                  -9.429
REMARK INTRA:                  -1.178
REMARK UNBOUND:                -1.452
REMARK  Name = 
REMARK  6 active torsions:
REMARK  status: ('A' for Active; 'I' for Inactive)
REMARK    1  A    between atoms: C_2  and  C_3
REMARK    2  A    between atoms: N_10  and  C_11
REMARK    3  A    between atoms: C_11  and  C_12
REMARK    4  A    between atoms: C_15  and  C_16
REMARK    5  A    between atoms: C_16  and  N_17
REMARK    6  A    between atoms: C_18  and  C_20
REMARK                            x       y       z     vdW  Elec       q    Type
REMARK                         _______ _______ _______ _____ _____    ______ ____
ROOT
ATOM      1  C   UNL     1      46.900   7.581  12.351  0.00  0.00    +0.000 A 
ATOM      2  C   UNL     1      47.861   8.528  11.972  0.00  0.00    +0.000 A 
ATOM      3  C   UNL     1      49.089   8.603  12.639  0.00  0.00    +0.000 A 
ATOM      4  C   UNL     1      49.394   7.720  13.686  0.00  0.00    +0.000 A 
ATOM      5  C   UNL     1      48.432   6.776  14.067  0.00  0.00    +0.000 A 
ATOM      6  C   UNL     1      47.209   6.709  13.397  0.00  0.00    +0.000 A 
ATOM      7  F   UNL     1      46.315   5.786  13.780  0.00  0.00    +0.000 F 
ENDROOT
BRANCH   1   8
ATOM      8  C   UNL     1      45.576   7.502  11.646  0.00  0.00    +0.000 C 
BRANCH   8  16
ATOM      9  C   UNL     1      44.192   3.067  10.281  0.00  0.00    +0.000 A 
ATOM     10  C   UNL     1      44.505   2.279   9.188  0.00  0.00    +0.000 A 
ATOM     11  C   UNL     1      45.079   3.117   8.208  0.00  0.00    +0.000 A 
ATOM     12  C   UNL     1      45.126   4.387   8.736  0.00  0.00    +0.000 A 
ATOM     13  N   UNL     1      44.577   4.368  10.015  0.00  0.00    +0.000 N 
ATOM     14  C   UNL     1      44.411   5.482  10.864  0.00  0.00    +0.000 C 
ATOM     15  O   UNL     1      43.415   5.574  11.560  0.00  0.00    +0.000 OA
ATOM     16  N   UNL     1      45.493   6.325  10.810  0.00  0.00    +0.000 N 
ATOM     17  H   UNL     1      46.344   6.024  10.352  0.00  0.00    +0.000 HD
BRANCH   9  19
ATOM     18  N   UNL     1      43.286   2.215  12.544  0.00  0.00    +0.000 NA
ATOM     19  C   UNL     1      43.657   2.609  11.524  0.00  0.00    +0.000 C 
ENDBRANCH   9  19
ENDBRANCH   8  16
ENDBRANCH   1   8
BRANCH   4  20
ATOM     20  C   UNL     1      50.709   7.815  14.419  0.00  0.00    +0.000 C 
BRANCH  20  21
ATOM     21  N   UNL     1      50.604   7.267  15.748  0.00  0.00    +0.000 N 
ATOM     22  C   UNL     1      51.701   6.770  16.404  0.00  0.00    +0.000 C 
ATOM     23  O   UNL     1      52.792   6.644  15.853  0.00  0.00    +0.000 OA
ATOM     24  H   UNL     1      49.778   7.514  16.283  0.00  0.00    +0.000 HD
BRANCH  22  25
ATOM     25  C   UNL     1      51.507   6.386  17.808  0.00  0.00    +0.000 A 
ATOM     26  C   UNL     1      52.307   6.933  18.803  0.00  0.00    +0.000 A 
ATOM     27  S   UNL     1      51.866   6.445  20.378  0.00  0.00    +0.000 S 
ATOM     28  C   UNL     1      50.539   5.557  19.788  0.00  0.00    +0.000 A 
ATOM     29  N   UNL     1      49.637   4.992  20.635  0.00  0.00    +0.000 NA
ATOM     30  C   UNL     1      48.685   4.346  20.046  0.00  0.00    +0.000 A 
ATOM     31  N   UNL     1      48.581   4.174  18.691  0.00  0.00    +0.000 N 
ATOM     32  C   UNL     1      49.480   4.708  17.800  0.00  0.00    +0.000 A 
ATOM     33  O   UNL     1      49.400   4.476  16.598  0.00  0.00    +0.000 OA
ATOM     34  C   UNL     1      50.518   5.520  18.406  0.00  0.00    +0.000 A 
ATOM     35  H   UNL     1      47.846   3.605  18.297  0.00  0.00    +0.000 HD
ENDBRANCH  22  25
ENDBRANCH  20  21
ENDBRANCH   4  20
TORSDOF 6
ENDMDL
MODEL 6
REMARK VINA RESULT:    -6.543      3.813      8.616
REMARK INTER + INTRA:         -10.290
REMARK INTER:                  -9.390
REMARK INTRA:                  -0.901
REMARK UNBOUND:                -1.452
REMARK  Name = 
REMARK  6 active torsions:
REMARK  status: ('A' for Active; 'I' for Inactive)
REMARK    1  A    between atoms: C_2  and  C_3
REMARK    2  A    between atoms: N_10  and  C_11
REMARK    3  A    between atoms: C_11  and  C_12
REMARK    4  A    between atoms: C_15  and  C_16
REMARK    5  A    between atoms: C_16  and  N_17
REMARK    6  A    between atoms: C_18  and  C_20
REMARK                            x       y       z     vdW  Elec       q    Type
REMARK                         _______ _______ _______ _____ _____    ______ ____
ROOT
ATOM      1  C   UNL     1      50.259   6.973  15.792  0.00  0.00    +0.000 A 
ATOM      2  C   UNL     1      50.916   7.717  14.803  0.00  0.00    +0.000 A 
ATOM      3  C   UNL     1      50.266   8.042  13.606  0.00  0.00    +0.000 A 
ATOM      4  C   UNL     1      48.938   7.650  13.380  0.00  0.00    +0.000 A 
ATOM      5  C   UNL     1      48.283   6.904  14.368  0.00  0.00    +0.000 A 
ATOM      6  C   UNL     1      48.939   6.582  15.557  0.00  0.00    +0.000 A 
ATOM      7  F   UNL     1      48.279   5.876  16.486  0.00  0.00    +0.000 F 
ENDROOT
BRANCH   1   8
ATOM      8  C   UNL     1      50.954   6.611  17.073  0.00  0.00    +0.000 C 
BRANCH   8  16
ATOM      9  C   UNL     1      53.208   2.558  18.469  0.00  0.00    +0.000 A 
ATOM     10  C   UNL     1      53.061   1.230  18.110  0.00  0.00    +0.000 A 
ATOM     11  C   UNL     1      51.814   1.097  17.462  0.00  0.00    +0.000 A 
ATOM     12  C   UNL     1      51.243   2.348  17.420  0.00  0.00    +0.000 A 
ATOM     13  N   UNL     1      52.094   3.258  18.042  0.00  0.00    +0.000 N 
ATOM     14  C   UNL     1      51.843   4.632  18.233  0.00  0.00    +0.000 C 
ATOM     15  O   UNL     1      52.193   5.177  19.266  0.00  0.00    +0.000 OA
ATOM     16  N   UNL     1      51.248   5.196  17.133  0.00  0.00    +0.000 N 
ATOM     17  H   UNL     1      51.204   4.680  16.263  0.00  0.00    +0.000 HD
BRANCH   9  19
ATOM     18  N   UNL     1      55.316   3.613  19.521  0.00  0.00    +0.000 NA
ATOM     19  C   UNL     1      54.356   3.143  19.084  0.00  0.00    +0.000 C 
ENDBRANCH   9  19
ENDBRANCH   8  16
ENDBRANCH   1   8
BRANCH   4  20
ATOM     20  C   UNL     1      48.245   7.982  12.082  0.00  0.00    +0.000 C 
BRANCH  20  21
ATOM     21  N   UNL     1      47.495   6.854  11.589  0.00  0.00    +0.000 N 
ATOM     22  C   UNL     1      46.140   6.927  11.395  0.00  0.00    +0.000 C 
ATOM     23  O   UNL     1      45.479   7.899  11.752  0.00  0.00    +0.000 OA
ATOM     24  H   UNL     1      48.022   6.118  11.129  0.00  0.00    +0.000 HD
BRANCH  22  25
ATOM     25  C   UNL     1      45.508   5.774  10.741  0.00  0.00    +0.000 A 
ATOM     26  C   UNL     1      45.777   5.489   9.409  0.00  0.00    +0.000 A 
ATOM     27  S   UNL     1      45.033   4.055   8.855  0.00  0.00    +0.000 S 
ATOM     28  C   UNL     1      44.401   3.725  10.401  0.00  0.00    +0.000 A 
ATOM     29  N   UNL     1      43.765   2.551  10.664  0.00  0.00    +0.000 NA
ATOM     30  C   UNL     1      43.335   2.440  11.878  0.00  0.00    +0.000 A 
ATOM     31  N   UNL     1      43.440   3.413  12.835  0.00  0.00    +0.000 N 
ATOM     32  C   UNL     1      44.055   4.621  12.607  0.00  0.00    +0.000 A 
ATOM     33  O   UNL     1      44.069   5.500  13.462  0.00  0.00    +0.000 OA
ATOM     34  C   UNL     1      44.635   4.760  11.286  0.00  0.00    +0.000 A 
ATOM     35  H   UNL     1      43.028   3.288  13.748  0.00  0.00    +0.000 HD
ENDBRANCH  22  25
ENDBRANCH  20  21
ENDBRANCH   4  20
TORSDOF 6
ENDMDL
MODEL 7
REMARK VINA RESULT:    -6.537      5.516      9.957
REMARK INTER + INTRA:         -10.282
REMARK INTER:                  -9.714
REMARK INTRA:                  -0.568
REMARK UNBOUND:                -1.452
REMARK  Name = 
REMARK  6 active torsions:
REMARK  status: ('A' for Active; 'I' for Inactive)
REMARK    1  A    between atoms: C_2  and  C_3
REMARK    2  A    between atoms: N_10  and  C_11
REMARK    3  A    between atoms: C_11  and  C_12
REMARK    4  A    between atoms: C_15  and  C_16
REMARK    5  A    between atoms: C_16  and  N_17
REMARK    6  A    between atoms: C_18  and  C_20
REMARK                            x       y       z     vdW  Elec       q    Type
REMARK                         _______ _______ _______ _____ _____    ______ ____
ROOT
ATOM      1  C   UNL     1      51.699   2.681  17.766  0.00  0.00    +0.000 A 
ATOM      2  C   UNL     1      50.800   1.764  17.204  0.00  0.00    +0.000 A 
ATOM      3  C   UNL     1      49.460   2.115  17.000  0.00  0.00    +0.000 A 
ATOM      4  C   UNL     1      48.993   3.396  17.332  0.00  0.00    +0.000 A 
ATOM      5  C   UNL     1      49.892   4.310  17.896  0.00  0.00    +0.000 A 
ATOM      6  C   UNL     1      51.226   3.951  18.098  0.00  0.00    +0.000 A 
ATOM      7  F   UNL     1      52.062   4.854  18.630  0.00  0.00    +0.000 F 
ENDROOT
BRANCH   1   8
ATOM      8  C   UNL     1      53.135   2.306  17.997  0.00  0.00    +0.000 C 
BRANCH   8  16
ATOM      9  C   UNL     1      54.765  -2.226  17.497  0.00  0.00    +0.000 A 
ATOM     10  C   UNL     1      54.476  -3.407  18.157  0.00  0.00    +0.000 A 
ATOM     11  C   UNL     1      53.826  -3.074  19.365  0.00  0.00    +0.000 A 
ATOM     12  C   UNL     1      53.712  -1.703  19.400  0.00  0.00    +0.000 A 
ATOM     13  N   UNL     1      54.292  -1.169  18.252  0.00  0.00    +0.000 N 
ATOM     14  C   UNL     1      54.407   0.202  17.942  0.00  0.00    +0.000 C 
ATOM     15  O   UNL     1      55.412   0.619  17.392  0.00  0.00    +0.000 OA
ATOM     16  N   UNL     1      53.273   0.895  18.282  0.00  0.00    +0.000 N 
ATOM     17  H   UNL     1      52.431   0.393  18.536  0.00  0.00    +0.000 HD
BRANCH   9  19
ATOM     18  N   UNL     1      55.775  -1.999  15.132  0.00  0.00    +0.000 NA
ATOM     19  C   UNL     1      55.358  -2.107  16.203  0.00  0.00    +0.000 C 
ENDBRANCH   9  19
ENDBRANCH   8  16
ENDBRANCH   1   8
BRANCH   4  20
ATOM     20  C   UNL     1      47.545   3.767  17.132  0.00  0.00    +0.000 C 
BRANCH  20  21
ATOM     21  N   UNL     1      47.381   4.627  15.986  0.00  0.00    +0.000 N 
ATOM     22  C   UNL     1      47.262   4.115  14.720  0.00  0.00    +0.000 C 
ATOM     23  O   UNL     1      47.420   2.921  14.479  0.00  0.00    +0.000 OA
ATOM     24  H   UNL     1      47.075   5.578  16.167  0.00  0.00    +0.000 HD
BRANCH  22  25
ATOM     25  C   UNL     1      46.940   5.073  13.654  0.00  0.00    +0.000 A 
ATOM     26  C   UNL     1      47.582   6.303  13.599  0.00  0.00    +0.000 A 
ATOM     27  S   UNL     1      47.153   7.236  12.235  0.00  0.00    +0.000 S 
ATOM     28  C   UNL     1      46.164   5.990  11.630  0.00  0.00    +0.000 A 
ATOM     29  N   UNL     1      45.595   6.079  10.397  0.00  0.00    +0.000 NA
ATOM     30  C   UNL     1      44.868   5.062  10.072  0.00  0.00    +0.000 A 
ATOM     31  N   UNL     1      44.620   3.987  10.884  0.00  0.00    +0.000 N 
ATOM     32  C   UNL     1      45.156   3.866  12.144  0.00  0.00    +0.000 A 
ATOM     33  O   UNL     1      44.857   2.927  12.875  0.00  0.00    +0.000 OA
ATOM     34  C   UNL     1      46.053   4.940  12.522  0.00  0.00    +0.000 A 
ATOM     35  H   UNL     1      43.991   3.252  10.594  0.00  0.00    +0.000 HD
ENDBRANCH  22  25
ENDBRANCH  20  21
ENDBRANCH   4  20
TORSDOF 6
ENDMDL
MODEL 8
REMARK VINA RESULT:    -6.459      4.762      7.960
REMARK INTER + INTRA:         -10.176
REMARK INTER:                  -9.115
REMARK INTRA:                  -1.061
REMARK UNBOUND:                -1.452
REMARK  Name = 
REMARK  6 active torsions:
REMARK  status: ('A' for Active; 'I' for Inactive)
REMARK    1  A    between atoms: C_2  and  C_3
REMARK    2  A    between atoms: N_10  and  C_11
REMARK    3  A    between atoms: C_11  and  C_12
REMARK    4  A    between atoms: C_15  and  C_16
REMARK    5  A    between atoms: C_16  and  N_17
REMARK    6  A    between atoms: C_18  and  C_20
REMARK                            x       y       z     vdW  Elec       q    Type
REMARK                         _______ _______ _______ _____ _____    ______ ____
ROOT
ATOM      1  C   UNL     1      50.110   9.184  11.393  0.00  0.00    +0.000 A 
ATOM      2  C   UNL     1      49.928   8.017  12.146  0.00  0.00    +0.000 A 
ATOM      3  C   UNL     1      48.696   7.747  12.754  0.00  0.00    +0.000 A 
ATOM      4  C   UNL     1      47.612   8.625  12.604  0.00  0.00    +0.000 A 
ATOM      5  C   UNL     1      47.796   9.793  11.853  0.00  0.00    +0.000 A 
ATOM      6  C   UNL     1      49.028  10.056  11.253  0.00  0.00    +0.000 A 
ATOM      7  F   UNL     1      49.168  11.177  10.531  0.00  0.00    +0.000 F 
ENDROOT
BRANCH   1   8
ATOM      8  C   UNL     1      51.433   9.485  10.748  0.00  0.00    +0.000 C 
BRANCH   8  16
ATOM      9  C   UNL     1      53.927   5.708   9.027  0.00  0.00    +0.000 A 
ATOM     10  C   UNL     1      54.726   4.753   9.632  0.00  0.00    +0.000 A 
ATOM     11  C   UNL     1      55.063   5.231  10.917  0.00  0.00    +0.000 A 
ATOM     12  C   UNL     1      54.443   6.450  11.073  0.00  0.00    +0.000 A 
ATOM     13  N   UNL     1      53.741   6.756   9.909  0.00  0.00    +0.000 N 
ATOM     14  C   UNL     1      53.010   7.937   9.668  0.00  0.00    +0.000 C 
ATOM     15  O   UNL     1      53.021   8.444   8.559  0.00  0.00    +0.000 OA
ATOM     16  N   UNL     1      52.308   8.334  10.778  0.00  0.00    +0.000 N 
ATOM     17  H   UNL     1      52.218   7.708  11.569  0.00  0.00    +0.000 HD
BRANCH   9  19
ATOM     18  N   UNL     1      52.747   5.536   6.736  0.00  0.00    +0.000 NA
ATOM     19  C   UNL     1      53.306   5.596   7.745  0.00  0.00    +0.000 C 
ENDBRANCH   9  19
ENDBRANCH   8  16
ENDBRANCH   1   8
BRANCH   4  20
ATOM     20  C   UNL     1      46.291   8.345  13.276  0.00  0.00    +0.000 C 
BRANCH  20  21
ATOM     21  N   UNL     1      45.847   7.000  13.009  0.00  0.00    +0.000 N 
ATOM     22  C   UNL     1      44.944   6.730  12.013  0.00  0.00    +0.000 C 
ATOM     23  O   UNL     1      44.371   7.620  11.391  0.00  0.00    +0.000 OA
ATOM     24  H   UNL     1      46.420   6.246  13.375  0.00  0.00    +0.000 HD
BRANCH  22  25
ATOM     25  C   UNL     1      44.687   5.312  11.728  0.00  0.00    +0.000 A 
ATOM     26  C   UNL     1      44.036   4.516  12.662  0.00  0.00    +0.000 A 
ATOM     27  S   UNL     1      43.736   2.927  12.112  0.00  0.00    +0.000 S 
ATOM     28  C   UNL     1      44.388   3.280  10.579  0.00  0.00    +0.000 A 
ATOM     29  N   UNL     1      44.313   2.382   9.560  0.00  0.00    +0.000 NA
ATOM     30  C   UNL     1      44.853   2.783   8.456  0.00  0.00    +0.000 A 
ATOM     31  N   UNL     1      45.501   3.979   8.294  0.00  0.00    +0.000 N 
ATOM     32  C   UNL     1      45.619   4.906   9.302  0.00  0.00    +0.000 A 
ATOM     33  O   UNL     1      46.267   5.936   9.147  0.00  0.00    +0.000 OA
ATOM     34  C   UNL     1      44.950   4.542  10.536  0.00  0.00    +0.000 A 
ATOM     35  H   UNL     1      45.956   4.207   7.423  0.00  0.00    +0.000 HD
ENDBRANCH  22  25
ENDBRANCH  20  21
ENDBRANCH   4  20
TORSDOF 6
ENDMDL
MODEL 9
REMARK VINA RESULT:    -4.925      5.539      9.883
REMARK INTER + INTRA:          -8.104
REMARK INTER:                  -7.030
REMARK INTRA:                  -1.074
REMARK UNBOUND:                -1.452
REMARK  Name = 
REMARK  6 active torsions:
REMARK  status: ('A' for Active; 'I' for Inactive)
REMARK    1  A    between atoms: C_2  and  C_3
REMARK    2  A    between atoms: N_10  and  C_11
REMARK    3  A    between atoms: C_11  and  C_12
REMARK    4  A    between atoms: C_15  and  C_16
REMARK    5  A    between atoms: C_16  and  N_17
REMARK    6  A    between atoms: C_18  and  C_20
REMARK                            x       y       z     vdW  Elec       q    Type
REMARK                         _______ _______ _______ _____ _____    ______ ____
ROOT
ATOM      1  C   UNL     1      51.593   2.671  17.732  0.00  0.00    +0.000 A 
ATOM      2  C   UNL     1      50.743   1.787  17.053  0.00  0.00    +0.000 A 
ATOM      3  C   UNL     1      49.403   2.122  16.824  0.00  0.00    +0.000 A 
ATOM      4  C   UNL     1      48.887   3.356  17.248  0.00  0.00    +0.000 A 
ATOM      5  C   UNL     1      49.737   4.237  17.930  0.00  0.00    +0.000 A 
ATOM      6  C   UNL     1      51.070   3.894  18.156  0.00  0.00    +0.000 A 
ATOM      7  F   UNL     1      51.859   4.766  18.802  0.00  0.00    +0.000 F 
ENDROOT
BRANCH   1   8
ATOM      8  C   UNL     1      53.028   2.313  17.991  0.00  0.00    +0.000 C 
BRANCH   8  16
ATOM      9  C   UNL     1      54.712  -2.208  17.562  0.00  0.00    +0.000 A 
ATOM     10  C   UNL     1      54.422  -3.386  18.227  0.00  0.00    +0.000 A 
ATOM     11  C   UNL     1      53.747  -3.049  19.419  0.00  0.00    +0.000 A 
ATOM     12  C   UNL     1      53.618  -1.679  19.440  0.00  0.00    +0.000 A 
ATOM     13  N   UNL     1      54.214  -1.149  18.299  0.00  0.00    +0.000 N 
ATOM     14  C   UNL     1      54.322   0.220  17.978  0.00  0.00    +0.000 C 
ATOM     15  O   UNL     1      55.332   0.643  17.444  0.00  0.00    +0.000 OA
ATOM     16  N   UNL     1      53.175   0.905  18.291  0.00  0.00    +0.000 N 
ATOM     17  H   UNL     1      52.333   0.396  18.534  0.00  0.00    +0.000 HD
BRANCH   9  19
ATOM     18  N   UNL     1      55.775  -2.041  15.215  0.00  0.00    +0.000 NA
ATOM     19  C   UNL     1      55.328  -2.094  16.278  0.00  0.00    +0.000 C 
ENDBRANCH   9  19
ENDBRANCH   8  16
ENDBRANCH   1   8
BRANCH   4  20
ATOM     20  C   UNL     1      47.439   3.707  17.020  0.00  0.00    +0.000 C 
BRANCH  20  21
ATOM     21  N   UNL     1      47.301   4.697  15.980  0.00  0.00    +0.000 N 
ATOM     22  C   UNL     1      47.148   4.336  14.666  0.00  0.00    +0.000 C 
ATOM     23  O   UNL     1      47.253   3.171  14.291  0.00  0.00    +0.000 OA
ATOM     24  H   UNL     1      47.037   5.633  16.270  0.00  0.00    +0.000 HD
BRANCH  22  25
ATOM     25  C   UNL     1      46.857   5.420  13.718  0.00  0.00    +0.000 A 
ATOM     26  C   UNL     1      45.752   5.341  12.881  0.00  0.00    +0.000 A 
ATOM     27  S   UNL     1      45.521   6.737  11.925  0.00  0.00    +0.000 S 
ATOM     28  C   UNL     1      46.838   7.524  12.663  0.00  0.00    +0.000 A 
ATOM     29  N   UNL     1      47.112   8.831  12.403  0.00  0.00    +0.000 NA
ATOM     30  C   UNL     1      48.142   9.294  13.032  0.00  0.00    +0.000 A 
ATOM     31  N   UNL     1      48.949   8.556  13.856  0.00  0.00    +0.000 N 
ATOM     32  C   UNL     1      48.723   7.229  14.130  0.00  0.00    +0.000 A 
ATOM     33  O   UNL     1      49.505   6.576  14.815  0.00  0.00    +0.000 OA
ATOM     34  C   UNL     1      47.525   6.684  13.520  0.00  0.00    +0.000 A 
ATOM     35  H   UNL     1      49.777   8.961  14.269  0.00  0.00    +0.000 HD
ENDBRANCH  22  25
ENDBRANCH  20  21
ENDBRANCH   4  20
TORSDOF 6
ENDMDL
