MODEL 1
REMARK VINA RESULT:    -7.790      0.000      0.000
REMARK INTER + INTRA:         -11.159
REMARK INTER:                 -10.523
REMARK INTRA:                  -0.637
REMARK UNBOUND:                -0.637
REMARK  Name = 
REMARK  6 active torsions:
REMARK  status: ('A' for Active; 'I' for Inactive)
REMARK    1  A    between atoms: C_2  and  C_18
REMARK    2  A    between atoms: N_3  and  C_4
REMARK    3  A    between atoms: C_4  and  C_5
REMARK    4  A    between atoms: C_8  and  C_9
REMARK    5  A    between atoms: C_9  and  N_10
REMARK    6  A    between atoms: N_10  and  C_11
REMARK                            x       y       z     vdW  Elec       q    Type
REMARK                         _______ _______ _______ _____ _____    ______ ____
ROOT
ATOM      1  O   UNL     1      47.160   3.278  14.013  0.00  0.00    +0.000 OA
ATOM      2  C   UNL     1      46.926   4.442  14.293  0.00  0.00    +0.000 C 
ATOM      3  N   UNL     1      45.788   5.120  13.901  0.00  0.00    +0.000 N 
ATOM      4  H   UNL     1      45.551   5.965  14.399  0.00  0.00    +0.000 HD
ENDROOT
BRANCH   2   5
ATOM      5  C   UNL     1      47.684   5.214  15.265  0.00  0.00    +0.000 A 
ATOM      6  C   UNL     1      48.296   6.415  14.955  0.00  0.00    +0.000 A 
ATOM      7  S   UNL     1      49.582   6.760  16.042  0.00  0.00    +0.000 S 
ATOM      8  C   UNL     1      49.203   5.405  17.008  0.00  0.00    +0.000 A 
ATOM      9  N   UNL     1      49.988   4.996  18.039  0.00  0.00    +0.000 NA
ATOM     10  C   UNL     1      49.508   3.994  18.703  0.00  0.00    +0.000 A 
ATOM     11  N   UNL     1      48.294   3.398  18.464  0.00  0.00    +0.000 N 
ATOM     12  C   UNL     1      47.459   3.782  17.438  0.00  0.00    +0.000 A 
ATOM     13  O   UNL     1      46.344   3.303  17.290  0.00  0.00    +0.000 OA
ATOM     14  C   UNL     1      48.031   4.810  16.595  0.00  0.00    +0.000 A 
ATOM     15  H   UNL     1      47.932   2.686  19.082  0.00  0.00    +0.000 HD
ENDBRANCH   2   5
BRANCH   3  16
ATOM     16  C   UNL     1      44.672   4.438  13.285  0.00  0.00    +0.000 C 
BRANCH  16  17
ATOM     17  C   UNL     1      44.849   4.314  11.785  0.00  0.00    +0.000 A 
ATOM     18  N   UNL     1      45.461   5.314  11.120  0.00  0.00    +0.000 NA
ATOM     19  C   UNL     1      45.586   5.168   9.782  0.00  0.00    +0.000 A 
ATOM     20  C   UNL     1      45.115   4.079   9.080  0.00  0.00    +0.000 A 
ATOM     21  C   UNL     1      44.467   3.137   9.854  0.00  0.00    +0.000 A 
ATOM     22  N   UNL     1      44.306   3.232  11.188  0.00  0.00    +0.000 NA
BRANCH  20  23
ATOM     23  C   UNL     1      45.255   3.924   7.597  0.00  0.00    +0.000 C 
BRANCH  23  24
ATOM     24  N   UNL     1      46.641   4.043   7.159  0.00  0.00    +0.000 NA
ATOM     25  H   UNL     1      47.280   3.892   7.943  0.00  0.00    +0.000 HD
BRANCH  24  26
ATOM     26  C   UNL     1      46.995   3.130   6.051  0.00  0.00    +0.000 C 
ATOM     27  C   UNL     1      46.254   1.802   6.048  0.00  0.00    +0.000 C 
ATOM     28  C   UNL     1      46.960   1.025   7.138  0.00  0.00    +0.000 C 
ATOM     29  O   UNL     1      48.326   1.461   7.124  0.00  0.00    +0.000 OA
ATOM     30  C   UNL     1      48.424   2.604   6.249  0.00  0.00    +0.000 C 
ENDBRANCH  24  26
ENDBRANCH  23  24
ENDBRANCH  20  23
ENDBRANCH  16  17
ENDBRANCH   3  16
TORSDOF 6
ENDMDL
MODEL 2
REMARK VINA RESULT:    -7.627      1.919      2.866
REMARK INTER + INTRA:         -10.939
REMARK INTER:                  -9.919
REMARK INTRA:                  -1.019
REMARK UNBOUND:                -0.637
REMARK  Name = 
REMARK  6 active torsions:
REMARK  status: ('A' for Active; 'I' for Inactive)
REMARK    1  A    between atoms: C_2  and  C_18
REMARK    2  A    between atoms: N_3  and  C_4
REMARK    3  A    between atoms: C_4  and  C_5
REMARK    4  A    between atoms: C_8  and  C_9
REMARK    5  A    between atoms: C_9  and  N_10
REMARK    6  A    between atoms: N_10  and  C_11
REMARK                            x       y       z     vdW  Elec       q    Type
REMARK                         _______ _______ _______ _____ _____    ______ ____
ROOT
ATOM      1  O   UNL     1      48.987   6.552  13.506  0.00  0.00    +0.000 OA
ATOM      2  C   UNL     1      48.366   6.999  14.456  0.00  0.00    +0.000 C 
ATOM      3  N   UNL     1      47.301   7.871  14.345  0.00  0.00    +0.000 N 
ATOM      4  H   UNL     1      46.686   7.964  15.138  0.00  0.00    +0.000 HD
ENDROOT
BRANCH   2   5
ATOM      5  C   UNL     1      48.496   6.505  15.818  0.00  0.00    +0.000 A 
ATOM      6  C   UNL     1      49.037   7.263  16.841  0.00  0.00    +0.000 A 
ATOM      7  S   UNL     1      49.627   6.266  18.111  0.00  0.00    +0.000 S 
ATOM      8  C   UNL     1      49.007   4.859  17.371  0.00  0.00    +0.000 A 
ATOM      9  N   UNL     1      49.270   3.609  17.834  0.00  0.00    +0.000 NA
ATOM     10  C   UNL     1      48.658   2.668  17.190  0.00  0.00    +0.000 A 
ATOM     11  N   UNL     1      47.769   2.864  16.161  0.00  0.00    +0.000 N 
ATOM     12  C   UNL     1      47.463   4.111  15.663  0.00  0.00    +0.000 A 
ATOM     13  O   UNL     1      46.606   4.278  14.807  0.00  0.00    +0.000 OA
ATOM     14  C   UNL     1      48.235   5.172  16.273  0.00  0.00    +0.000 A 
ATOM     15  H   UNL     1      47.250   2.093  15.768  0.00  0.00    +0.000 HD
ENDBRANCH   2   5
BRANCH   3  16
ATOM     16  C   UNL     1      46.701   8.179  13.066  0.00  0.00    +0.000 C 
BRANCH  16  17
ATOM     17  C   UNL     1      45.987   6.978  12.478  0.00  0.00    +0.000 A 
ATOM     18  N   UNL     1      44.892   6.505  13.106  0.00  0.00    +0.000 NA
ATOM     19  C   UNL     1      44.294   5.424  12.556  0.00  0.00    +0.000 A 
ATOM     20  C   UNL     1      44.749   4.789  11.420  0.00  0.00    +0.000 A 
ATOM     21  C   UNL     1      45.900   5.330  10.885  0.00  0.00    +0.000 A 
ATOM     22  N   UNL     1      46.544   6.399  11.393  0.00  0.00    +0.000 NA
BRANCH  20  23
ATOM     23  C   UNL     1      44.083   3.591  10.816  0.00  0.00    +0.000 C 
BRANCH  23  24
ATOM     24  N   UNL     1      45.049   2.628  10.296  0.00  0.00    +0.000 NA
ATOM     25  H   UNL     1      45.107   1.811  10.909  0.00  0.00    +0.000 HD
BRANCH  24  26
ATOM     26  C   UNL     1      44.765   2.190   8.914  0.00  0.00    +0.000 C 
ATOM     27  C   UNL     1      45.960   1.638   8.153  0.00  0.00    +0.000 C 
ATOM     28  C   UNL     1      46.724   2.890   7.779  0.00  0.00    +0.000 C 
ATOM     29  O   UNL     1      45.741   3.917   7.583  0.00  0.00    +0.000 OA
ATOM     30  C   UNL     1      44.467   3.413   8.033  0.00  0.00    +0.000 C 
ENDBRANCH  24  26
ENDBRANCH  23  24
ENDBRANCH  20  23
ENDBRANCH  16  17
ENDBRANCH   3  16
TORSDOF 6
ENDMDL
MODEL 3
REMARK VINA RESULT:    -7.135      3.409      8.108
REMARK INTER + INTRA:         -10.275
REMARK INTER:                  -9.150
REMARK INTRA:                  -1.125
REMARK UNBOUND:                -0.637
REMARK  Name = 
REMARK  6 active torsions:
REMARK  status: ('A' for Active; 'I' for Inactive)
REMARK    1  A    between atoms: C_2  and  C_18
REMARK    2  A    between atoms: N_3  and  C_4
REMARK    3  A    between atoms: C_4  and  C_5
REMARK    4  A    between atoms: C_8  and  C_9
REMARK    5  A    between atoms: C_9  and  N_10
REMARK    6  A    between atoms: N_10  and  C_11
REMARK                            x       y       z     vdW  Elec       q    Type
REMARK                         _______ _______ _______ _____ _____    ______ ____
ROOT
ATOM      1  O   UNL     1      44.650   7.707  11.556  0.00  0.00    +0.000 OA
ATOM      2  C   UNL     1      45.607   6.986  11.327  0.00  0.00    +0.000 C 
ATOM      3  N   UNL     1      46.883   7.216  11.803  0.00  0.00    +0.000 N 
ATOM      4  H   UNL     1      47.530   6.443  11.801  0.00  0.00    +0.000 HD
ENDROOT
BRANCH   2   5
ATOM      5  C   UNL     1      45.505   5.667  10.723  0.00  0.00    +0.000 A 
ATOM      6  C   UNL     1      45.806   5.426   9.394  0.00  0.00    +0.000 A 
ATOM      7  S   UNL     1      45.024   4.005   8.825  0.00  0.00    +0.000 S 
ATOM      8  C   UNL     1      44.440   3.634  10.385  0.00  0.00    +0.000 A 
ATOM      9  N   UNL     1      43.562   2.623  10.619  0.00  0.00    +0.000 NA
ATOM     10  C   UNL     1      43.284   2.444  11.870  0.00  0.00    +0.000 A 
ATOM     11  N   UNL     1      43.840   3.148  12.911  0.00  0.00    +0.000 N 
ATOM     12  C   UNL     1      44.740   4.175  12.725  0.00  0.00    +0.000 A 
ATOM     13  O   UNL     1      45.292   4.734  13.661  0.00  0.00    +0.000 OA
ATOM     14  C   UNL     1      44.966   4.487  11.331  0.00  0.00    +0.000 A 
ATOM     15  H   UNL     1      43.656   2.892  13.870  0.00  0.00    +0.000 HD
ENDBRANCH   2   5
BRANCH   3  16
ATOM     16  C   UNL     1      47.153   8.238  12.789  0.00  0.00    +0.000 C 
BRANCH  16  17
ATOM     17  C   UNL     1      47.809   7.662  14.028  0.00  0.00    +0.000 A 
ATOM     18  N   UNL     1      48.271   8.509  14.969  0.00  0.00    +0.000 NA
ATOM     19  C   UNL     1      48.861   7.954  16.052  0.00  0.00    +0.000 A 
ATOM     20  C   UNL     1      49.022   6.596  16.227  0.00  0.00    +0.000 A 
ATOM     21  C   UNL     1      48.551   5.825  15.183  0.00  0.00    +0.000 A 
ATOM     22  N   UNL     1      47.963   6.322  14.078  0.00  0.00    +0.000 NA
BRANCH  20  23
ATOM     23  C   UNL     1      49.678   5.986  17.427  0.00  0.00    +0.000 C 
BRANCH  23  24
ATOM     24  N   UNL     1      50.476   4.814  17.083  0.00  0.00    +0.000 NA
ATOM     25  H   UNL     1      51.470   5.050  17.057  0.00  0.00    +0.000 HD
BRANCH  24  26
ATOM     26  C   UNL     1      50.265   3.665  17.990  0.00  0.00    +0.000 C 
ATOM     27  C   UNL     1      50.345   2.298  17.329  0.00  0.00    +0.000 C 
ATOM     28  C   UNL     1      49.014   2.196  16.615  0.00  0.00    +0.000 C 
ATOM     29  O   UNL     1      48.069   2.916  17.419  0.00  0.00    +0.000 OA
ATOM     30  C   UNL     1      48.798   3.625  18.443  0.00  0.00    +0.000 C 
ENDBRANCH  24  26
ENDBRANCH  23  24
ENDBRANCH  20  23
ENDBRANCH  16  17
ENDBRANCH   3  16
TORSDOF 6
ENDMDL
MODEL 4
REMARK VINA RESULT:    -7.098      4.118      8.959
REMARK INTER + INTRA:         -10.225
REMARK INTER:                  -9.435
REMARK INTRA:                  -0.790
REMARK UNBOUND:                -0.637
REMARK  Name = 
REMARK  6 active torsions:
REMARK  status: ('A' for Active; 'I' for Inactive)
REMARK    1  A    between atoms: C_2  and  C_18
REMARK    2  A    between atoms: N_3  and  C_4
REMARK    3  A    between atoms: C_4  and  C_5
REMARK    4  A    between atoms: C_8  and  C_9
REMARK    5  A    between atoms: C_9  and  N_10
REMARK    6  A    between atoms: N_10  and  C_11
REMARK                            x       y       z     vdW  Elec       q    Type
REMARK                         _______ _______ _______ _____ _____    ______ ____
ROOT
ATOM      1  O   UNL     1      49.201   6.625  14.320  0.00  0.00    +0.000 OA
ATOM      2  C   UNL     1      48.082   6.147  14.401  0.00  0.00    +0.000 C 
ATOM      3  N   UNL     1      47.574   5.551  15.538  0.00  0.00    +0.000 N 
ATOM      4  H   UNL     1      46.573   5.441  15.603  0.00  0.00    +0.000 HD
ENDROOT
BRANCH   2   5
ATOM      5  C   UNL     1      47.041   6.338  13.403  0.00  0.00    +0.000 A 
ATOM      6  C   UNL     1      46.855   7.534  12.734  0.00  0.00    +0.000 A 
ATOM      7  S   UNL     1      45.253   7.668  12.128  0.00  0.00    +0.000 S 
ATOM      8  C   UNL     1      44.878   6.075  12.608  0.00  0.00    +0.000 A 
ATOM      9  N   UNL     1      43.621   5.562  12.536  0.00  0.00    +0.000 NA
ATOM     10  C   UNL     1      43.538   4.316  12.876  0.00  0.00    +0.000 A 
ATOM     11  N   UNL     1      44.602   3.523  13.233  0.00  0.00    +0.000 N 
ATOM     12  C   UNL     1      45.894   3.993  13.312  0.00  0.00    +0.000 A 
ATOM     13  O   UNL     1      46.842   3.257  13.545  0.00  0.00    +0.000 OA
ATOM     14  C   UNL     1      45.998   5.416  13.068  0.00  0.00    +0.000 A 
ATOM     15  H   UNL     1      44.483   2.533  13.390  0.00  0.00    +0.000 HD
ENDBRANCH   2   5
BRANCH   3  16
ATOM     16  C   UNL     1      48.265   5.621  16.806  0.00  0.00    +0.000 C 
BRANCH  16  17
ATOM     17  C   UNL     1      49.196   4.441  17.003  0.00  0.00    +0.000 A 
ATOM     18  N   UNL     1      50.467   4.675  17.385  0.00  0.00    +0.000 NA
ATOM     19  C   UNL     1      51.267   3.596  17.535  0.00  0.00    +0.000 A 
ATOM     20  C   UNL     1      50.857   2.299  17.307  0.00  0.00    +0.000 A 
ATOM     21  C   UNL     1      49.551   2.179  16.878  0.00  0.00    +0.000 A 
ATOM     22  N   UNL     1      48.711   3.217  16.703  0.00  0.00    +0.000 NA
BRANCH  20  23
ATOM     23  C   UNL     1      51.749   1.106  17.473  0.00  0.00    +0.000 C 
BRANCH  23  24
ATOM     24  N   UNL     1      52.757   1.312  18.507  0.00  0.00    +0.000 NA
ATOM     25  H   UNL     1      52.536   0.761  19.340  0.00  0.00    +0.000 HD
BRANCH  24  26
ATOM     26  C   UNL     1      54.133   1.007  18.063  0.00  0.00    +0.000 C 
ATOM     27  C   UNL     1      54.388  -0.449  17.704  0.00  0.00    +0.000 C 
ATOM     28  C   UNL     1      54.498  -1.111  19.061  0.00  0.00    +0.000 C 
ATOM     29  O   UNL     1      55.071  -0.134  19.941  0.00  0.00    +0.000 OA
ATOM     30  C   UNL     1      55.101   1.132  19.250  0.00  0.00    +0.000 C 
ENDBRANCH  24  26
ENDBRANCH  23  24
ENDBRANCH  20  23
ENDBRANCH  16  17
ENDBRANCH   3  16
TORSDOF 6
ENDMDL
MODEL 5
REMARK VINA RESULT:    -7.054      2.383      3.726
REMARK INTER + INTRA:         -10.165
REMARK INTER:                  -9.348
REMARK INTRA:                  -0.817
REMARK UNBOUND:                -0.637
REMARK  Name = 
REMARK  6 active torsions:
REMARK  status: ('A' for Active; 'I' for Inactive)
REMARK    1  A    between atoms: C_2  and  C_18
REMARK    2  A    between atoms: N_3  and  C_4
REMARK    3  A    between atoms: C_4  and  C_5
REMARK    4  A    between atoms: C_8  and  C_9
REMARK    5  A    between atoms: C_9  and  N_10
REMARK    6  A    between atoms: N_10  and  C_11
REMARK                            x       y       z     vdW  Elec       q    Type
REMARK                         _______ _______ _______ _____ _____    ______ ____
ROOT
ATOM      1  O   UNL     1      50.373   6.130  16.255  0.00  0.00    +0.000 OA
ATOM      2  C   UNL     1      49.394   6.833  16.445  0.00  0.00    +0.000 C 
ATOM      3  N   UNL     1      48.646   7.410  15.439  0.00  0.00    +0.000 N 
ATOM      4  H   UNL     1      47.718   7.731  15.669  0.00  0.00    +0.000 HD
ENDROOT
BRANCH   2   5
ATOM      5  C   UNL     1      48.733   6.975  17.734  0.00  0.00    +0.000 A 
ATOM      6  C   UNL     1      48.390   8.204  18.268  0.00  0.00    +0.000 A 
ATOM      7  S   UNL     1      48.224   8.117  19.976  0.00  0.00    +0.000 S 
ATOM      8  C   UNL     1      48.439   6.425  19.968  0.00  0.00    +0.000 A 
ATOM      9  N   UNL     1      48.564   5.695  21.108  0.00  0.00    +0.000 NA
ATOM     10  C   UNL     1      48.649   4.419  20.911  0.00  0.00    +0.000 A 
ATOM     11  N   UNL     1      48.570   3.802  19.686  0.00  0.00    +0.000 N 
ATOM     12  C   UNL     1      48.435   4.497  18.504  0.00  0.00    +0.000 A 
ATOM     13  O   UNL     1      48.278   3.933  17.431  0.00  0.00    +0.000 OA
ATOM     14  C   UNL     1      48.474   5.933  18.681  0.00  0.00    +0.000 A 
ATOM     15  H   UNL     1      48.542   2.796  19.610  0.00  0.00    +0.000 HD
ENDBRANCH   2   5
BRANCH   3  16
ATOM     16  C   UNL     1      48.846   7.065  14.049  0.00  0.00    +0.000 C 
BRANCH  16  17
ATOM     17  C   UNL     1      47.735   6.178  13.525  0.00  0.00    +0.000 A 
ATOM     18  N   UNL     1      46.963   6.633  12.519  0.00  0.00    +0.000 NA
ATOM     19  C   UNL     1      45.974   5.816  12.092  0.00  0.00    +0.000 A 
ATOM     20  C   UNL     1      45.715   4.575  12.635  0.00  0.00    +0.000 A 
ATOM     21  C   UNL     1      46.538   4.228  13.687  0.00  0.00    +0.000 A 
ATOM     22  N   UNL     1      47.532   5.004  14.161  0.00  0.00    +0.000 NA
BRANCH  20  23
ATOM     23  C   UNL     1      44.617   3.674  12.159  0.00  0.00    +0.000 C 
BRANCH  23  24
ATOM     24  N   UNL     1      45.080   2.729  11.148  0.00  0.00    +0.000 NA
ATOM     25  H   UNL     1      45.149   1.787  11.541  0.00  0.00    +0.000 HD
BRANCH  24  26
ATOM     26  C   UNL     1      44.236   2.696   9.935  0.00  0.00    +0.000 C 
ATOM     27  C   UNL     1      44.801   1.887   8.777  0.00  0.00    +0.000 C 
ATOM     28  C   UNL     1      45.866   2.805   8.218  0.00  0.00    +0.000 C 
ATOM     29  O   UNL     1      45.394   4.144   8.427  0.00  0.00    +0.000 OA
ATOM     30  C   UNL     1      44.227   4.082   9.272  0.00  0.00    +0.000 C 
ENDBRANCH  24  26
ENDBRANCH  23  24
ENDBRANCH  20  23
ENDBRANCH  16  17
ENDBRANCH   3  16
TORSDOF 6
ENDMDL
MODEL 6
REMARK VINA RESULT:    -7.040      2.435      3.228
REMARK INTER + INTRA:         -10.146
REMARK INTER:                  -9.161
REMARK INTRA:                  -0.985
REMARK UNBOUND:                -0.637
REMARK  Name = 
REMARK  6 active torsions:
REMARK  status: ('A' for Active; 'I' for Inactive)
REMARK    1  A    between atoms: C_2  and  C_18
REMARK    2  A    between atoms: N_3  and  C_4
REMARK    3  A    between atoms: C_4  and  C_5
REMARK    4  A    between atoms: C_8  and  C_9
REMARK    5  A    between atoms: C_9  and  N_10
REMARK    6  A    between atoms: N_10  and  C_11
REMARK                            x       y       z     vdW  Elec       q    Type
REMARK                         _______ _______ _______ _____ _____    ______ ____
ROOT
ATOM      1  O   UNL     1      49.670   4.634  16.706  0.00  0.00    +0.000 OA
ATOM      2  C   UNL     1      48.909   5.571  16.536  0.00  0.00    +0.000 C 
ATOM      3  N   UNL     1      47.723   5.490  15.833  0.00  0.00    +0.000 N 
ATOM      4  H   UNL     1      47.041   6.218  15.978  0.00  0.00    +0.000 HD
ENDROOT
BRANCH   2   5
ATOM      5  C   UNL     1      49.014   6.842  17.236  0.00  0.00    +0.000 A 
ATOM      6  C   UNL     1      49.827   7.873  16.800  0.00  0.00    +0.000 A 
ATOM      7  S   UNL     1      50.226   8.939  18.088  0.00  0.00    +0.000 S 
ATOM      8  C   UNL     1      49.184   8.123  19.163  0.00  0.00    +0.000 A 
ATOM      9  N   UNL     1      49.133   8.403  20.492  0.00  0.00    +0.000 NA
ATOM     10  C   UNL     1      48.234   7.734  21.139  0.00  0.00    +0.000 A 
ATOM     11  N   UNL     1      47.349   6.849  20.573  0.00  0.00    +0.000 N 
ATOM     12  C   UNL     1      47.355   6.538  19.231  0.00  0.00    +0.000 A 
ATOM     13  O   UNL     1      46.507   5.817  18.726  0.00  0.00    +0.000 OA
ATOM     14  C   UNL     1      48.437   7.169  18.506  0.00  0.00    +0.000 A 
ATOM     15  H   UNL     1      46.607   6.435  21.117  0.00  0.00    +0.000 HD
ENDBRANCH   2   5
BRANCH   3  16
ATOM     16  C   UNL     1      47.182   4.221  15.401  0.00  0.00    +0.000 C 
BRANCH  16  17
ATOM     17  C   UNL     1      46.444   4.345  14.083  0.00  0.00    +0.000 A 
ATOM     18  N   UNL     1      46.249   3.236  13.342  0.00  0.00    +0.000 NA
ATOM     19  C   UNL     1      45.599   3.395  12.167  0.00  0.00    +0.000 A 
ATOM     20  C   UNL     1      45.151   4.610  11.695  0.00  0.00    +0.000 A 
ATOM     21  C   UNL     1      45.442   5.683  12.512  0.00  0.00    +0.000 A 
ATOM     22  N   UNL     1      46.093   5.588  13.688  0.00  0.00    +0.000 NA
BRANCH  20  23
ATOM     23  C   UNL     1      44.432   4.780  10.392  0.00  0.00    +0.000 C 
BRANCH  23  24
ATOM     24  N   UNL     1      45.348   4.801   9.257  0.00  0.00    +0.000 NA
ATOM     25  H   UNL     1      46.288   4.522   9.548  0.00  0.00    +0.000 HD
BRANCH  24  26
ATOM     26  C   UNL     1      44.911   3.957   8.125  0.00  0.00    +0.000 C 
ATOM     27  C   UNL     1      44.480   2.547   8.499  0.00  0.00    +0.000 C 
ATOM     28  C   UNL     1      45.801   1.846   8.732  0.00  0.00    +0.000 C 
ATOM     29  O   UNL     1      46.741   2.448   7.830  0.00  0.00    +0.000 OA
ATOM     30  C   UNL     1      46.118   3.608   7.240  0.00  0.00    +0.000 C 
ENDBRANCH  24  26
ENDBRANCH  23  24
ENDBRANCH  20  23
ENDBRANCH  16  17
ENDBRANCH   3  16
TORSDOF 6
ENDMDL
MODEL 7
REMARK VINA RESULT:    -7.035      3.375      4.684
REMARK INTER + INTRA:         -10.139
REMARK INTER:                  -8.752
REMARK INTRA:                  -1.387
REMARK UNBOUND:                -0.637
REMARK  Name = 
REMARK  6 active torsions:
REMARK  status: ('A' for Active; 'I' for Inactive)
REMARK    1  A    between atoms: C_2  and  C_18
REMARK    2  A    between atoms: N_3  and  C_4
REMARK    3  A    between atoms: C_4  and  C_5
REMARK    4  A    between atoms: C_8  and  C_9
REMARK    5  A    between atoms: C_9  and  N_10
REMARK    6  A    between atoms: N_10  and  C_11
REMARK                            x       y       z     vdW  Elec       q    Type
REMARK                         _______ _______ _______ _____ _____    ______ ____
ROOT
ATOM      1  O   UNL     1      50.232   7.352  15.615  0.00  0.00    +0.000 OA
ATOM      2  C   UNL     1      49.144   7.477  16.151  0.00  0.00    +0.000 C 
ATOM      3  N   UNL     1      48.133   8.288  15.676  0.00  0.00    +0.000 N 
ATOM      4  H   UNL     1      47.198   8.119  16.013  0.00  0.00    +0.000 HD
ENDROOT
BRANCH   2   5
ATOM      5  C   UNL     1      48.665   6.624  17.228  0.00  0.00    +0.000 A 
ATOM      6  C   UNL     1      48.797   6.958  18.564  0.00  0.00    +0.000 A 
ATOM      7  S   UNL     1      48.735   5.562  19.565  0.00  0.00    +0.000 S 
ATOM      8  C   UNL     1      48.364   4.557  18.237  0.00  0.00    +0.000 A 
ATOM      9  N   UNL     1      48.315   3.202  18.333  0.00  0.00    +0.000 NA
ATOM     10  C   UNL     1      47.949   2.609  17.243  0.00  0.00    +0.000 A 
ATOM     11  N   UNL     1      47.578   3.245  16.084  0.00  0.00    +0.000 N 
ATOM     12  C   UNL     1      47.602   4.616  15.940  0.00  0.00    +0.000 A 
ATOM     13  O   UNL     1      47.187   5.172  14.935  0.00  0.00    +0.000 OA
ATOM     14  C   UNL     1      48.137   5.299  17.098  0.00  0.00    +0.000 A 
ATOM     15  H   UNL     1      47.207   2.727  15.301  0.00  0.00    +0.000 HD
ENDBRANCH   2   5
BRANCH   3  16
ATOM     16  C   UNL     1      48.210   8.915  14.375  0.00  0.00    +0.000 C 
BRANCH  16  17
ATOM     17  C   UNL     1      47.417   8.149  13.335  0.00  0.00    +0.000 A 
ATOM     18  N   UNL     1      46.077   8.291  13.309  0.00  0.00    +0.000 NA
ATOM     19  C   UNL     1      45.407   7.579  12.375  0.00  0.00    +0.000 A 
ATOM     20  C   UNL     1      46.014   6.723  11.480  0.00  0.00    +0.000 A 
ATOM     21  C   UNL     1      47.383   6.621  11.625  0.00  0.00    +0.000 A 
ATOM     22  N   UNL     1      48.102   7.299  12.541  0.00  0.00    +0.000 NA
BRANCH  20  23
ATOM     23  C   UNL     1      45.267   5.935  10.448  0.00  0.00    +0.000 C 
BRANCH  23  24
ATOM     24  N   UNL     1      45.061   4.550  10.855  0.00  0.00    +0.000 NA
ATOM     25  H   UNL     1      45.503   4.372  11.760  0.00  0.00    +0.000 HD
BRANCH  24  26
ATOM     26  C   UNL     1      43.639   4.152  10.913  0.00  0.00    +0.000 C 
ATOM     27  C   UNL     1      42.740   5.083  11.711  0.00  0.00    +0.000 C 
ATOM     28  C   UNL     1      43.074   4.721  13.143  0.00  0.00    +0.000 C 
ATOM     29  O   UNL     1      43.394   3.322  13.140  0.00  0.00    +0.000 OA
ATOM     30  C   UNL     1      43.488   2.885  11.768  0.00  0.00    +0.000 C 
ENDBRANCH  24  26
ENDBRANCH  23  24
ENDBRANCH  20  23
ENDBRANCH  16  17
ENDBRANCH   3  16
TORSDOF 6
ENDMDL
MODEL 8
REMARK VINA RESULT:    -6.861      2.592      3.656
REMARK INTER + INTRA:          -9.905
REMARK INTER:                  -9.049
REMARK INTRA:                  -0.855
REMARK UNBOUND:                -0.637
REMARK  Name = 
REMARK  6 active torsions:
REMARK  status: ('A' for Active; 'I' for Inactive)
REMARK    1  A    between atoms: C_2  and  C_18
REMARK    2  A    between atoms: N_3  and  C_4
REMARK    3  A    between atoms: C_4  and  C_5
REMARK    4  A    between atoms: C_8  and  C_9
REMARK    5  A    between atoms: C_9  and  N_10
REMARK    6  A    between atoms: N_10  and  C_11
REMARK                            x       y       z     vdW  Elec       q    Type
REMARK                         _______ _______ _______ _____ _____    ______ ____
ROOT
ATOM      1  O   UNL     1      49.115   3.967  17.203  0.00  0.00    +0.000 OA
ATOM      2  C   UNL     1      48.621   5.018  16.829  0.00  0.00    +0.000 C 
ATOM      3  N   UNL     1      47.733   5.127  15.777  0.00  0.00    +0.000 N 
ATOM      4  H   UNL     1      47.174   5.965  15.720  0.00  0.00    +0.000 HD
ENDROOT
BRANCH   2   5
ATOM      5  C   UNL     1      48.705   6.267  17.571  0.00  0.00    +0.000 A 
ATOM      6  C   UNL     1      48.378   6.365  18.912  0.00  0.00    +0.000 A 
ATOM      7  S   UNL     1      47.974   7.980  19.338  0.00  0.00    +0.000 S 
ATOM      8  C   UNL     1      48.401   8.556  17.790  0.00  0.00    +0.000 A 
ATOM      9  N   UNL     1      48.170   9.835  17.393  0.00  0.00    +0.000 NA
ATOM     10  C   UNL     1      48.624  10.112  16.213  0.00  0.00    +0.000 A 
ATOM     11  N   UNL     1      49.331   9.245  15.416  0.00  0.00    +0.000 N 
ATOM     12  C   UNL     1      49.598   7.942  15.778  0.00  0.00    +0.000 A 
ATOM     13  O   UNL     1      50.303   7.209  15.099  0.00  0.00    +0.000 OA
ATOM     14  C   UNL     1      48.986   7.564  17.033  0.00  0.00    +0.000 A 
ATOM     15  H   UNL     1      49.744   9.554  14.548  0.00  0.00    +0.000 HD
ENDBRANCH   2   5
BRANCH   3  16
ATOM     16  C   UNL     1      47.155   3.961  15.147  0.00  0.00    +0.000 C 
BRANCH  16  17
ATOM     17  C   UNL     1      46.529   4.299  13.809  0.00  0.00    +0.000 A 
ATOM     18  N   UNL     1      46.682   5.545  13.319  0.00  0.00    +0.000 NA
ATOM     19  C   UNL     1      46.096   5.808  12.129  0.00  0.00    +0.000 A 
ATOM     20  C   UNL     1      45.353   4.888  11.419  0.00  0.00    +0.000 A 
ATOM     21  C   UNL     1      45.225   3.659  12.034  0.00  0.00    +0.000 A 
ATOM     22  N   UNL     1      45.779   3.343  13.221  0.00  0.00    +0.000 NA
BRANCH  20  23
ATOM     23  C   UNL     1      44.704   5.185  10.102  0.00  0.00    +0.000 C 
BRANCH  23  24
ATOM     24  N   UNL     1      45.573   4.865   8.975  0.00  0.00    +0.000 NA
ATOM     25  H   UNL     1      46.461   4.480   9.304  0.00  0.00    +0.000 HD
BRANCH  24  26
ATOM     26  C   UNL     1      44.963   3.938   8.000  0.00  0.00    +0.000 C 
ATOM     27  C   UNL     1      44.482   2.616   8.578  0.00  0.00    +0.000 C 
ATOM     28  C   UNL     1      45.772   1.845   8.761  0.00  0.00    +0.000 C 
ATOM     29  O   UNL     1      46.647   2.269   7.706  0.00  0.00    +0.000 OA
ATOM     30  C   UNL     1      46.043   3.401   7.048  0.00  0.00    +0.000 C 
ENDBRANCH  24  26
ENDBRANCH  23  24
ENDBRANCH  20  23
ENDBRANCH  16  17
ENDBRANCH   3  16
TORSDOF 6
ENDMDL
MODEL 9
REMARK VINA RESULT:    -6.724      3.718      9.014
REMARK INTER + INTRA:          -9.720
REMARK INTER:                  -8.793
REMARK INTRA:                  -0.927
REMARK UNBOUND:                -0.637
REMARK  Name = 
REMARK  6 active torsions:
REMARK  status: ('A' for Active; 'I' for Inactive)
REMARK    1  A    between atoms: C_2  and  C_18
REMARK    2  A    between atoms: N_3  and  C_4
REMARK    3  A    between atoms: C_4  and  C_5
REMARK    4  A    between atoms: C_8  and  C_9
REMARK    5  A    between atoms: C_9  and  N_10
REMARK    6  A    between atoms: N_10  and  C_11
REMARK                            x       y       z     vdW  Elec       q    Type
REMARK                         _______ _______ _______ _____ _____    ______ ____
ROOT
ATOM      1  O   UNL     1      47.525   2.891  14.394  0.00  0.00    +0.000 OA
ATOM      2  C   UNL     1      47.024   3.994  14.531  0.00  0.00    +0.000 C 
ATOM      3  N   UNL     1      46.774   4.586  15.753  0.00  0.00    +0.000 N 
ATOM      4  H   UNL     1      46.625   5.583  15.770  0.00  0.00    +0.000 HD
ENDROOT
BRANCH   2   5
ATOM      5  C   UNL     1      46.833   4.942  13.444  0.00  0.00    +0.000 A 
ATOM      6  C   UNL     1      47.718   5.973  13.185  0.00  0.00    +0.000 A 
ATOM      7  S   UNL     1      46.958   7.243  12.311  0.00  0.00    +0.000 S 
ATOM      8  C   UNL     1      45.521   6.340  12.139  0.00  0.00    +0.000 A 
ATOM      9  N   UNL     1      44.381   6.866  11.618  0.00  0.00    +0.000 NA
ATOM     10  C   UNL     1      43.413   6.016  11.499  0.00  0.00    +0.000 A 
ATOM     11  N   UNL     1      43.495   4.679  11.804  0.00  0.00    +0.000 N 
ATOM     12  C   UNL     1      44.630   4.097  12.325  0.00  0.00    +0.000 A 
ATOM     13  O   UNL     1      44.717   2.892  12.510  0.00  0.00    +0.000 OA
ATOM     14  C   UNL     1      45.684   5.050  12.596  0.00  0.00    +0.000 A 
ATOM     15  H   UNL     1      42.734   4.049  11.594  0.00  0.00    +0.000 HD
ENDBRANCH   2   5
BRANCH   3  16
ATOM     16  C   UNL     1      47.272   4.021  16.988  0.00  0.00    +0.000 C 
BRANCH  16  17
ATOM     17  C   UNL     1      48.749   4.304  17.178  0.00  0.00    +0.000 A 
ATOM     18  N   UNL     1      49.224   5.519  16.842  0.00  0.00    +0.000 NA
ATOM     19  C   UNL     1      50.549   5.724  17.014  0.00  0.00    +0.000 A 
ATOM     20  C   UNL     1      51.419   4.766  17.491  0.00  0.00    +0.000 A 
ATOM     21  C   UNL     1      50.833   3.546  17.762  0.00  0.00    +0.000 A 
ATOM     22  N   UNL     1      49.522   3.281  17.602  0.00  0.00    +0.000 NA
BRANCH  20  23
ATOM     23  C   UNL     1      52.887   4.998  17.678  0.00  0.00    +0.000 C 
BRANCH  23  24
ATOM     24  N   UNL     1      53.429   4.224  18.790  0.00  0.00    +0.000 NA
ATOM     25  H   UNL     1      52.720   3.591  19.167  0.00  0.00    +0.000 HD
BRANCH  24  26
ATOM     26  C   UNL     1      54.643   3.455  18.441  0.00  0.00    +0.000 C 
ATOM     27  C   UNL     1      54.443   2.376  17.389  0.00  0.00    +0.000 C 
ATOM     28  C   UNL     1      53.762   1.272  18.169  0.00  0.00    +0.000 C 
ATOM     29  O   UNL     1      54.276   1.347  19.506  0.00  0.00    +0.000 OA
ATOM     30  C   UNL     1      55.047   2.561  19.623  0.00  0.00    +0.000 C 
ENDBRANCH  24  26
ENDBRANCH  23  24
ENDBRANCH  20  23
ENDBRANCH  16  17
ENDBRANCH   3  16
TORSDOF 6
ENDMDL
