MODEL 1
REMARK VINA RESULT:    -7.816      0.000      0.000
REMARK INTER + INTRA:         -11.902
REMARK INTER:                 -11.014
REMARK INTRA:                  -0.888
REMARK UNBOUND:                -0.888
REMARK  Name = 
REMARK  8 active torsions:
REMARK  status: ('A' for Active; 'I' for Inactive)
REMARK    1  A    between atoms: C_1  and  C_2
REMARK    2  A    between atoms: C_7  and  C_8
REMARK    3  A    between atoms: N_10  and  C_11
REMARK    4  A    between atoms: C_11  and  C_12
REMARK    5  A    between atoms: C_15  and  C_16
REMARK    6  A    between atoms: C_16  and  N_17
REMARK    7  A    between atoms: N_17  and  C_18
REMARK    8  A    between atoms: C_18  and  C_19
REMARK                            x       y       z     vdW  Elec       q    Type
REMARK                         _______ _______ _______ _____ _____    ______ ____
ROOT
ATOM      1  C   UNL     1      48.260   6.775  13.966  0.00  0.00    +0.000 C 
ATOM      2  O   UNL     1      48.771   6.315  12.947  0.00  0.00    +0.000 OA
ATOM      3  N   UNL     1      47.127   7.542  13.910  0.00  0.00    +0.000 N 
ATOM      4  H   UNL     1      46.707   7.922  14.754  0.00  0.00    +0.000 HD
ENDROOT
BRANCH   1  11
ATOM      5  C   UNL     1      48.303   2.926  19.647  0.00  0.00    +0.000 C 
ATOM      6  C   UNL     1      48.457   3.881  18.500  0.00  0.00    +0.000 A 
ATOM      7  N   UNL     1      49.327   4.840  18.534  0.00  0.00    +0.000 NA
ATOM      8  C   UNL     1      49.351   5.625  17.424  0.00  0.00    +0.000 A 
ATOM      9  S   UNL     1      50.436   6.930  17.310  0.00  0.00    +0.000 S 
ATOM     10  C   UNL     1      49.861   7.342  15.760  0.00  0.00    +0.000 A 
ATOM     11  C   UNL     1      48.843   6.515  15.296  0.00  0.00    +0.000 A 
ATOM     12  C   UNL     1      48.558   5.506  16.295  0.00  0.00    +0.000 A 
ATOM     13  C   UNL     1      47.601   4.417  16.304  0.00  0.00    +0.000 A 
ATOM     14  O   UNL     1      46.826   4.165  15.387  0.00  0.00    +0.000 OA
ATOM     15  N   UNL     1      47.612   3.649  17.443  0.00  0.00    +0.000 N 
ATOM     16  H   UNL     1      46.950   2.889  17.462  0.00  0.00    +0.000 HD
ENDBRANCH   1  11
BRANCH   3  17
ATOM     17  C   UNL     1      46.486   7.845  12.656  0.00  0.00    +0.000 C 
BRANCH  17  18
ATOM     18  C   UNL     1      45.811   6.631  12.073  0.00  0.00    +0.000 A 
ATOM     19  C   UNL     1      44.973   5.830  12.859  0.00  0.00    +0.000 A 
ATOM     20  C   UNL     1      44.352   4.701  12.312  0.00  0.00    +0.000 A 
ATOM     21  C   UNL     1      44.560   4.347  10.972  0.00  0.00    +0.000 A 
ATOM     22  C   UNL     1      45.416   5.138  10.194  0.00  0.00    +0.000 A 
ATOM     23  C   UNL     1      46.038   6.265  10.740  0.00  0.00    +0.000 A 
BRANCH  21  24
ATOM     24  C   UNL     1      43.895   3.125  10.382  0.00  0.00    +0.000 C 
BRANCH  24  25
ATOM     25  N   UNL     1      44.326   2.896   9.002  0.00  0.00    +0.000 NA
ATOM     26  H   UNL     1      44.903   3.689   8.708  0.00  0.00    +0.000 HD
BRANCH  25  27
ATOM     27  C   UNL     1      45.121   1.669   8.907  0.00  0.00    +0.000 C 
BRANCH  27  28
ATOM     28  C   UNL     1      46.271   1.912   7.977  0.00  0.00    +0.000 C 
ATOM     29  C   UNL     1      47.129   0.857   7.458  0.00  0.00    +0.000 C 
ATOM     30  N   UNL     1      48.047   1.455   6.637  0.00  0.00    +0.000 NA
ATOM     31  C   UNL     1      47.727   2.717   6.681  0.00  0.00    +0.000 C 
ATOM     32  N   UNL     1      46.647   3.057   7.479  0.00  0.00    +0.000 NA
ENDBRANCH  27  28
ENDBRANCH  25  27
ENDBRANCH  24  25
ENDBRANCH  21  24
ENDBRANCH  17  18
ENDBRANCH   3  17
TORSDOF 7
ENDMDL
MODEL 2
REMARK VINA RESULT:    -7.375      1.661      1.960
REMARK INTER + INTRA:         -11.281
REMARK INTER:                 -10.258
REMARK INTRA:                  -1.022
REMARK UNBOUND:                -0.888
REMARK  Name = 
REMARK  8 active torsions:
REMARK  status: ('A' for Active; 'I' for Inactive)
REMARK    1  A    between atoms: C_1  and  C_2
REMARK    2  A    between atoms: C_7  and  C_8
REMARK    3  A    between atoms: N_10  and  C_11
REMARK    4  A    between atoms: C_11  and  C_12
REMARK    5  A    between atoms: C_15  and  C_16
REMARK    6  A    between atoms: C_16  and  N_17
REMARK    7  A    between atoms: N_17  and  C_18
REMARK    8  A    between atoms: C_18  and  C_19
REMARK                            x       y       z     vdW  Elec       q    Type
REMARK                         _______ _______ _______ _____ _____    ______ ____
ROOT
ATOM      1  C   UNL     1      48.470   8.599  15.044  0.00  0.00    +0.000 C 
ATOM      2  O   UNL     1      49.225   9.376  14.462  0.00  0.00    +0.000 OA
ATOM      3  N   UNL     1      47.588   7.812  14.353  0.00  0.00    +0.000 N 
ATOM      4  H   UNL     1      46.964   7.171  14.836  0.00  0.00    +0.000 HD
ENDROOT
BRANCH   1  11
ATOM      5  C   UNL     1      48.785   4.504  20.541  0.00  0.00    +0.000 C 
ATOM      6  C   UNL     1      48.707   5.565  19.484  0.00  0.00    +0.000 A 
ATOM      7  N   UNL     1      48.613   6.819  19.794  0.00  0.00    +0.000 NA
ATOM      8  C   UNL     1      48.549   7.664  18.731  0.00  0.00    +0.000 A 
ATOM      9  S   UNL     1      48.422   9.344  18.966  0.00  0.00    +0.000 S 
ATOM     10  C   UNL     1      48.399   9.632  17.287  0.00  0.00    +0.000 A 
ATOM     11  C   UNL     1      48.484   8.479  16.514  0.00  0.00    +0.000 A 
ATOM     12  C   UNL     1      48.574   7.327  17.388  0.00  0.00    +0.000 A 
ATOM     13  C   UNL     1      48.680   5.911  17.092  0.00  0.00    +0.000 A 
ATOM     14  O   UNL     1      48.718   5.440  15.960  0.00  0.00    +0.000 OA
ATOM     15  N   UNL     1      48.744   5.095  18.194  0.00  0.00    +0.000 N 
ATOM     16  H   UNL     1      48.817   4.108  18.002  0.00  0.00    +0.000 HD
ENDBRANCH   1  11
BRANCH   3  17
ATOM     17  C   UNL     1      47.506   7.859  12.915  0.00  0.00    +0.000 C 
BRANCH  17  18
ATOM     18  C   UNL     1      46.707   6.704  12.368  0.00  0.00    +0.000 A 
ATOM     19  C   UNL     1      46.417   6.617  11.001  0.00  0.00    +0.000 A 
ATOM     20  C   UNL     1      45.671   5.544  10.500  0.00  0.00    +0.000 A 
ATOM     21  C   UNL     1      45.195   4.541  11.355  0.00  0.00    +0.000 A 
ATOM     22  C   UNL     1      45.468   4.642  12.726  0.00  0.00    +0.000 A 
ATOM     23  C   UNL     1      46.211   5.716  13.228  0.00  0.00    +0.000 A 
BRANCH  21  24
ATOM     24  C   UNL     1      44.384   3.385  10.817  0.00  0.00    +0.000 C 
BRANCH  24  25
ATOM     25  N   UNL     1      44.545   3.247   9.369  0.00  0.00    +0.000 NA
ATOM     26  H   UNL     1      45.256   3.914   9.058  0.00  0.00    +0.000 HD
BRANCH  25  27
ATOM     27  C   UNL     1      44.985   1.892   9.026  0.00  0.00    +0.000 C 
BRANCH  27  28
ATOM     28  C   UNL     1      46.167   1.986   8.111  0.00  0.00    +0.000 C 
ATOM     29  C   UNL     1      46.905   0.832   7.619  0.00  0.00    +0.000 C 
ATOM     30  N   UNL     1      47.896   1.308   6.803  0.00  0.00    +0.000 NA
ATOM     31  C   UNL     1      47.724   2.599   6.826  0.00  0.00    +0.000 C 
ATOM     32  N   UNL     1      46.679   3.073   7.603  0.00  0.00    +0.000 NA
ENDBRANCH  27  28
ENDBRANCH  25  27
ENDBRANCH  24  25
ENDBRANCH  21  24
ENDBRANCH  17  18
ENDBRANCH   3  17
TORSDOF 7
ENDMDL
MODEL 3
REMARK VINA RESULT:    -7.285      4.471      8.891
REMARK INTER + INTRA:         -11.154
REMARK INTER:                 -10.191
REMARK INTRA:                  -0.963
REMARK UNBOUND:                -0.888
REMARK  Name = 
REMARK  8 active torsions:
REMARK  status: ('A' for Active; 'I' for Inactive)
REMARK    1  A    between atoms: C_1  and  C_2
REMARK    2  A    between atoms: C_7  and  C_8
REMARK    3  A    between atoms: N_10  and  C_11
REMARK    4  A    between atoms: C_11  and  C_12
REMARK    5  A    between atoms: C_15  and  C_16
REMARK    6  A    between atoms: C_16  and  N_17
REMARK    7  A    between atoms: N_17  and  C_18
REMARK    8  A    between atoms: C_18  and  C_19
REMARK                            x       y       z     vdW  Elec       q    Type
REMARK                         _______ _______ _______ _____ _____    ______ ____
ROOT
ATOM      1  C   UNL     1      48.325   6.250  14.972  0.00  0.00    +0.000 C 
ATOM      2  O   UNL     1      49.478   6.658  14.850  0.00  0.00    +0.000 OA
ATOM      3  N   UNL     1      47.852   5.799  16.175  0.00  0.00    +0.000 N 
ATOM      4  H   UNL     1      46.898   5.463  16.273  0.00  0.00    +0.000 HD
ENDROOT
BRANCH   1  11
ATOM      5  C   UNL     1      44.243   2.588  10.847  0.00  0.00    +0.000 C 
ATOM      6  C   UNL     1      45.072   3.563  11.629  0.00  0.00    +0.000 A 
ATOM      7  N   UNL     1      45.096   4.822  11.327  0.00  0.00    +0.000 NA
ATOM      8  C   UNL     1      45.893   5.583  12.124  0.00  0.00    +0.000 A 
ATOM      9  S   UNL     1      46.036   7.257  11.860  0.00  0.00    +0.000 S 
ATOM     10  C   UNL     1      47.117   7.425  13.165  0.00  0.00    +0.000 A 
ATOM     11  C   UNL     1      47.397   6.233  13.825  0.00  0.00    +0.000 A 
ATOM     12  C   UNL     1      46.661   5.157  13.194  0.00  0.00    +0.000 A 
ATOM     13  C   UNL     1      46.602   3.739  13.493  0.00  0.00    +0.000 A 
ATOM     14  O   UNL     1      47.214   3.196  14.406  0.00  0.00    +0.000 OA
ATOM     15  N   UNL     1      45.783   3.009  12.666  0.00  0.00    +0.000 N 
ATOM     16  H   UNL     1      45.734   2.022  12.863  0.00  0.00    +0.000 HD
ENDBRANCH   1  11
BRANCH   3  17
ATOM     17  C   UNL     1      48.686   5.782  17.351  0.00  0.00    +0.000 C 
BRANCH  17  18
ATOM     18  C   UNL     1      49.556   4.552  17.394  0.00  0.00    +0.000 A 
ATOM     19  C   UNL     1      50.928   4.653  17.654  0.00  0.00    +0.000 A 
ATOM     20  C   UNL     1      51.731   3.508  17.689  0.00  0.00    +0.000 A 
ATOM     21  C   UNL     1      51.181   2.240  17.459  0.00  0.00    +0.000 A 
ATOM     22  C   UNL     1      49.812   2.143  17.177  0.00  0.00    +0.000 A 
ATOM     23  C   UNL     1      49.009   3.288  17.140  0.00  0.00    +0.000 A 
BRANCH  21  24
ATOM     24  C   UNL     1      52.047   1.003  17.490  0.00  0.00    +0.000 C 
BRANCH  24  25
ATOM     25  N   UNL     1      53.027   1.062  18.576  0.00  0.00    +0.000 NA
ATOM     26  H   UNL     1      52.666   0.522  19.366  0.00  0.00    +0.000 HD
BRANCH  25  27
ATOM     27  C   UNL     1      54.304   0.484  18.150  0.00  0.00    +0.000 C 
BRANCH  27  28
ATOM     28  C   UNL     1      54.264  -0.996  18.382  0.00  0.00    +0.000 C 
ATOM     29  C   UNL     1      54.869  -1.972  17.488  0.00  0.00    +0.000 C 
ATOM     30  N   UNL     1      54.643  -3.208  18.033  0.00  0.00    +0.000 NA
ATOM     31  C   UNL     1      53.987  -2.949  19.128  0.00  0.00    +0.000 C 
ATOM     32  N   UNL     1      53.730  -1.614  19.398  0.00  0.00    +0.000 NA
ENDBRANCH  27  28
ENDBRANCH  25  27
ENDBRANCH  24  25
ENDBRANCH  21  24
ENDBRANCH  17  18
ENDBRANCH   3  17
TORSDOF 7
ENDMDL
MODEL 4
REMARK VINA RESULT:    -6.736      1.965      2.413
REMARK INTER + INTRA:         -10.380
REMARK INTER:                  -9.717
REMARK INTRA:                  -0.663
REMARK UNBOUND:                -0.888
REMARK  Name = 
REMARK  8 active torsions:
REMARK  status: ('A' for Active; 'I' for Inactive)
REMARK    1  A    between atoms: C_1  and  C_2
REMARK    2  A    between atoms: C_7  and  C_8
REMARK    3  A    between atoms: N_10  and  C_11
REMARK    4  A    between atoms: C_11  and  C_12
REMARK    5  A    between atoms: C_15  and  C_16
REMARK    6  A    between atoms: C_16  and  N_17
REMARK    7  A    between atoms: N_17  and  C_18
REMARK    8  A    between atoms: C_18  and  C_19
REMARK                            x       y       z     vdW  Elec       q    Type
REMARK                         _______ _______ _______ _____ _____    ______ ____
ROOT
ATOM      1  C   UNL     1      48.032   8.515  12.947  0.00  0.00    +0.000 C 
ATOM      2  O   UNL     1      47.934   9.013  11.827  0.00  0.00    +0.000 OA
ATOM      3  N   UNL     1      46.935   8.032  13.609  0.00  0.00    +0.000 N 
ATOM      4  H   UNL     1      47.019   7.621  14.535  0.00  0.00    +0.000 HD
ENDROOT
BRANCH   1  11
ATOM      5  C   UNL     1      51.861   5.483  17.767  0.00  0.00    +0.000 C 
ATOM      6  C   UNL     1      51.204   6.264  16.667  0.00  0.00    +0.000 A 
ATOM      7  N   UNL     1      51.848   7.177  16.011  0.00  0.00    +0.000 NA
ATOM      8  C   UNL     1      51.124   7.801  15.045  0.00  0.00    +0.000 A 
ATOM      9  S   UNL     1      51.822   9.025  14.093  0.00  0.00    +0.000 S 
ATOM     10  C   UNL     1      50.375   9.248  13.222  0.00  0.00    +0.000 A 
ATOM     11  C   UNL     1      49.338   8.413  13.625  0.00  0.00    +0.000 A 
ATOM     12  C   UNL     1      49.802   7.564  14.703  0.00  0.00    +0.000 A 
ATOM     13  C   UNL     1      49.125   6.534  15.464  0.00  0.00    +0.000 A 
ATOM     14  O   UNL     1      47.959   6.195  15.291  0.00  0.00    +0.000 OA
ATOM     15  N   UNL     1      49.894   5.929  16.428  0.00  0.00    +0.000 N 
ATOM     16  H   UNL     1      49.434   5.210  16.966  0.00  0.00    +0.000 HD
ENDBRANCH   1  11
BRANCH   3  17
ATOM     17  C   UNL     1      45.619   8.086  13.023  0.00  0.00    +0.000 C 
BRANCH  17  18
ATOM     18  C   UNL     1      45.234   6.766  12.407  0.00  0.00    +0.000 A 
ATOM     19  C   UNL     1      44.233   6.696  11.430  0.00  0.00    +0.000 A 
ATOM     20  C   UNL     1      43.877   5.466  10.865  0.00  0.00    +0.000 A 
ATOM     21  C   UNL     1      44.508   4.282  11.268  0.00  0.00    +0.000 A 
ATOM     22  C   UNL     1      45.493   4.352  12.262  0.00  0.00    +0.000 A 
ATOM     23  C   UNL     1      45.849   5.580  12.829  0.00  0.00    +0.000 A 
BRANCH  21  24
ATOM     24  C   UNL     1      44.120   2.953  10.664  0.00  0.00    +0.000 C 
BRANCH  24  25
ATOM     25  N   UNL     1      44.438   2.902   9.235  0.00  0.00    +0.000 NA
ATOM     26  H   UNL     1      45.083   3.667   9.020  0.00  0.00    +0.000 HD
BRANCH  25  27
ATOM     27  C   UNL     1      45.081   1.630   8.896  0.00  0.00    +0.000 C 
BRANCH  27  28
ATOM     28  C   UNL     1      46.248   1.905   7.998  0.00  0.00    +0.000 C 
ATOM     29  C   UNL     1      47.078   0.866   7.406  0.00  0.00    +0.000 C 
ATOM     30  N   UNL     1      48.023   1.495   6.641  0.00  0.00    +0.000 NA
ATOM     31  C   UNL     1      47.743   2.760   6.780  0.00  0.00    +0.000 C 
ATOM     32  N   UNL     1      46.666   3.072   7.593  0.00  0.00    +0.000 NA
ENDBRANCH  27  28
ENDBRANCH  25  27
ENDBRANCH  24  25
ENDBRANCH  21  24
ENDBRANCH  17  18
ENDBRANCH   3  17
TORSDOF 7
ENDMDL
MODEL 5
REMARK VINA RESULT:    -6.661      3.309      7.767
REMARK INTER + INTRA:         -10.274
REMARK INTER:                  -9.133
REMARK INTRA:                  -1.141
REMARK UNBOUND:                -0.888
REMARK  Name = 
REMARK  8 active torsions:
REMARK  status: ('A' for Active; 'I' for Inactive)
REMARK    1  A    between atoms: C_1  and  C_2
REMARK    2  A    between atoms: C_7  and  C_8
REMARK    3  A    between atoms: N_10  and  C_11
REMARK    4  A    between atoms: C_11  and  C_12
REMARK    5  A    between atoms: C_15  and  C_16
REMARK    6  A    between atoms: C_16  and  N_17
REMARK    7  A    between atoms: N_17  and  C_18
REMARK    8  A    between atoms: C_18  and  C_19
REMARK                            x       y       z     vdW  Elec       q    Type
REMARK                         _______ _______ _______ _____ _____    ______ ____
ROOT
ATOM      1  C   UNL     1      48.102   7.259  13.387  0.00  0.00    +0.000 C 
ATOM      2  O   UNL     1      49.113   6.602  13.144  0.00  0.00    +0.000 OA
ATOM      3  N   UNL     1      48.135   8.323  14.247  0.00  0.00    +0.000 N 
ATOM      4  H   UNL     1      47.298   8.864  14.447  0.00  0.00    +0.000 HD
ENDROOT
BRANCH   1  11
ATOM      5  C   UNL     1      43.397   2.485  11.916  0.00  0.00    +0.000 C 
ATOM      6  C   UNL     1      44.291   3.669  12.134  0.00  0.00    +0.000 A 
ATOM      7  N   UNL     1      43.976   4.843  11.687  0.00  0.00    +0.000 NA
ATOM      8  C   UNL     1      44.883   5.818  11.960  0.00  0.00    +0.000 A 
ATOM      9  S   UNL     1      44.619   7.417  11.442  0.00  0.00    +0.000 S 
ATOM     10  C   UNL     1      46.089   7.939  12.128  0.00  0.00    +0.000 A 
ATOM     11  C   UNL     1      46.809   6.930  12.757  0.00  0.00    +0.000 A 
ATOM     12  C   UNL     1      46.078   5.684  12.648  0.00  0.00    +0.000 A 
ATOM     13  C   UNL     1      46.387   4.352  13.129  0.00  0.00    +0.000 A 
ATOM     14  O   UNL     1      47.398   4.057  13.757  0.00  0.00    +0.000 OA
ATOM     15  N   UNL     1      45.443   3.399  12.833  0.00  0.00    +0.000 N 
ATOM     16  H   UNL     1      45.646   2.467  13.161  0.00  0.00    +0.000 HD
ENDBRANCH   1  11
BRANCH   3  17
ATOM     17  C   UNL     1      49.354   8.720  14.906  0.00  0.00    +0.000 C 
BRANCH  17  18
ATOM     18  C   UNL     1      49.556   7.967  16.196  0.00  0.00    +0.000 A 
ATOM     19  C   UNL     1      50.605   7.049  16.333  0.00  0.00    +0.000 A 
ATOM     20  C   UNL     1      50.785   6.351  17.532  0.00  0.00    +0.000 A 
ATOM     21  C   UNL     1      49.918   6.550  18.615  0.00  0.00    +0.000 A 
ATOM     22  C   UNL     1      48.856   7.453  18.467  0.00  0.00    +0.000 A 
ATOM     23  C   UNL     1      48.674   8.150  17.268  0.00  0.00    +0.000 A 
BRANCH  21  24
ATOM     24  C   UNL     1      50.107   5.792  19.907  0.00  0.00    +0.000 C 
BRANCH  24  25
ATOM     25  N   UNL     1      50.066   4.345  19.690  0.00  0.00    +0.000 NA
ATOM     26  H   UNL     1      50.313   3.879  20.567  0.00  0.00    +0.000 HD
BRANCH  25  27
ATOM     27  C   UNL     1      48.721   3.922  19.292  0.00  0.00    +0.000 C 
BRANCH  27  28
ATOM     28  C   UNL     1      48.819   3.143  18.016  0.00  0.00    +0.000 C 
ATOM     29  C   UNL     1      50.069   2.631  17.473  0.00  0.00    +0.000 C 
ATOM     30  N   UNL     1      49.761   1.964  16.318  0.00  0.00    +0.000 NA
ATOM     31  C   UNL     1      48.468   2.080  16.228  0.00  0.00    +0.000 C 
ATOM     32  N   UNL     1      47.835   2.785  17.239  0.00  0.00    +0.000 NA
ENDBRANCH  27  28
ENDBRANCH  25  27
ENDBRANCH  24  25
ENDBRANCH  21  24
ENDBRANCH  17  18
ENDBRANCH   3  17
TORSDOF 7
ENDMDL
MODEL 6
REMARK VINA RESULT:    -6.401      3.326      5.269
REMARK INTER + INTRA:          -9.908
REMARK INTER:                  -9.091
REMARK INTRA:                  -0.817
REMARK UNBOUND:                -0.888
REMARK  Name = 
REMARK  8 active torsions:
REMARK  status: ('A' for Active; 'I' for Inactive)
REMARK    1  A    between atoms: C_1  and  C_2
REMARK    2  A    between atoms: C_7  and  C_8
REMARK    3  A    between atoms: N_10  and  C_11
REMARK    4  A    between atoms: C_11  and  C_12
REMARK    5  A    between atoms: C_15  and  C_16
REMARK    6  A    between atoms: C_16  and  N_17
REMARK    7  A    between atoms: N_17  and  C_18
REMARK    8  A    between atoms: C_18  and  C_19
REMARK                            x       y       z     vdW  Elec       q    Type
REMARK                         _______ _______ _______ _____ _____    ______ ____
ROOT
ATOM      1  C   UNL     1      49.444   7.734  14.130  0.00  0.00    +0.000 C 
ATOM      2  O   UNL     1      50.098   6.879  14.722  0.00  0.00    +0.000 OA
ATOM      3  N   UNL     1      48.124   7.536  13.824  0.00  0.00    +0.000 N 
ATOM      4  H   UNL     1      47.585   8.245  13.334  0.00  0.00    +0.000 HD
ENDROOT
BRANCH   1  11
ATOM      5  C   UNL     1      52.853  11.311   9.368  0.00  0.00    +0.000 C 
ATOM      6  C   UNL     1      52.110  10.715  10.527  0.00  0.00    +0.000 A 
ATOM      7  N   UNL     1      51.845  11.411  11.587  0.00  0.00    +0.000 NA
ATOM      8  C   UNL     1      51.168  10.737  12.554  0.00  0.00    +0.000 A 
ATOM      9  S   UNL     1      50.743  11.508  14.010  0.00  0.00    +0.000 S 
ATOM     10  C   UNL     1      49.997  10.095  14.603  0.00  0.00    +0.000 A 
ATOM     11  C   UNL     1      50.052   9.016  13.727  0.00  0.00    +0.000 A 
ATOM     12  C   UNL     1      50.747   9.418  12.521  0.00  0.00    +0.000 A 
ATOM     13  C   UNL     1      51.067   8.681  11.314  0.00  0.00    +0.000 A 
ATOM     14  O   UNL     1      50.767   7.509  11.116  0.00  0.00    +0.000 OA
ATOM     15  N   UNL     1      51.749   9.400  10.363  0.00  0.00    +0.000 N 
ATOM     16  H   UNL     1      51.979   8.899   9.519  0.00  0.00    +0.000 HD
ENDBRANCH   1  11
BRANCH   3  17
ATOM     17  C   UNL     1      47.445   6.316  14.181  0.00  0.00    +0.000 C 
BRANCH  17  18
ATOM     18  C   UNL     1      46.564   5.825  13.062  0.00  0.00    +0.000 A 
ATOM     19  C   UNL     1      46.609   6.426  11.797  0.00  0.00    +0.000 A 
ATOM     20  C   UNL     1      45.786   5.969  10.763  0.00  0.00    +0.000 A 
ATOM     21  C   UNL     1      44.896   4.906  10.973  0.00  0.00    +0.000 A 
ATOM     22  C   UNL     1      44.835   4.322  12.245  0.00  0.00    +0.000 A 
ATOM     23  C   UNL     1      45.657   4.780  13.280  0.00  0.00    +0.000 A 
BRANCH  21  24
ATOM     24  C   UNL     1      44.000   4.416   9.859  0.00  0.00    +0.000 C 
BRANCH  24  25
ATOM     25  N   UNL     1      44.754   4.199   8.622  0.00  0.00    +0.000 NA
ATOM     26  H   UNL     1      45.694   4.584   8.746  0.00  0.00    +0.000 HD
BRANCH  25  27
ATOM     27  C   UNL     1      44.862   2.768   8.329  0.00  0.00    +0.000 C 
BRANCH  27  28
ATOM     28  C   UNL     1      46.156   2.519   7.615  0.00  0.00    +0.000 C 
ATOM     29  C   UNL     1      46.864   1.248   7.641  0.00  0.00    +0.000 C 
ATOM     30  N   UNL     1      47.984   1.398   6.867  0.00  0.00    +0.000 NA
ATOM     31  C   UNL     1      47.905   2.625   6.441  0.00  0.00    +0.000 C 
ATOM     32  N   UNL     1      46.806   3.359   6.859  0.00  0.00    +0.000 NA
ENDBRANCH  27  28
ENDBRANCH  25  27
ENDBRANCH  24  25
ENDBRANCH  21  24
ENDBRANCH  17  18
ENDBRANCH   3  17
TORSDOF 7
ENDMDL
MODEL 7
REMARK VINA RESULT:    -6.252      2.921      8.862
REMARK INTER + INTRA:          -9.699
REMARK INTER:                  -8.668
REMARK INTRA:                  -1.031
REMARK UNBOUND:                -0.888
REMARK  Name = 
REMARK  8 active torsions:
REMARK  status: ('A' for Active; 'I' for Inactive)
REMARK    1  A    between atoms: C_1  and  C_2
REMARK    2  A    between atoms: C_7  and  C_8
REMARK    3  A    between atoms: N_10  and  C_11
REMARK    4  A    between atoms: C_11  and  C_12
REMARK    5  A    between atoms: C_15  and  C_16
REMARK    6  A    between atoms: C_16  and  N_17
REMARK    7  A    between atoms: N_17  and  C_18
REMARK    8  A    between atoms: C_18  and  C_19
REMARK                            x       y       z     vdW  Elec       q    Type
REMARK                         _______ _______ _______ _____ _____    ______ ____
ROOT
ATOM      1  C   UNL     1      44.299   5.164  11.022  0.00  0.00    +0.000 C 
ATOM      2  O   UNL     1      43.170   5.425  11.433  0.00  0.00    +0.000 OA
ATOM      3  N   UNL     1      45.374   5.948  11.345  0.00  0.00    +0.000 N 
ATOM      4  H   UNL     1      46.306   5.730  11.003  0.00  0.00    +0.000 HD
ENDROOT
BRANCH   1  11
ATOM      5  C   UNL     1      47.607   2.485   5.640  0.00  0.00    +0.000 C 
ATOM      6  C   UNL     1      46.793   2.871   6.839  0.00  0.00    +0.000 A 
ATOM      7  N   UNL     1      46.002   2.024   7.418  0.00  0.00    +0.000 NA
ATOM      8  C   UNL     1      45.329   2.517   8.491  0.00  0.00    +0.000 A 
ATOM      9  S   UNL     1      44.249   1.533   9.363  0.00  0.00    +0.000 S 
ATOM     10  C   UNL     1      43.873   2.802  10.435  0.00  0.00    +0.000 A 
ATOM     11  C   UNL     1      44.545   3.990  10.164  0.00  0.00    +0.000 A 
ATOM     12  C   UNL     1      45.402   3.799   9.011  0.00  0.00    +0.000 A 
ATOM     13  C   UNL     1      46.300   4.709   8.329  0.00  0.00    +0.000 A 
ATOM     14  O   UNL     1      46.488   5.876   8.658  0.00  0.00    +0.000 OA
ATOM     15  N   UNL     1      46.961   4.170   7.253  0.00  0.00    +0.000 N 
ATOM     16  H   UNL     1      47.589   4.793   6.769  0.00  0.00    +0.000 HD
ENDBRANCH   1  11
BRANCH   3  17
ATOM     17  C   UNL     1      45.230   7.113  12.181  0.00  0.00    +0.000 C 
BRANCH  17  18
ATOM     18  C   UNL     1      46.432   7.310  13.068  0.00  0.00    +0.000 A 
ATOM     19  C   UNL     1      47.187   6.214  13.504  0.00  0.00    +0.000 A 
ATOM     20  C   UNL     1      48.300   6.403  14.331  0.00  0.00    +0.000 A 
ATOM     21  C   UNL     1      48.677   7.688  14.743  0.00  0.00    +0.000 A 
ATOM     22  C   UNL     1      47.906   8.780  14.324  0.00  0.00    +0.000 A 
ATOM     23  C   UNL     1      46.792   8.593  13.499  0.00  0.00    +0.000 A 
BRANCH  21  24
ATOM     24  C   UNL     1      49.874   7.893  15.642  0.00  0.00    +0.000 C 
BRANCH  24  25
ATOM     25  N   UNL     1      50.740   6.713  15.657  0.00  0.00    +0.000 NA
ATOM     26  H   UNL     1      51.625   6.955  15.204  0.00  0.00    +0.000 HD
BRANCH  25  27
ATOM     27  C   UNL     1      51.012   6.291  17.034  0.00  0.00    +0.000 C 
BRANCH  27  28
ATOM     28  C   UNL     1      49.976   5.290  17.444  0.00  0.00    +0.000 C 
ATOM     29  C   UNL     1      49.046   5.491  18.546  0.00  0.00    +0.000 C 
ATOM     30  N   UNL     1      48.250   4.379  18.606  0.00  0.00    +0.000 NA
ATOM     31  C   UNL     1      48.681   3.635  17.629  0.00  0.00    +0.000 C 
ATOM     32  N   UNL     1      49.731   4.141  16.879  0.00  0.00    +0.000 NA
ENDBRANCH  27  28
ENDBRANCH  25  27
ENDBRANCH  24  25
ENDBRANCH  21  24
ENDBRANCH  17  18
ENDBRANCH   3  17
TORSDOF 7
ENDMDL
MODEL 8
REMARK VINA RESULT:    -6.087      4.869      7.125
REMARK INTER + INTRA:          -9.466
REMARK INTER:                  -8.640
REMARK INTRA:                  -0.826
REMARK UNBOUND:                -0.888
REMARK  Name = 
REMARK  8 active torsions:
REMARK  status: ('A' for Active; 'I' for Inactive)
REMARK    1  A    between atoms: C_1  and  C_2
REMARK    2  A    between atoms: C_7  and  C_8
REMARK    3  A    between atoms: N_10  and  C_11
REMARK    4  A    between atoms: C_11  and  C_12
REMARK    5  A    between atoms: C_15  and  C_16
REMARK    6  A    between atoms: C_16  and  N_17
REMARK    7  A    between atoms: N_17  and  C_18
REMARK    8  A    between atoms: C_18  and  C_19
REMARK                            x       y       z     vdW  Elec       q    Type
REMARK                         _______ _______ _______ _____ _____    ______ ____
ROOT
ATOM      1  C   UNL     1      52.162   7.882  10.535  0.00  0.00    +0.000 C 
ATOM      2  O   UNL     1      52.170   9.038  10.115  0.00  0.00    +0.000 OA
ATOM      3  N   UNL     1      51.121   7.405  11.286  0.00  0.00    +0.000 N 
ATOM      4  H   UNL     1      51.118   6.449  11.631  0.00  0.00    +0.000 HD
ENDROOT
BRANCH   1  11
ATOM      5  C   UNL     1      55.119   3.560   6.101  0.00  0.00    +0.000 C 
ATOM      6  C   UNL     1      54.642   4.458   7.203  0.00  0.00    +0.000 A 
ATOM      7  N   UNL     1      55.294   4.562   8.318  0.00  0.00    +0.000 NA
ATOM      8  C   UNL     1      54.740   5.411   9.223  0.00  0.00    +0.000 A 
ATOM      9  S   UNL     1      55.473   5.661  10.738  0.00  0.00    +0.000 S 
ATOM     10  C   UNL     1      54.255   6.756  11.207  0.00  0.00    +0.000 A 
ATOM     11  C   UNL     1      53.273   6.957  10.243  0.00  0.00    +0.000 A 
ATOM     12  C   UNL     1      53.580   6.154   9.077  0.00  0.00    +0.000 A 
ATOM     13  C   UNL     1      52.886   6.004   7.813  0.00  0.00    +0.000 A 
ATOM     14  O   UNL     1      51.850   6.588   7.516  0.00  0.00    +0.000 OA
ATOM     15  N   UNL     1      53.481   5.138   6.928  0.00  0.00    +0.000 N 
ATOM     16  H   UNL     1      53.008   5.024   6.045  0.00  0.00    +0.000 HD
ENDBRANCH   1  11
BRANCH   3  17
ATOM     17  C   UNL     1      49.991   8.235  11.617  0.00  0.00    +0.000 C 
BRANCH  17  18
ATOM     18  C   UNL     1      48.805   7.409  12.045  0.00  0.00    +0.000 A 
ATOM     19  C   UNL     1      48.823   6.701  13.253  0.00  0.00    +0.000 A 
ATOM     20  C   UNL     1      47.720   5.932  13.642  0.00  0.00    +0.000 A 
ATOM     21  C   UNL     1      46.580   5.852  12.830  0.00  0.00    +0.000 A 
ATOM     22  C   UNL     1      46.574   6.544  11.611  0.00  0.00    +0.000 A 
ATOM     23  C   UNL     1      47.677   7.310  11.221  0.00  0.00    +0.000 A 
BRANCH  21  24
ATOM     24  C   UNL     1      45.391   5.018  13.245  0.00  0.00    +0.000 C 
BRANCH  24  25
ATOM     25  N   UNL     1      45.493   3.649  12.734  0.00  0.00    +0.000 NA
ATOM     26  H   UNL     1      45.651   3.020  13.526  0.00  0.00    +0.000 HD
BRANCH  25  27
ATOM     27  C   UNL     1      44.252   3.259  12.058  0.00  0.00    +0.000 C 
BRANCH  27  28
ATOM     28  C   UNL     1      44.440   3.416  10.580  0.00  0.00    +0.000 C 
ATOM     29  C   UNL     1      44.943   2.362   9.711  0.00  0.00    +0.000 C 
ATOM     30  N   UNL     1      44.959   2.866   8.438  0.00  0.00    +0.000 NA
ATOM     31  C   UNL     1      44.501   4.077   8.578  0.00  0.00    +0.000 C 
ATOM     32  N   UNL     1      44.161   4.468   9.863  0.00  0.00    +0.000 NA
ENDBRANCH  27  28
ENDBRANCH  25  27
ENDBRANCH  24  25
ENDBRANCH  21  24
ENDBRANCH  17  18
ENDBRANCH   3  17
TORSDOF 7
ENDMDL
MODEL 9
REMARK VINA RESULT:    -5.963      2.028      2.979
REMARK INTER + INTRA:          -9.291
REMARK INTER:                  -8.245
REMARK INTRA:                  -1.046
REMARK UNBOUND:                -0.888
REMARK  Name = 
REMARK  8 active torsions:
REMARK  status: ('A' for Active; 'I' for Inactive)
REMARK    1  A    between atoms: C_1  and  C_2
REMARK    2  A    between atoms: C_7  and  C_8
REMARK    3  A    between atoms: N_10  and  C_11
REMARK    4  A    between atoms: C_11  and  C_12
REMARK    5  A    between atoms: C_15  and  C_16
REMARK    6  A    between atoms: C_16  and  N_17
REMARK    7  A    between atoms: N_17  and  C_18
REMARK    8  A    between atoms: C_18  and  C_19
REMARK                            x       y       z     vdW  Elec       q    Type
REMARK                         _______ _______ _______ _____ _____    ______ ____
ROOT
ATOM      1  C   UNL     1      50.859   8.509  13.823  0.00  0.00    +0.000 C 
ATOM      2  O   UNL     1      51.549   8.434  12.809  0.00  0.00    +0.000 OA
ATOM      3  N   UNL     1      49.545   8.892  13.764  0.00  0.00    +0.000 N 
ATOM      4  H   UNL     1      48.977   8.954  14.604  0.00  0.00    +0.000 HD
ENDROOT
BRANCH   1  11
ATOM      5  C   UNL     1      50.334   4.872  19.619  0.00  0.00    +0.000 C 
ATOM      6  C   UNL     1      50.631   5.752  18.441  0.00  0.00    +0.000 A 
ATOM      7  N   UNL     1      51.660   6.539  18.430  0.00  0.00    +0.000 NA
ATOM      8  C   UNL     1      51.800   7.276  17.297  0.00  0.00    +0.000 A 
ATOM      9  S   UNL     1      53.100   8.360  17.124  0.00  0.00    +0.000 S 
ATOM     10  C   UNL     1      52.574   8.827  15.572  0.00  0.00    +0.000 A 
ATOM     11  C   UNL     1      51.415   8.185  15.150  0.00  0.00    +0.000 A 
ATOM     12  C   UNL     1      50.975   7.271  16.184  0.00  0.00    +0.000 A 
ATOM     13  C   UNL     1      49.837   6.374  16.244  0.00  0.00    +0.000 A 
ATOM     14  O   UNL     1      49.010   6.241  15.348  0.00  0.00    +0.000 OA
ATOM     15  N   UNL     1      49.735   5.647  17.405  0.00  0.00    +0.000 N 
ATOM     16  H   UNL     1      48.948   5.020  17.459  0.00  0.00    +0.000 HD
ENDBRANCH   1  11
BRANCH   3  17
ATOM     17  C   UNL     1      48.916   9.225  12.510  0.00  0.00    +0.000 C 
BRANCH  17  18
ATOM     18  C   UNL     1      47.676   8.400  12.279  0.00  0.00    +0.000 A 
ATOM     19  C   UNL     1      47.761   7.016  12.083  0.00  0.00    +0.000 A 
ATOM     20  C   UNL     1      46.606   6.257  11.864  0.00  0.00    +0.000 A 
ATOM     21  C   UNL     1      45.344   6.866  11.831  0.00  0.00    +0.000 A 
ATOM     22  C   UNL     1      45.264   8.253  12.005  0.00  0.00    +0.000 A 
ATOM     23  C   UNL     1      46.418   9.013  12.222  0.00  0.00    +0.000 A 
BRANCH  21  24
ATOM     24  C   UNL     1      44.097   6.048  11.589  0.00  0.00    +0.000 C 
BRANCH  24  25
ATOM     25  N   UNL     1      44.070   5.503  10.230  0.00  0.00    +0.000 NA
ATOM     26  H   UNL     1      44.993   5.640   9.809  0.00  0.00    +0.000 HD
BRANCH  25  27
ATOM     27  C   UNL     1      43.770   4.069  10.257  0.00  0.00    +0.000 C 
BRANCH  27  28
ATOM     28  C   UNL     1      44.705   3.364   9.322  0.00  0.00    +0.000 C 
ATOM     29  C   UNL     1      45.408   4.023   8.231  0.00  0.00    +0.000 C 
ATOM     30  N   UNL     1      46.174   3.069   7.616  0.00  0.00    +0.000 NA
ATOM     31  C   UNL     1      45.933   1.988   8.300  0.00  0.00    +0.000 C 
ATOM     32  N   UNL     1      45.048   2.107   9.359  0.00  0.00    +0.000 NA
ENDBRANCH  27  28
ENDBRANCH  25  27
ENDBRANCH  24  25
ENDBRANCH  21  24
ENDBRANCH  17  18
ENDBRANCH   3  17
TORSDOF 7
ENDMDL
