MODEL 1
REMARK VINA RESULT:    -7.647      0.000      0.000
REMARK INTER + INTRA:         -12.252
REMARK INTER:                 -10.776
REMARK INTRA:                  -1.476
REMARK UNBOUND:                -1.476
REMARK  Name = 
REMARK  8 active torsions:
REMARK  status: ('A' for Active; 'I' for Inactive)
REMARK    1  A    between atoms: C_1  and  O_2
REMARK    2  A    between atoms: O_2  and  C_3
REMARK    3  A    between atoms: C_10  and  C_11
REMARK    4  A    between atoms: N_13  and  C_14
REMARK    5  A    between atoms: C_14  and  C_15
REMARK    6  A    between atoms: C_18  and  N_19
REMARK    7  A    between atoms: N_19  and  C_20
REMARK    8  A    between atoms: C_20  and  C_21
REMARK                            x       y       z     vdW  Elec       q    Type
REMARK                         _______ _______ _______ _____ _____    ______ ____
ROOT
ATOM      1  C   UNL     1      46.175   7.859  12.853  0.00  0.00    +0.000 C 
ENDROOT
BRANCH   1   2
ATOM      2  C   UNL     1      45.737   6.749  11.933  0.00  0.00    +0.000 A 
ATOM      3  C   UNL     1      44.632   5.963  12.270  0.00  0.00    +0.000 A 
ATOM      4  C   UNL     1      44.213   4.914  11.442  0.00  0.00    +0.000 A 
ATOM      5  C   UNL     1      44.894   4.593  10.264  0.00  0.00    +0.000 A 
ATOM      6  C   UNL     1      45.980   5.408   9.912  0.00  0.00    +0.000 A 
ATOM      7  C   UNL     1      46.405   6.466  10.736  0.00  0.00    +0.000 A 
BRANCH   5   8
ATOM      8  N   UNL     1      44.493   3.571   9.389  0.00  0.00    +0.000 N 
ATOM      9  H   UNL     1      43.601   3.173   9.679  0.00  0.00    +0.000 HD
BRANCH   8  10
ATOM     10  C   UNL     1      44.617   3.773   7.944  0.00  0.00    +0.000 C 
BRANCH  10  11
ATOM     11  C   UNL     1      45.482   2.688   7.277  0.00  0.00    +0.000 C 
ATOM     12  C   UNL     1      45.946   1.624   8.282  0.00  0.00    +0.000 C 
ATOM     13  C   UNL     1      46.962   0.675   7.659  0.00  0.00    +0.000 C 
ATOM     14  O   UNL     1      48.071   1.398   7.128  0.00  0.00    +0.000 OA
ATOM     15  C   UNL     1      47.678   2.280   6.080  0.00  0.00    +0.000 C 
ATOM     16  C   UNL     1      46.709   3.333   6.602  0.00  0.00    +0.000 C 
ENDBRANCH  10  11
ENDBRANCH   8  10
ENDBRANCH   5   8
ENDBRANCH   1   2
BRANCH   1  19
ATOM     17  C   UNL     1      48.159   7.093  14.071  0.00  0.00    +0.000 C 
ATOM     18  O   UNL     1      48.848   7.263  13.067  0.00  0.00    +0.000 OA
ATOM     19  N   UNL     1      46.817   7.358  14.054  0.00  0.00    +0.000 N 
ATOM     20  H   UNL     1      46.260   7.266  14.894  0.00  0.00    +0.000 HD
BRANCH  17  28
ATOM     21  C   UNL     1      47.523   4.379  16.123  0.00  0.00    +0.000 A 
ATOM     22  N   UNL     1      47.517   3.421  17.075  0.00  0.00    +0.000 NA
ATOM     23  C   UNL     1      48.434   3.480  18.043  0.00  0.00    +0.000 A 
ATOM     24  N   UNL     1      49.375   4.406  18.190  0.00  0.00    +0.000 NA
ATOM     25  C   UNL     1      49.341   5.347  17.231  0.00  0.00    +0.000 A 
ATOM     26  S   UNL     1      50.473   6.610  17.275  0.00  0.00    +0.000 S 
ATOM     27  C   UNL     1      49.832   7.295  15.862  0.00  0.00    +0.000 A 
ATOM     28  C   UNL     1      48.764   6.587  15.322  0.00  0.00    +0.000 A 
ATOM     29  C   UNL     1      48.462   5.427  16.156  0.00  0.00    +0.000 A 
BRANCH  21  31
ATOM     30  C   UNL     1      47.037   3.630  13.976  0.00  0.00    +0.000 C 
ATOM     31  O   UNL     1      46.561   4.314  15.136  0.00  0.00    +0.000 OA
ENDBRANCH  21  31
ENDBRANCH  17  28
ENDBRANCH   1  19
TORSDOF 7
ENDMDL
MODEL 2
REMARK VINA RESULT:    -7.257      1.978      3.542
REMARK INTER + INTRA:         -11.702
REMARK INTER:                 -10.450
REMARK INTRA:                  -1.252
REMARK UNBOUND:                -1.476
REMARK  Name = 
REMARK  8 active torsions:
REMARK  status: ('A' for Active; 'I' for Inactive)
REMARK    1  A    between atoms: C_1  and  O_2
REMARK    2  A    between atoms: O_2  and  C_3
REMARK    3  A    between atoms: C_10  and  C_11
REMARK    4  A    between atoms: N_13  and  C_14
REMARK    5  A    between atoms: C_14  and  C_15
REMARK    6  A    between atoms: C_18  and  N_19
REMARK    7  A    between atoms: N_19  and  C_20
REMARK    8  A    between atoms: C_20  and  C_21
REMARK                            x       y       z     vdW  Elec       q    Type
REMARK                         _______ _______ _______ _____ _____    ______ ____
ROOT
ATOM      1  C   UNL     1      46.636   4.747  14.440  0.00  0.00    +0.000 C 
ENDROOT
BRANCH   1   2
ATOM      2  C   UNL     1      46.105   4.770  13.029  0.00  0.00    +0.000 A 
ATOM      3  C   UNL     1      45.404   3.668  12.533  0.00  0.00    +0.000 A 
ATOM      4  C   UNL     1      44.915   3.655  11.221  0.00  0.00    +0.000 A 
ATOM      5  C   UNL     1      45.130   4.726  10.348  0.00  0.00    +0.000 A 
ATOM      6  C   UNL     1      45.804   5.844  10.862  0.00  0.00    +0.000 A 
ATOM      7  C   UNL     1      46.294   5.867  12.181  0.00  0.00    +0.000 A 
BRANCH   5   8
ATOM      8  N   UNL     1      44.634   4.770   9.035  0.00  0.00    +0.000 N 
ATOM      9  H   UNL     1      45.040   5.548   8.519  0.00  0.00    +0.000 HD
BRANCH   8  10
ATOM     10  C   UNL     1      44.533   3.528   8.265  0.00  0.00    +0.000 C 
BRANCH  10  11
ATOM     11  C   UNL     1      45.914   2.919   7.960  0.00  0.00    +0.000 C 
ATOM     12  C   UNL     1      46.405   3.284   6.552  0.00  0.00    +0.000 C 
ATOM     13  C   UNL     1      47.668   2.514   6.187  0.00  0.00    +0.000 C 
ATOM     14  O   UNL     1      47.459   1.108   6.310  0.00  0.00    +0.000 OA
ATOM     15  C   UNL     1      47.155   0.732   7.650  0.00  0.00    +0.000 C 
ATOM     16  C   UNL     1      45.858   1.386   8.109  0.00  0.00    +0.000 C 
ENDBRANCH  10  11
ENDBRANCH   8  10
ENDBRANCH   5   8
ENDBRANCH   1   2
BRANCH   1  19
ATOM     17  C   UNL     1      48.469   5.819  15.663  0.00  0.00    +0.000 C 
ATOM     18  O   UNL     1      48.679   4.773  16.276  0.00  0.00    +0.000 OA
ATOM     19  N   UNL     1      47.467   5.898  14.735  0.00  0.00    +0.000 N 
ATOM     20  H   UNL     1      47.328   6.743  14.195  0.00  0.00    +0.000 HD
BRANCH  17  28
ATOM     21  C   UNL     1      50.089   8.108  13.634  0.00  0.00    +0.000 A 
ATOM     22  N   UNL     1      50.785   9.136  13.105  0.00  0.00    +0.000 NA
ATOM     23  C   UNL     1      51.333  10.027  13.935  0.00  0.00    +0.000 A 
ATOM     24  N   UNL     1      51.280  10.014  15.261  0.00  0.00    +0.000 NA
ATOM     25  C   UNL     1      50.589   8.970  15.750  0.00  0.00    +0.000 A 
ATOM     26  S   UNL     1      50.430   8.799  17.430  0.00  0.00    +0.000 S 
ATOM     27  C   UNL     1      49.507   7.387  17.246  0.00  0.00    +0.000 A 
ATOM     28  C   UNL     1      49.290   7.021  15.923  0.00  0.00    +0.000 A 
ATOM     29  C   UNL     1      49.954   7.964  15.027  0.00  0.00    +0.000 A 
BRANCH  21  31
ATOM     30  C   UNL     1      49.317   7.745  11.471  0.00  0.00    +0.000 C 
ATOM     31  O   UNL     1      49.539   7.187  12.766  0.00  0.00    +0.000 OA
ENDBRANCH  21  31
ENDBRANCH  17  28
ENDBRANCH   1  19
TORSDOF 7
ENDMDL
MODEL 3
REMARK VINA RESULT:    -7.221      1.610      2.104
REMARK INTER + INTRA:         -11.653
REMARK INTER:                 -10.687
REMARK INTRA:                  -0.966
REMARK UNBOUND:                -1.476
REMARK  Name = 
REMARK  8 active torsions:
REMARK  status: ('A' for Active; 'I' for Inactive)
REMARK    1  A    between atoms: C_1  and  O_2
REMARK    2  A    between atoms: O_2  and  C_3
REMARK    3  A    between atoms: C_10  and  C_11
REMARK    4  A    between atoms: N_13  and  C_14
REMARK    5  A    between atoms: C_14  and  C_15
REMARK    6  A    between atoms: C_18  and  N_19
REMARK    7  A    between atoms: N_19  and  C_20
REMARK    8  A    between atoms: C_20  and  C_21
REMARK                            x       y       z     vdW  Elec       q    Type
REMARK                         _______ _______ _______ _____ _____    ______ ____
ROOT
ATOM      1  C   UNL     1      47.510   7.366  13.061  0.00  0.00    +0.000 C 
ENDROOT
BRANCH   1   2
ATOM      2  C   UNL     1      46.692   6.201  12.566  0.00  0.00    +0.000 A 
ATOM      3  C   UNL     1      46.765   4.971  13.226  0.00  0.00    +0.000 A 
ATOM      4  C   UNL     1      46.029   3.867  12.778  0.00  0.00    +0.000 A 
ATOM      5  C   UNL     1      45.216   3.940  11.643  0.00  0.00    +0.000 A 
ATOM      6  C   UNL     1      45.119   5.186  11.005  0.00  0.00    +0.000 A 
ATOM      7  C   UNL     1      45.852   6.301  11.452  0.00  0.00    +0.000 A 
BRANCH   5   8
ATOM      8  N   UNL     1      44.438   2.869  11.174  0.00  0.00    +0.000 N 
ATOM      9  H   UNL     1      43.595   2.760  11.734  0.00  0.00    +0.000 HD
BRANCH   8  10
ATOM     10  C   UNL     1      44.225   2.714   9.734  0.00  0.00    +0.000 C 
BRANCH  10  11
ATOM     11  C   UNL     1      45.551   2.634   8.955  0.00  0.00    +0.000 C 
ATOM     12  C   UNL     1      45.600   3.644   7.799  0.00  0.00    +0.000 C 
ATOM     13  C   UNL     1      46.820   3.419   6.915  0.00  0.00    +0.000 C 
ATOM     14  O   UNL     1      46.853   2.079   6.428  0.00  0.00    +0.000 OA
ATOM     15  C   UNL     1      46.967   1.131   7.486  0.00  0.00    +0.000 C 
ATOM     16  C   UNL     1      45.755   1.208   8.407  0.00  0.00    +0.000 C 
ENDBRANCH  10  11
ENDBRANCH   8  10
ENDBRANCH   5   8
ENDBRANCH   1   2
BRANCH   1  19
ATOM     17  C   UNL     1      48.729   7.139  15.175  0.00  0.00    +0.000 C 
ATOM     18  O   UNL     1      49.745   6.818  14.561  0.00  0.00    +0.000 OA
ATOM     19  N   UNL     1      47.568   7.423  14.509  0.00  0.00    +0.000 N 
ATOM     20  H   UNL     1      46.747   7.735  15.011  0.00  0.00    +0.000 HD
BRANCH  17  28
ATOM     21  C   UNL     1      48.984   4.789  17.704  0.00  0.00    +0.000 A 
ATOM     22  N   UNL     1      49.080   4.115  18.869  0.00  0.00    +0.000 NA
ATOM     23  C   UNL     1      49.059   4.810  20.009  0.00  0.00    +0.000 A 
ATOM     24  N   UNL     1      48.941   6.127  20.134  0.00  0.00    +0.000 NA
ATOM     25  C   UNL     1      48.836   6.760  18.953  0.00  0.00    +0.000 A 
ATOM     26  S   UNL     1      48.672   8.448  18.934  0.00  0.00    +0.000 S 
ATOM     27  C   UNL     1      48.618   8.470  17.239  0.00  0.00    +0.000 A 
ATOM     28  C   UNL     1      48.734   7.215  16.652  0.00  0.00    +0.000 A 
ATOM     29  C   UNL     1      48.849   6.189  17.685  0.00  0.00    +0.000 A 
BRANCH  21  31
ATOM     30  C   UNL     1      47.792   3.303  16.370  0.00  0.00    +0.000 C 
ATOM     31  O   UNL     1      48.993   4.058  16.533  0.00  0.00    +0.000 OA
ENDBRANCH  21  31
ENDBRANCH  17  28
ENDBRANCH   1  19
TORSDOF 7
ENDMDL
MODEL 4
REMARK VINA RESULT:    -7.066      2.190      3.164
REMARK INTER + INTRA:         -11.434
REMARK INTER:                 -10.510
REMARK INTRA:                  -0.924
REMARK UNBOUND:                -1.476
REMARK  Name = 
REMARK  8 active torsions:
REMARK  status: ('A' for Active; 'I' for Inactive)
REMARK    1  A    between atoms: C_1  and  O_2
REMARK    2  A    between atoms: O_2  and  C_3
REMARK    3  A    between atoms: C_10  and  C_11
REMARK    4  A    between atoms: N_13  and  C_14
REMARK    5  A    between atoms: C_14  and  C_15
REMARK    6  A    between atoms: C_18  and  N_19
REMARK    7  A    between atoms: N_19  and  C_20
REMARK    8  A    between atoms: C_20  and  C_21
REMARK                            x       y       z     vdW  Elec       q    Type
REMARK                         _______ _______ _______ _____ _____    ______ ____
ROOT
ATOM      1  C   UNL     1      46.698   4.374  14.623  0.00  0.00    +0.000 C 
ENDROOT
BRANCH   1   2
ATOM      2  C   UNL     1      46.202   4.548  13.210  0.00  0.00    +0.000 A 
ATOM      3  C   UNL     1      45.448   3.537  12.609  0.00  0.00    +0.000 A 
ATOM      4  C   UNL     1      44.989   3.664  11.292  0.00  0.00    +0.000 A 
ATOM      5  C   UNL     1      45.286   4.791  10.519  0.00  0.00    +0.000 A 
ATOM      6  C   UNL     1      46.012   5.819  11.138  0.00  0.00    +0.000 A 
ATOM      7  C   UNL     1      46.474   5.700  12.463  0.00  0.00    +0.000 A 
BRANCH   5   8
ATOM      8  N   UNL     1      44.823   4.975   9.206  0.00  0.00    +0.000 N 
ATOM      9  H   UNL     1      45.315   5.742   8.751  0.00  0.00    +0.000 HD
BRANCH   8  10
ATOM     10  C   UNL     1      44.613   3.807   8.349  0.00  0.00    +0.000 C 
BRANCH  10  11
ATOM     11  C   UNL     1      45.932   3.084   8.018  0.00  0.00    +0.000 C 
ATOM     12  C   UNL     1      46.398   3.367   6.582  0.00  0.00    +0.000 C 
ATOM     13  C   UNL     1      47.584   2.492   6.200  0.00  0.00    +0.000 C 
ATOM     14  O   UNL     1      47.274   1.110   6.376  0.00  0.00    +0.000 OA
ATOM     15  C   UNL     1      46.991   0.799   7.737  0.00  0.00    +0.000 C 
ATOM     16  C   UNL     1      45.765   1.565   8.219  0.00  0.00    +0.000 C 
ENDBRANCH  10  11
ENDBRANCH   8  10
ENDBRANCH   5   8
ENDBRANCH   1   2
BRANCH   1  19
ATOM     17  C   UNL     1      48.385   5.442  16.044  0.00  0.00    +0.000 C 
ATOM     18  O   UNL     1      48.710   4.344  16.493  0.00  0.00    +0.000 OA
ATOM     19  N   UNL     1      47.388   5.552  15.114  0.00  0.00    +0.000 N 
ATOM     20  H   UNL     1      47.156   6.449  14.708  0.00  0.00    +0.000 HD
BRANCH  17  28
ATOM     21  C   UNL     1      48.659   7.023  19.110  0.00  0.00    +0.000 A 
ATOM     22  N   UNL     1      48.945   7.830  20.154  0.00  0.00    +0.000 NA
ATOM     23  C   UNL     1      49.721   8.895  19.942  0.00  0.00    +0.000 A 
ATOM     24  N   UNL     1      50.252   9.272  18.784  0.00  0.00    +0.000 NA
ATOM     25  C   UNL     1      49.934   8.452  17.768  0.00  0.00    +0.000 A 
ATOM     26  S   UNL     1      50.527   8.794  16.215  0.00  0.00    +0.000 S 
ATOM     27  C   UNL     1      49.763   7.422  15.572  0.00  0.00    +0.000 A 
ATOM     28  C   UNL     1      49.059   6.674  16.508  0.00  0.00    +0.000 A 
ATOM     29  C   UNL     1      49.150   7.304  17.822  0.00  0.00    +0.000 A 
BRANCH  21  31
ATOM     30  C   UNL     1      48.559   4.860  19.958  0.00  0.00    +0.000 C 
ATOM     31  O   UNL     1      47.845   5.933  19.342  0.00  0.00    +0.000 OA
ENDBRANCH  21  31
ENDBRANCH  17  28
ENDBRANCH   1  19
TORSDOF 7
ENDMDL
MODEL 5
REMARK VINA RESULT:    -6.917      2.778      3.686
REMARK INTER + INTRA:         -11.223
REMARK INTER:                  -9.889
REMARK INTRA:                  -1.335
REMARK UNBOUND:                -1.476
REMARK  Name = 
REMARK  8 active torsions:
REMARK  status: ('A' for Active; 'I' for Inactive)
REMARK    1  A    between atoms: C_1  and  O_2
REMARK    2  A    between atoms: O_2  and  C_3
REMARK    3  A    between atoms: C_10  and  C_11
REMARK    4  A    between atoms: N_13  and  C_14
REMARK    5  A    between atoms: C_14  and  C_15
REMARK    6  A    between atoms: C_18  and  N_19
REMARK    7  A    between atoms: N_19  and  C_20
REMARK    8  A    between atoms: C_20  and  C_21
REMARK                            x       y       z     vdW  Elec       q    Type
REMARK                         _______ _______ _______ _____ _____    ______ ____
ROOT
ATOM      1  C   UNL     1      48.534   6.690  14.182  0.00  0.00    +0.000 C 
ENDROOT
BRANCH   1   2
ATOM      2  C   UNL     1      47.456   5.978  13.405  0.00  0.00    +0.000 A 
ATOM      3  C   UNL     1      46.863   6.605  12.307  0.00  0.00    +0.000 A 
ATOM      4  C   UNL     1      45.847   5.974  11.577  0.00  0.00    +0.000 A 
ATOM      5  C   UNL     1      45.369   4.708  11.931  0.00  0.00    +0.000 A 
ATOM      6  C   UNL     1      45.993   4.068  13.012  0.00  0.00    +0.000 A 
ATOM      7  C   UNL     1      47.017   4.694  13.748  0.00  0.00    +0.000 A 
BRANCH   5   8
ATOM      8  N   UNL     1      44.375   4.025  11.212  0.00  0.00    +0.000 N 
ATOM      9  H   UNL     1      43.569   3.828  11.804  0.00  0.00    +0.000 HD
BRANCH   8  10
ATOM     10  C   UNL     1      44.030   4.474   9.862  0.00  0.00    +0.000 C 
BRANCH  10  11
ATOM     11  C   UNL     1      44.627   3.560   8.775  0.00  0.00    +0.000 C 
ATOM     12  C   UNL     1      45.076   2.207   9.346  0.00  0.00    +0.000 C 
ATOM     13  C   UNL     1      45.847   1.396   8.312  0.00  0.00    +0.000 C 
ATOM     14  O   UNL     1      46.958   2.137   7.811  0.00  0.00    +0.000 OA
ATOM     15  C   UNL     1      46.547   3.324   7.138  0.00  0.00    +0.000 C 
ATOM     16  C   UNL     1      45.821   4.259   8.097  0.00  0.00    +0.000 C 
ENDBRANCH  10  11
ENDBRANCH   8  10
ENDBRANCH   5   8
ENDBRANCH   1   2
BRANCH   1  19
ATOM     17  C   UNL     1      49.065   6.374  16.553  0.00  0.00    +0.000 C 
ATOM     18  O   UNL     1      50.131   5.842  16.249  0.00  0.00    +0.000 OA
ATOM     19  N   UNL     1      48.204   6.820  15.589  0.00  0.00    +0.000 N 
ATOM     20  H   UNL     1      47.351   7.303  15.840  0.00  0.00    +0.000 HD
BRANCH  17  28
ATOM     21  C   UNL     1      47.710   8.969  18.399  0.00  0.00    +0.000 A 
ATOM     22  N   UNL     1      47.183   9.778  19.343  0.00  0.00    +0.000 NA
ATOM     23  C   UNL     1      47.031   9.299  20.579  0.00  0.00    +0.000 A 
ATOM     24  N   UNL     1      47.356   8.084  21.005  0.00  0.00    +0.000 NA
ATOM     25  C   UNL     1      47.888   7.314  20.041  0.00  0.00    +0.000 A 
ATOM     26  S   UNL     1      48.365   5.730  20.420  0.00  0.00    +0.000 S 
ATOM     27  C   UNL     1      48.870   5.452  18.824  0.00  0.00    +0.000 A 
ATOM     28  C   UNL     1      48.682   6.534  17.972  0.00  0.00    +0.000 A 
ATOM     29  C   UNL     1      48.106   7.655  18.710  0.00  0.00    +0.000 A 
BRANCH  21  31
ATOM     30  C   UNL     1      48.982  10.381  17.059  0.00  0.00    +0.000 C 
ATOM     31  O   UNL     1      47.875   9.482  17.129  0.00  0.00    +0.000 OA
ENDBRANCH  21  31
ENDBRANCH  17  28
ENDBRANCH   1  19
TORSDOF 7
ENDMDL
MODEL 6
REMARK VINA RESULT:    -6.631      2.037      3.031
REMARK INTER + INTRA:         -10.821
REMARK INTER:                  -9.864
REMARK INTRA:                  -0.957
REMARK UNBOUND:                -1.476
REMARK  Name = 
REMARK  8 active torsions:
REMARK  status: ('A' for Active; 'I' for Inactive)
REMARK    1  A    between atoms: C_1  and  O_2
REMARK    2  A    between atoms: O_2  and  C_3
REMARK    3  A    between atoms: C_10  and  C_11
REMARK    4  A    between atoms: N_13  and  C_14
REMARK    5  A    between atoms: C_14  and  C_15
REMARK    6  A    between atoms: C_18  and  N_19
REMARK    7  A    between atoms: N_19  and  C_20
REMARK    8  A    between atoms: C_20  and  C_21
REMARK                            x       y       z     vdW  Elec       q    Type
REMARK                         _______ _______ _______ _____ _____    ______ ____
ROOT
ATOM      1  C   UNL     1      47.691   6.917  13.505  0.00  0.00    +0.000 C 
ENDROOT
BRANCH   1   2
ATOM      2  C   UNL     1      46.738   6.126  12.645  0.00  0.00    +0.000 A 
ATOM      3  C   UNL     1      46.239   4.904  13.106  0.00  0.00    +0.000 A 
ATOM      4  C   UNL     1      45.366   4.140  12.322  0.00  0.00    +0.000 A 
ATOM      5  C   UNL     1      44.980   4.551  11.042  0.00  0.00    +0.000 A 
ATOM      6  C   UNL     1      45.455   5.794  10.600  0.00  0.00    +0.000 A 
ATOM      7  C   UNL     1      46.330   6.570  11.383  0.00  0.00    +0.000 A 
BRANCH   5   8
ATOM      8  N   UNL     1      44.085   3.833  10.233  0.00  0.00    +0.000 N 
ATOM      9  H   UNL     1      43.652   4.441   9.540  0.00  0.00    +0.000 HD
BRANCH   8  10
ATOM     10  C   UNL     1      44.481   2.522   9.714  0.00  0.00    +0.000 C 
BRANCH  10  11
ATOM     11  C   UNL     1      45.706   2.610   8.786  0.00  0.00    +0.000 C 
ATOM     12  C   UNL     1      45.455   3.538   7.589  0.00  0.00    +0.000 C 
ATOM     13  C   UNL     1      46.589   3.459   6.576  0.00  0.00    +0.000 C 
ATOM     14  O   UNL     1      46.795   2.114   6.148  0.00  0.00    +0.000 OA
ATOM     15  C   UNL     1      47.184   1.267   7.225  0.00  0.00    +0.000 C 
ATOM     16  C   UNL     1      46.086   1.204   8.280  0.00  0.00    +0.000 C 
ENDBRANCH  10  11
ENDBRANCH   8  10
ENDBRANCH   5   8
ENDBRANCH   1   2
BRANCH   1  19
ATOM     17  C   UNL     1      48.625   6.777  15.766  0.00  0.00    +0.000 C 
ATOM     18  O   UNL     1      48.630   8.004  15.846  0.00  0.00    +0.000 OA
ATOM     19  N   UNL     1      48.181   6.149  14.634  0.00  0.00    +0.000 N 
ATOM     20  H   UNL     1      48.130   5.140  14.588  0.00  0.00    +0.000 HD
BRANCH  17  28
ATOM     21  C   UNL     1      51.765   5.976  16.983  0.00  0.00    +0.000 A 
ATOM     22  N   UNL     1      52.832   5.520  17.672  0.00  0.00    +0.000 NA
ATOM     23  C   UNL     1      52.618   4.752  18.743  0.00  0.00    +0.000 A 
ATOM     24  N   UNL     1      51.440   4.364  19.218  0.00  0.00    +0.000 NA
ATOM     25  C   UNL     1      50.404   4.829  18.499  0.00  0.00    +0.000 A 
ATOM     26  S   UNL     1      48.825   4.420  18.969  0.00  0.00    +0.000 S 
ATOM     27  C   UNL     1      48.164   5.315  17.688  0.00  0.00    +0.000 A 
ATOM     28  C   UNL     1      49.110   5.947  16.890  0.00  0.00    +0.000 A 
ATOM     29  C   UNL     1      50.455   5.640  17.370  0.00  0.00    +0.000 A 
BRANCH  21  31
ATOM     30  C   UNL     1      53.396   6.991  15.673  0.00  0.00    +0.000 C 
ATOM     31  O   UNL     1      52.001   6.757  15.870  0.00  0.00    +0.000 OA
ENDBRANCH  21  31
ENDBRANCH  17  28
ENDBRANCH   1  19
TORSDOF 7
ENDMDL
MODEL 7
REMARK VINA RESULT:    -6.342      2.115      2.881
REMARK INTER + INTRA:         -10.413
REMARK INTER:                  -9.200
REMARK INTRA:                  -1.213
REMARK UNBOUND:                -1.476
REMARK  Name = 
REMARK  8 active torsions:
REMARK  status: ('A' for Active; 'I' for Inactive)
REMARK    1  A    between atoms: C_1  and  O_2
REMARK    2  A    between atoms: O_2  and  C_3
REMARK    3  A    between atoms: C_10  and  C_11
REMARK    4  A    between atoms: N_13  and  C_14
REMARK    5  A    between atoms: C_14  and  C_15
REMARK    6  A    between atoms: C_18  and  N_19
REMARK    7  A    between atoms: N_19  and  C_20
REMARK    8  A    between atoms: C_20  and  C_21
REMARK                            x       y       z     vdW  Elec       q    Type
REMARK                         _______ _______ _______ _____ _____    ______ ____
ROOT
ATOM      1  C   UNL     1      46.746   7.720  13.329  0.00  0.00    +0.000 C 
ENDROOT
BRANCH   1   2
ATOM      2  C   UNL     1      46.262   6.582  12.467  0.00  0.00    +0.000 A 
ATOM      3  C   UNL     1      46.256   6.719  11.076  0.00  0.00    +0.000 A 
ATOM      4  C   UNL     1      45.795   5.686  10.251  0.00  0.00    +0.000 A 
ATOM      5  C   UNL     1      45.301   4.490  10.781  0.00  0.00    +0.000 A 
ATOM      6  C   UNL     1      45.342   4.344  12.176  0.00  0.00    +0.000 A 
ATOM      7  C   UNL     1      45.807   5.377  13.012  0.00  0.00    +0.000 A 
BRANCH   5   8
ATOM      8  N   UNL     1      44.856   3.416   9.994  0.00  0.00    +0.000 N 
ATOM      9  H   UNL     1      44.131   2.888  10.475  0.00  0.00    +0.000 HD
BRANCH   8  10
ATOM     10  C   UNL     1      44.593   3.632   8.570  0.00  0.00    +0.000 C 
BRANCH  10  11
ATOM     11  C   UNL     1      45.436   2.704   7.675  0.00  0.00    +0.000 C 
ATOM     12  C   UNL     1      45.891   1.443   8.424  0.00  0.00    +0.000 C 
ATOM     13  C   UNL     1      46.887   0.636   7.600  0.00  0.00    +0.000 C 
ATOM     14  O   UNL     1      48.003   1.441   7.224  0.00  0.00    +0.000 OA
ATOM     15  C   UNL     1      47.616   2.533   6.394  0.00  0.00    +0.000 C 
ATOM     16  C   UNL     1      46.667   3.462   7.141  0.00  0.00    +0.000 C 
ENDBRANCH  10  11
ENDBRANCH   8  10
ENDBRANCH   5   8
ENDBRANCH   1   2
BRANCH   1  19
ATOM     17  C   UNL     1      48.873   8.695  14.057  0.00  0.00    +0.000 C 
ATOM     18  O   UNL     1      48.345   9.802  14.137  0.00  0.00    +0.000 OA
ATOM     19  N   UNL     1      48.154   7.602  13.657  0.00  0.00    +0.000 N 
ATOM     20  H   UNL     1      48.576   6.683  13.640  0.00  0.00    +0.000 HD
BRANCH  17  28
ATOM     21  C   UNL     1      50.616   6.571  16.162  0.00  0.00    +0.000 A 
ATOM     22  N   UNL     1      51.538   5.879  16.865  0.00  0.00    +0.000 NA
ATOM     23  C   UNL     1      52.827   6.182  16.695  0.00  0.00    +0.000 A 
ATOM     24  N   UNL     1      53.323   7.120  15.897  0.00  0.00    +0.000 NA
ATOM     25  C   UNL     1      52.374   7.794  15.225  0.00  0.00    +0.000 A 
ATOM     26  S   UNL     1      52.839   9.035  14.165  0.00  0.00    +0.000 S 
ATOM     27  C   UNL     1      51.224   9.345  13.747  0.00  0.00    +0.000 A 
ATOM     28  C   UNL     1      50.305   8.519  14.383  0.00  0.00    +0.000 A 
ATOM     29  C   UNL     1      50.998   7.600  15.282  0.00  0.00    +0.000 A 
BRANCH  21  31
ATOM     30  C   UNL     1      48.726   6.984  17.453  0.00  0.00    +0.000 C 
ATOM     31  O   UNL     1      49.287   6.257  16.358  0.00  0.00    +0.000 OA
ENDBRANCH  21  31
ENDBRANCH  17  28
ENDBRANCH   1  19
TORSDOF 7
ENDMDL
MODEL 8
REMARK VINA RESULT:    -5.949      5.540      7.569
REMARK INTER + INTRA:          -9.859
REMARK INTER:                  -8.915
REMARK INTRA:                  -0.944
REMARK UNBOUND:                -1.476
REMARK  Name = 
REMARK  8 active torsions:
REMARK  status: ('A' for Active; 'I' for Inactive)
REMARK    1  A    between atoms: C_1  and  O_2
REMARK    2  A    between atoms: O_2  and  C_3
REMARK    3  A    between atoms: C_10  and  C_11
REMARK    4  A    between atoms: N_13  and  C_14
REMARK    5  A    between atoms: C_14  and  C_15
REMARK    6  A    between atoms: C_18  and  N_19
REMARK    7  A    between atoms: N_19  and  C_20
REMARK    8  A    between atoms: C_20  and  C_21
REMARK                            x       y       z     vdW  Elec       q    Type
REMARK                         _______ _______ _______ _____ _____    ______ ____
ROOT
ATOM      1  C   UNL     1      50.909   8.666  11.400  0.00  0.00    +0.000 C 
ENDROOT
BRANCH   1   2
ATOM      2  C   UNL     1      49.563   8.208  11.900  0.00  0.00    +0.000 A 
ATOM      3  C   UNL     1      49.436   6.955  12.504  0.00  0.00    +0.000 A 
ATOM      4  C   UNL     1      48.194   6.497  12.962  0.00  0.00    +0.000 A 
ATOM      5  C   UNL     1      47.031   7.258  12.810  0.00  0.00    +0.000 A 
ATOM      6  C   UNL     1      47.170   8.530  12.235  0.00  0.00    +0.000 A 
ATOM      7  C   UNL     1      48.415   8.999  11.776  0.00  0.00    +0.000 A 
BRANCH   5   8
ATOM      8  N   UNL     1      45.771   6.853  13.279  0.00  0.00    +0.000 N 
ATOM      9  H   UNL     1      45.433   7.483  14.004  0.00  0.00    +0.000 HD
BRANCH   8  10
ATOM     10  C   UNL     1      44.746   6.443  12.317  0.00  0.00    +0.000 C 
BRANCH  10  11
ATOM     11  C   UNL     1      44.800   4.933  12.017  0.00  0.00    +0.000 C 
ATOM     12  C   UNL     1      44.978   4.651  10.518  0.00  0.00    +0.000 C 
ATOM     13  C   UNL     1      44.826   3.167  10.210  0.00  0.00    +0.000 C 
ATOM     14  O   UNL     1      43.571   2.677  10.679  0.00  0.00    +0.000 OA
ATOM     15  C   UNL     1      43.453   2.789  12.095  0.00  0.00    +0.000 C 
ATOM     16  C   UNL     1      43.516   4.249  12.525  0.00  0.00    +0.000 C 
ENDBRANCH  10  11
ENDBRANCH   8  10
ENDBRANCH   5   8
ENDBRANCH   1   2
BRANCH   1  19
ATOM     17  C   UNL     1      52.787   7.759  10.113  0.00  0.00    +0.000 C 
ATOM     18  O   UNL     1      53.031   8.879   9.668  0.00  0.00    +0.000 OA
ATOM     19  N   UNL     1      51.745   7.558  10.977  0.00  0.00    +0.000 N 
ATOM     20  H   UNL     1      51.576   6.647  11.381  0.00  0.00    +0.000 HD
BRANCH  17  28
ATOM     21  C   UNL     1      53.134   5.947   7.185  0.00  0.00    +0.000 A 
ATOM     22  N   UNL     1      53.483   5.093   6.199  0.00  0.00    +0.000 NA
ATOM     23  C   UNL     1      54.416   4.174   6.453  0.00  0.00    +0.000 A 
ATOM     24  N   UNL     1      55.055   3.988   7.603  0.00  0.00    +0.000 NA
ATOM     25  C   UNL     1      54.672   4.848   8.562  0.00  0.00    +0.000 A 
ATOM     26  S   UNL     1      55.387   4.744  10.097  0.00  0.00    +0.000 S 
ATOM     27  C   UNL     1      54.464   6.048  10.666  0.00  0.00    +0.000 A 
ATOM     28  C   UNL     1      53.610   6.596   9.716  0.00  0.00    +0.000 A 
ATOM     29  C   UNL     1      53.726   5.863   8.458  0.00  0.00    +0.000 A 
BRANCH  21  31
ATOM     30  C   UNL     1      52.707   8.068   6.332  0.00  0.00    +0.000 C 
ATOM     31  O   UNL     1      52.158   6.884   6.912  0.00  0.00    +0.000 OA
ENDBRANCH  21  31
ENDBRANCH  17  28
ENDBRANCH   1  19
TORSDOF 7
ENDMDL
MODEL 9
REMARK VINA RESULT:    -5.941      4.038      7.700
REMARK INTER + INTRA:          -9.848
REMARK INTER:                  -8.397
REMARK INTRA:                  -1.451
REMARK UNBOUND:                -1.476
REMARK  Name = 
REMARK  8 active torsions:
REMARK  status: ('A' for Active; 'I' for Inactive)
REMARK    1  A    between atoms: C_1  and  O_2
REMARK    2  A    between atoms: O_2  and  C_3
REMARK    3  A    between atoms: C_10  and  C_11
REMARK    4  A    between atoms: N_13  and  C_14
REMARK    5  A    between atoms: C_14  and  C_15
REMARK    6  A    between atoms: C_18  and  N_19
REMARK    7  A    between atoms: N_19  and  C_20
REMARK    8  A    between atoms: C_20  and  C_21
REMARK                            x       y       z     vdW  Elec       q    Type
REMARK                         _______ _______ _______ _____ _____    ______ ____
ROOT
ATOM      1  C   UNL     1      48.187   9.282  14.499  0.00  0.00    +0.000 C 
ENDROOT
BRANCH   1   2
ATOM      2  C   UNL     1      48.760   8.389  15.570  0.00  0.00    +0.000 A 
ATOM      3  C   UNL     1      49.762   7.471  15.246  0.00  0.00    +0.000 A 
ATOM      4  C   UNL     1      50.300   6.617  16.217  0.00  0.00    +0.000 A 
ATOM      5  C   UNL     1      49.842   6.628  17.538  0.00  0.00    +0.000 A 
ATOM      6  C   UNL     1      48.861   7.576  17.866  0.00  0.00    +0.000 A 
ATOM      7  C   UNL     1      48.318   8.441  16.897  0.00  0.00    +0.000 A 
BRANCH   5   8
ATOM      8  N   UNL     1      50.371   5.812  18.550  0.00  0.00    +0.000 N 
ATOM      9  H   UNL     1      50.981   6.346  19.166  0.00  0.00    +0.000 HD
BRANCH   8  10
ATOM     10  C   UNL     1      49.490   4.873  19.247  0.00  0.00    +0.000 C 
BRANCH  10  11
ATOM     11  C   UNL     1      49.399   3.515  18.525  0.00  0.00    +0.000 C 
ATOM     12  C   UNL     1      50.725   3.132  17.853  0.00  0.00    +0.000 C 
ATOM     13  C   UNL     1      50.567   1.897  16.976  0.00  0.00    +0.000 C 
ATOM     14  O   UNL     1      49.538   2.091  16.007  0.00  0.00    +0.000 OA
ATOM     15  C   UNL     1      48.266   2.293  16.615  0.00  0.00    +0.000 C 
ATOM     16  C   UNL     1      48.276   3.555  17.470  0.00  0.00    +0.000 C 
ENDBRANCH  10  11
ENDBRANCH   8  10
ENDBRANCH   5   8
ENDBRANCH   1   2
BRANCH   1  19
ATOM     17  C   UNL     1      46.919   7.973  12.862  0.00  0.00    +0.000 C 
ATOM     18  O   UNL     1      47.963   7.674  12.283  0.00  0.00    +0.000 OA
ATOM     19  N   UNL     1      46.936   8.774  13.970  0.00  0.00    +0.000 N 
ATOM     20  H   UNL     1      46.083   8.978  14.474  0.00  0.00    +0.000 HD
BRANCH  17  28
ATOM     21  C   UNL     1      45.112   5.060  13.340  0.00  0.00    +0.000 A 
ATOM     22  N   UNL     1      44.201   4.064  13.357  0.00  0.00    +0.000 NA
ATOM     23  C   UNL     1      43.070   4.224  12.666  0.00  0.00    +0.000 A 
ATOM     24  N   UNL     1      42.731   5.278  11.933  0.00  0.00    +0.000 NA
ATOM     25  C   UNL     1      43.668   6.241  11.931  0.00  0.00    +0.000 A 
ATOM     26  S   UNL     1      43.395   7.657  11.036  0.00  0.00    +0.000 S 
ATOM     27  C   UNL     1      44.888   8.303  11.516  0.00  0.00    +0.000 A 
ATOM     28  C   UNL     1      45.617   7.479  12.366  0.00  0.00    +0.000 A 
ATOM     29  C   UNL     1      44.888   6.234  12.600  0.00  0.00    +0.000 A 
BRANCH  21  31
ATOM     30  C   UNL     1      47.047   3.783  13.534  0.00  0.00    +0.000 C 
ATOM     31  O   UNL     1      46.283   4.875  14.048  0.00  0.00    +0.000 OA
ENDBRANCH  21  31
ENDBRANCH  17  28
ENDBRANCH   1  19
TORSDOF 7
ENDMDL
