MODEL 1
REMARK VINA RESULT:    -8.793      0.000      0.000
REMARK INTER + INTRA:         -12.150
REMARK INTER:                 -11.363
REMARK INTRA:                  -0.787
REMARK UNBOUND:                -0.787
REMARK  Name = 
REMARK  8 active torsions:
REMARK  status: ('A' for Active; 'I' for Inactive)
REMARK    1  A    between atoms: C_1  and  N_2
REMARK    2  A    between atoms: N_5  and  C_6
REMARK    3  A    between atoms: C_10  and  C_11
REMARK    4  A    between atoms: C_11  and  C_12
REMARK    5  A    between atoms: C_11  and  C_13
REMARK    6  A    between atoms: C_11  and  C_14
REMARK    7  A    between atoms: C_14  and  N_15
REMARK    8  A    between atoms: C_19  and  C_20
REMARK                            x       y       z     vdW  Elec       q    Type
REMARK                         _______ _______ _______ _____ _____    ______ ____
ROOT
ATOM      1  C   UNL     1      43.663   5.226  11.982  0.00  0.00    +0.000 C 
ATOM      2  C   UNL     1      43.013   4.742  13.300  0.00  0.00    +0.000 C 
ATOM      3  C   UNL     1      42.802   6.376  11.407  0.00  0.00    +0.000 C 
ENDROOT
BRANCH   1   8
ATOM      4  C   UNL     1      47.068   5.769  13.769  0.00  0.00    +0.000 A 
ATOM      5  C   UNL     1      47.756   6.467  12.773  0.00  0.00    +0.000 A 
ATOM      6  C   UNL     1      47.135   6.833  11.576  0.00  0.00    +0.000 A 
ATOM      7  C   UNL     1      45.814   6.460  11.331  0.00  0.00    +0.000 A 
ATOM      8  C   UNL     1      45.081   5.746  12.290  0.00  0.00    +0.000 A 
ATOM      9  C   UNL     1      45.719   5.483  13.517  0.00  0.00    +0.000 A 
BRANCH   4  14
ATOM     10  C   UNL     1      48.102   4.957  19.157  0.00  0.00    +0.000 C 
ATOM     11  N   UNL     1      48.319   4.811  17.721  0.00  0.00    +0.000 NA
ATOM     12  C   UNL     1      47.138   4.202  17.070  0.00  0.00    +0.000 C 
ATOM     13  C   UNL     1      47.314   4.032  15.538  0.00  0.00    +0.000 C 
ATOM     14  N   UNL     1      47.682   5.313  14.918  0.00  0.00    +0.000 N 
ATOM     15  C   UNL     1      48.805   6.011  15.568  0.00  0.00    +0.000 C 
ATOM     16  C   UNL     1      48.573   6.128  17.092  0.00  0.00    +0.000 C 
ENDBRANCH   4  14
ENDBRANCH   1   8
BRANCH   1  17
ATOM     17  C   UNL     1      43.595   4.016  10.984  0.00  0.00    +0.000 C 
BRANCH  17  18
ATOM     18  N   UNL     1      43.771   4.398   9.578  0.00  0.00    +0.000 N 
ATOM     19  C   UNL     1      44.822   3.820   8.876  0.00  0.00    +0.000 A 
ATOM     20  C   UNL     1      45.151   2.463   8.960  0.00  0.00    +0.000 A 
ATOM     21  N   UNL     1      46.124   1.863   8.230  0.00  0.00    +0.000 NA
ATOM     22  C   UNL     1      46.771   2.693   7.369  0.00  0.00    +0.000 A 
ATOM     23  C   UNL     1      46.468   4.042   7.274  0.00  0.00    +0.000 A 
ATOM     24  N   UNL     1      45.497   4.628   8.030  0.00  0.00    +0.000 NA
ATOM     25  H   UNL     1      43.794   5.401   9.389  0.00  0.00    +0.000 HD
BRANCH  22  26
ATOM     26  C   UNL     1      47.812   2.085   6.496  0.00  0.00    +0.000 C 
ATOM     27  N   UNL     1      48.183   2.841   5.413  0.00  0.00    +0.000 N 
ATOM     28  O   UNL     1      48.307   0.992   6.729  0.00  0.00    +0.000 OA
ATOM     29  H   UNL     1      47.769   3.757   5.275  0.00  0.00    +0.000 HD
ATOM     30  H   UNL     1      48.913   2.514   4.798  0.00  0.00    +0.000 HD
ENDBRANCH  22  26
ENDBRANCH  17  18
ENDBRANCH   1  17
TORSDOF 5
ENDMDL
MODEL 2
REMARK VINA RESULT:    -7.761      2.170      3.565
REMARK INTER + INTRA:         -10.816
REMARK INTER:                 -10.084
REMARK INTRA:                  -0.732
REMARK UNBOUND:                -0.787
REMARK  Name = 
REMARK  8 active torsions:
REMARK  status: ('A' for Active; 'I' for Inactive)
REMARK    1  A    between atoms: C_1  and  N_2
REMARK    2  A    between atoms: N_5  and  C_6
REMARK    3  A    between atoms: C_10  and  C_11
REMARK    4  A    between atoms: C_11  and  C_12
REMARK    5  A    between atoms: C_11  and  C_13
REMARK    6  A    between atoms: C_11  and  C_14
REMARK    7  A    between atoms: C_14  and  N_15
REMARK    8  A    between atoms: C_19  and  C_20
REMARK                            x       y       z     vdW  Elec       q    Type
REMARK                         _______ _______ _______ _____ _____    ______ ____
ROOT
ATOM      1  C   UNL     1      43.700   5.350  11.779  0.00  0.00    +0.000 C 
ATOM      2  C   UNL     1      42.695   5.118  12.933  0.00  0.00    +0.000 C 
ATOM      3  C   UNL     1      43.357   6.697  11.098  0.00  0.00    +0.000 C 
ENDROOT
BRANCH   1   8
ATOM      4  C   UNL     1      47.288   6.597  12.584  0.00  0.00    +0.000 A 
ATOM      5  C   UNL     1      47.632   5.705  13.604  0.00  0.00    +0.000 A 
ATOM      6  C   UNL     1      46.775   4.670  13.988  0.00  0.00    +0.000 A 
ATOM      7  C   UNL     1      45.524   4.537  13.385  0.00  0.00    +0.000 A 
ATOM      8  C   UNL     1      45.123   5.414  12.366  0.00  0.00    +0.000 A 
ATOM      9  C   UNL     1      46.057   6.380  11.948  0.00  0.00    +0.000 A 
BRANCH   4  14
ATOM     10  C   UNL     1      50.544  11.050  13.154  0.00  0.00    +0.000 C 
ATOM     11  N   UNL     1      49.794  10.031  12.426  0.00  0.00    +0.000 NA
ATOM     12  C   UNL     1      50.288   8.677  12.758  0.00  0.00    +0.000 C 
ATOM     13  C   UNL     1      49.517   7.554  12.016  0.00  0.00    +0.000 C 
ATOM     14  N   UNL     1      48.072   7.683  12.249  0.00  0.00    +0.000 N 
ATOM     15  C   UNL     1      47.528   9.031  12.010  0.00  0.00    +0.000 C 
ATOM     16  C   UNL     1      48.353  10.100  12.762  0.00  0.00    +0.000 C 
ENDBRANCH   4  14
ENDBRANCH   1   8
BRANCH   1  17
ATOM     17  C   UNL     1      43.454   4.199  10.741  0.00  0.00    +0.000 C 
BRANCH  17  18
ATOM     18  N   UNL     1      44.529   3.200  10.699  0.00  0.00    +0.000 N 
ATOM     19  C   UNL     1      45.210   3.032   9.499  0.00  0.00    +0.000 A 
ATOM     20  C   UNL     1      45.630   4.097   8.696  0.00  0.00    +0.000 A 
ATOM     21  N   UNL     1      46.360   3.960   7.560  0.00  0.00    +0.000 NA
ATOM     22  C   UNL     1      46.682   2.676   7.253  0.00  0.00    +0.000 A 
ATOM     23  C   UNL     1      46.271   1.604   8.030  0.00  0.00    +0.000 A 
ATOM     24  N   UNL     1      45.524   1.763   9.158  0.00  0.00    +0.000 NA
ATOM     25  H   UNL     1      44.286   2.271  11.044  0.00  0.00    +0.000 HD
BRANCH  22  26
ATOM     26  C   UNL     1      47.532   2.459   6.050  0.00  0.00    +0.000 C 
ATOM     27  N   UNL     1      47.310   3.328   5.012  0.00  0.00    +0.000 N 
ATOM     28  O   UNL     1      48.373   1.575   5.992  0.00  0.00    +0.000 OA
ATOM     29  H   UNL     1      46.624   4.068   5.114  0.00  0.00    +0.000 HD
ATOM     30  H   UNL     1      47.876   3.270   4.178  0.00  0.00    +0.000 HD
ENDBRANCH  22  26
ENDBRANCH  17  18
ENDBRANCH   1  17
TORSDOF 5
ENDMDL
MODEL 3
REMARK VINA RESULT:    -7.390      2.948      8.566
REMARK INTER + INTRA:         -10.337
REMARK INTER:                  -9.726
REMARK INTRA:                  -0.611
REMARK UNBOUND:                -0.787
REMARK  Name = 
REMARK  8 active torsions:
REMARK  status: ('A' for Active; 'I' for Inactive)
REMARK    1  A    between atoms: C_1  and  N_2
REMARK    2  A    between atoms: N_5  and  C_6
REMARK    3  A    between atoms: C_10  and  C_11
REMARK    4  A    between atoms: C_11  and  C_12
REMARK    5  A    between atoms: C_11  and  C_13
REMARK    6  A    between atoms: C_11  and  C_14
REMARK    7  A    between atoms: C_14  and  N_15
REMARK    8  A    between atoms: C_19  and  C_20
REMARK                            x       y       z     vdW  Elec       q    Type
REMARK                         _______ _______ _______ _____ _____    ______ ____
ROOT
ATOM      1  C   UNL     1      46.966   7.123  12.578  0.00  0.00    +0.000 C 
ATOM      2  C   UNL     1      47.866   7.585  11.407  0.00  0.00    +0.000 C 
ATOM      3  C   UNL     1      46.473   8.377  13.339  0.00  0.00    +0.000 C 
ENDROOT
BRANCH   1   8
ATOM      4  C   UNL     1      44.832   4.784  10.329  0.00  0.00    +0.000 A 
ATOM      5  C   UNL     1      43.646   4.754  11.067  0.00  0.00    +0.000 A 
ATOM      6  C   UNL     1      43.487   5.520  12.225  0.00  0.00    +0.000 A 
ATOM      7  C   UNL     1      44.541   6.302  12.697  0.00  0.00    +0.000 A 
ATOM      8  C   UNL     1      45.758   6.358  12.003  0.00  0.00    +0.000 A 
ATOM      9  C   UNL     1      45.838   5.644  10.792  0.00  0.00    +0.000 A 
BRANCH   4  14
ATOM     10  C   UNL     1      47.296   1.130   6.962  0.00  0.00    +0.000 C 
ATOM     11  N   UNL     1      46.249   2.053   7.391  0.00  0.00    +0.000 NA
ATOM     12  C   UNL     1      45.673   1.630   8.687  0.00  0.00    +0.000 C 
ATOM     13  C   UNL     1      44.560   2.583   9.194  0.00  0.00    +0.000 C 
ATOM     14  N   UNL     1      45.051   3.968   9.238  0.00  0.00    +0.000 N 
ATOM     15  C   UNL     1      45.706   4.428   8.001  0.00  0.00    +0.000 C 
ATOM     16  C   UNL     1      46.789   3.424   7.544  0.00  0.00    +0.000 C 
ENDBRANCH   4  14
ENDBRANCH   1   8
BRANCH   1  17
ATOM     17  C   UNL     1      47.886   6.294  13.543  0.00  0.00    +0.000 C 
BRANCH  17  18
ATOM     18  N   UNL     1      47.145   5.493  14.525  0.00  0.00    +0.000 N 
ATOM     19  C   UNL     1      47.766   5.217  15.737  0.00  0.00    +0.000 A 
ATOM     20  C   UNL     1      48.488   6.167  16.467  0.00  0.00    +0.000 A 
ATOM     21  N   UNL     1      49.040   5.940  17.686  0.00  0.00    +0.000 NA
ATOM     22  C   UNL     1      48.824   4.691  18.175  0.00  0.00    +0.000 A 
ATOM     23  C   UNL     1      48.118   3.730  17.467  0.00  0.00    +0.000 A 
ATOM     24  N   UNL     1      47.586   3.974  16.236  0.00  0.00    +0.000 NA
ATOM     25  H   UNL     1      46.751   4.618  14.178  0.00  0.00    +0.000 HD
BRANCH  22  26
ATOM     26  C   UNL     1      49.353   4.394  19.534  0.00  0.00    +0.000 C 
ATOM     27  N   UNL     1      48.516   3.669  20.344  0.00  0.00    +0.000 N 
ATOM     28  O   UNL     1      50.458   4.764  19.903  0.00  0.00    +0.000 OA
ATOM     29  H   UNL     1      47.620   3.354  19.987  0.00  0.00    +0.000 HD
ATOM     30  H   UNL     1      48.823   3.394  21.266  0.00  0.00    +0.000 HD
ENDBRANCH  22  26
ENDBRANCH  17  18
ENDBRANCH   1  17
TORSDOF 5
ENDMDL
MODEL 4
REMARK VINA RESULT:    -6.975      3.758      7.785
REMARK INTER + INTRA:          -9.801
REMARK INTER:                  -8.755
REMARK INTRA:                  -1.046
REMARK UNBOUND:                -0.787
REMARK  Name = 
REMARK  8 active torsions:
REMARK  status: ('A' for Active; 'I' for Inactive)
REMARK    1  A    between atoms: C_1  and  N_2
REMARK    2  A    between atoms: N_5  and  C_6
REMARK    3  A    between atoms: C_10  and  C_11
REMARK    4  A    between atoms: C_11  and  C_12
REMARK    5  A    between atoms: C_11  and  C_13
REMARK    6  A    between atoms: C_11  and  C_14
REMARK    7  A    between atoms: C_14  and  N_15
REMARK    8  A    between atoms: C_19  and  C_20
REMARK                            x       y       z     vdW  Elec       q    Type
REMARK                         _______ _______ _______ _____ _____    ______ ____
ROOT
ATOM      1  C   UNL     1      49.167   8.669  12.649  0.00  0.00    +0.000 C 
ATOM      2  C   UNL     1      49.743   7.368  12.037  0.00  0.00    +0.000 C 
ATOM      3  C   UNL     1      49.949   9.870  12.064  0.00  0.00    +0.000 C 
ENDROOT
BRANCH   1   8
ATOM      4  C   UNL     1      45.444   7.736  12.062  0.00  0.00    +0.000 A 
ATOM      5  C   UNL     1      44.913   9.004  11.808  0.00  0.00    +0.000 A 
ATOM      6  C   UNL     1      45.728  10.137  11.746  0.00  0.00    +0.000 A 
ATOM      7  C   UNL     1      47.097  10.028  11.988  0.00  0.00    +0.000 A 
ATOM      8  C   UNL     1      47.680   8.782  12.262  0.00  0.00    +0.000 A 
ATOM      9  C   UNL     1      46.835   7.657  12.220  0.00  0.00    +0.000 A 
BRANCH   4  14
ATOM     10  C   UNL     1      43.491   2.590  11.376  0.00  0.00    +0.000 C 
ATOM     11  N   UNL     1      43.543   3.931  11.951  0.00  0.00    +0.000 NA
ATOM     12  C   UNL     1      44.846   4.172  12.609  0.00  0.00    +0.000 C 
ATOM     13  C   UNL     1      44.957   5.589  13.229  0.00  0.00    +0.000 C 
ATOM     14  N   UNL     1      44.653   6.616  12.222  0.00  0.00    +0.000 N 
ATOM     15  C   UNL     1      43.403   6.394  11.475  0.00  0.00    +0.000 C 
ATOM     16  C   UNL     1      43.351   4.959  10.901  0.00  0.00    +0.000 C 
ENDBRANCH   4  14
ENDBRANCH   1   8
BRANCH   1  17
ATOM     17  C   UNL     1      49.456   8.598  14.190  0.00  0.00    +0.000 C 
BRANCH  17  18
ATOM     18  N   UNL     1      50.193   7.397  14.599  0.00  0.00    +0.000 N 
ATOM     19  C   UNL     1      49.545   6.490  15.430  0.00  0.00    +0.000 A 
ATOM     20  C   UNL     1      48.215   6.095  15.250  0.00  0.00    +0.000 A 
ATOM     21  N   UNL     1      47.585   5.159  16.003  0.00  0.00    +0.000 NA
ATOM     22  C   UNL     1      48.363   4.598  16.966  0.00  0.00    +0.000 A 
ATOM     23  C   UNL     1      49.680   4.978  17.168  0.00  0.00    +0.000 A 
ATOM     24  N   UNL     1      50.290   5.934  16.410  0.00  0.00    +0.000 NA
ATOM     25  H   UNL     1      51.123   7.556  14.989  0.00  0.00    +0.000 HD
BRANCH  22  26
ATOM     26  C   UNL     1      47.750   3.521  17.790  0.00  0.00    +0.000 C 
ATOM     27  N   UNL     1      48.409   3.227  18.956  0.00  0.00    +0.000 N 
ATOM     28  O   UNL     1      46.727   2.942  17.456  0.00  0.00    +0.000 OA
ATOM     29  H   UNL     1      49.238   3.755  19.211  0.00  0.00    +0.000 HD
ATOM     30  H   UNL     1      48.031   2.537  19.588  0.00  0.00    +0.000 HD
ENDBRANCH  22  26
ENDBRANCH  17  18
ENDBRANCH   1  17
TORSDOF 5
ENDMDL
MODEL 5
REMARK VINA RESULT:    -6.426      3.025      6.268
REMARK INTER + INTRA:          -9.092
REMARK INTER:                  -8.026
REMARK INTRA:                  -1.067
REMARK UNBOUND:                -0.787
REMARK  Name = 
REMARK  8 active torsions:
REMARK  status: ('A' for Active; 'I' for Inactive)
REMARK    1  A    between atoms: C_1  and  N_2
REMARK    2  A    between atoms: N_5  and  C_6
REMARK    3  A    between atoms: C_10  and  C_11
REMARK    4  A    between atoms: C_11  and  C_12
REMARK    5  A    between atoms: C_11  and  C_13
REMARK    6  A    between atoms: C_11  and  C_14
REMARK    7  A    between atoms: C_14  and  N_15
REMARK    8  A    between atoms: C_19  and  C_20
REMARK                            x       y       z     vdW  Elec       q    Type
REMARK                         _______ _______ _______ _____ _____    ______ ____
ROOT
ATOM      1  C   UNL     1      48.409   4.513  17.223  0.00  0.00    +0.000 C 
ATOM      2  C   UNL     1      49.044   3.103  17.278  0.00  0.00    +0.000 C 
ATOM      3  C   UNL     1      47.999   4.921  18.659  0.00  0.00    +0.000 C 
ENDROOT
BRANCH   1   8
ATOM      4  C   UNL     1      49.979   7.584  15.439  0.00  0.00    +0.000 A 
ATOM      5  C   UNL     1      51.299   7.476  15.886  0.00  0.00    +0.000 A 
ATOM      6  C   UNL     1      51.714   6.405  16.682  0.00  0.00    +0.000 A 
ATOM      7  C   UNL     1      50.795   5.439  17.089  0.00  0.00    +0.000 A 
ATOM      8  C   UNL     1      49.455   5.507  16.681  0.00  0.00    +0.000 A 
ATOM      9  C   UNL     1      49.105   6.550  15.804  0.00  0.00    +0.000 A 
BRANCH   4  14
ATOM     10  C   UNL     1      48.454  10.757  11.153  0.00  0.00    +0.000 C 
ATOM     11  N   UNL     1      48.685  10.435  12.558  0.00  0.00    +0.000 NA
ATOM     12  C   UNL     1      47.875   9.268  12.970  0.00  0.00    +0.000 C 
ATOM     13  C   UNL     1      48.090   8.877  14.456  0.00  0.00    +0.000 C 
ATOM     14  N   UNL     1      49.520   8.677  14.732  0.00  0.00    +0.000 N 
ATOM     15  C   UNL     1      50.394   9.772  14.276  0.00  0.00    +0.000 C 
ATOM     16  C   UNL     1      50.113  10.121  12.797  0.00  0.00    +0.000 C 
ENDBRANCH   4  14
ENDBRANCH   1   8
BRANCH   1  17
ATOM     17  C   UNL     1      47.104   4.377  16.360  0.00  0.00    +0.000 C 
BRANCH  17  18
ATOM     18  N   UNL     1      47.292   3.617  15.119  0.00  0.00    +0.000 N 
ATOM     19  C   UNL     1      46.555   4.001  14.005  0.00  0.00    +0.000 A 
ATOM     20  C   UNL     1      46.371   5.335  13.626  0.00  0.00    +0.000 A 
ATOM     21  N   UNL     1      45.718   5.731  12.504  0.00  0.00    +0.000 NA
ATOM     22  C   UNL     1      45.254   4.709  11.737  0.00  0.00    +0.000 A 
ATOM     23  C   UNL     1      45.418   3.381  12.095  0.00  0.00    +0.000 A 
ATOM     24  N   UNL     1      46.063   3.005  13.237  0.00  0.00    +0.000 NA
ATOM     25  H   UNL     1      47.212   2.602  15.202  0.00  0.00    +0.000 HD
BRANCH  22  26
ATOM     26  C   UNL     1      44.579   5.073  10.461  0.00  0.00    +0.000 C 
ATOM     27  N   UNL     1      45.407   5.540   9.472  0.00  0.00    +0.000 N 
ATOM     28  O   UNL     1      43.373   4.958  10.302  0.00  0.00    +0.000 OA
ATOM     29  H   UNL     1      46.407   5.590   9.636  0.00  0.00    +0.000 HD
ATOM     30  H   UNL     1      45.027   5.768   8.565  0.00  0.00    +0.000 HD
ENDBRANCH  22  26
ENDBRANCH  17  18
ENDBRANCH   1  17
TORSDOF 5
ENDMDL
MODEL 6
REMARK VINA RESULT:    -6.421      2.942      5.086
REMARK INTER + INTRA:          -9.085
REMARK INTER:                  -8.232
REMARK INTRA:                  -0.853
REMARK UNBOUND:                -0.787
REMARK  Name = 
REMARK  8 active torsions:
REMARK  status: ('A' for Active; 'I' for Inactive)
REMARK    1  A    between atoms: C_1  and  N_2
REMARK    2  A    between atoms: N_5  and  C_6
REMARK    3  A    between atoms: C_10  and  C_11
REMARK    4  A    between atoms: C_11  and  C_12
REMARK    5  A    between atoms: C_11  and  C_13
REMARK    6  A    between atoms: C_11  and  C_14
REMARK    7  A    between atoms: C_14  and  N_15
REMARK    8  A    between atoms: C_19  and  C_20
REMARK                            x       y       z     vdW  Elec       q    Type
REMARK                         _______ _______ _______ _____ _____    ______ ____
ROOT
ATOM      1  C   UNL     1      48.781   8.333  13.669  0.00  0.00    +0.000 C 
ATOM      2  C   UNL     1      47.866   9.513  13.260  0.00  0.00    +0.000 C 
ATOM      3  C   UNL     1      50.250   8.737  13.392  0.00  0.00    +0.000 C 
ENDROOT
BRANCH   1   8
ATOM      4  C   UNL     1      48.827   6.529  17.107  0.00  0.00    +0.000 A 
ATOM      5  C   UNL     1      48.504   7.599  17.947  0.00  0.00    +0.000 A 
ATOM      6  C   UNL     1      48.200   8.863  17.434  0.00  0.00    +0.000 A 
ATOM      7  C   UNL     1      48.261   9.094  16.060  0.00  0.00    +0.000 A 
ATOM      8  C   UNL     1      48.594   8.059  15.174  0.00  0.00    +0.000 A 
ATOM      9  C   UNL     1      48.799   6.782  15.728  0.00  0.00    +0.000 A 
BRANCH   4  14
ATOM     10  C   UNL     1      51.073   1.460  17.242  0.00  0.00    +0.000 C 
ATOM     11  N   UNL     1      50.376   2.624  17.780  0.00  0.00    +0.000 NA
ATOM     12  C   UNL     1      51.224   3.833  17.691  0.00  0.00    +0.000 C 
ATOM     13  C   UNL     1      50.526   5.103  18.242  0.00  0.00    +0.000 C 
ATOM     14  N   UNL     1      49.224   5.298  17.589  0.00  0.00    +0.000 N 
ATOM     15  C   UNL     1      48.358   4.106  17.576  0.00  0.00    +0.000 C 
ATOM     16  C   UNL     1      49.122   2.876  17.033  0.00  0.00    +0.000 C 
ENDBRANCH   4  14
ENDBRANCH   1   8
BRANCH   1  17
ATOM     17  C   UNL     1      48.414   7.138  12.719  0.00  0.00    +0.000 C 
BRANCH  17  18
ATOM     18  N   UNL     1      47.102   7.276  12.076  0.00  0.00    +0.000 N 
ATOM     19  C   UNL     1      46.394   6.114  11.792  0.00  0.00    +0.000 A 
ATOM     20  C   UNL     1      46.285   5.041  12.683  0.00  0.00    +0.000 A 
ATOM     21  N   UNL     1      45.540   3.930  12.459  0.00  0.00    +0.000 NA
ATOM     22  C   UNL     1      44.870   3.935  11.277  0.00  0.00    +0.000 A 
ATOM     23  C   UNL     1      44.967   4.983  10.375  0.00  0.00    +0.000 A 
ATOM     24  N   UNL     1      45.735   6.084  10.613  0.00  0.00    +0.000 NA
ATOM     25  H   UNL     1      47.076   7.861  11.239  0.00  0.00    +0.000 HD
BRANCH  22  26
ATOM     26  C   UNL     1      43.987   2.770  10.994  0.00  0.00    +0.000 C 
ATOM     27  N   UNL     1      44.341   2.018   9.903  0.00  0.00    +0.000 N 
ATOM     28  O   UNL     1      43.018   2.498  11.687  0.00  0.00    +0.000 OA
ATOM     29  H   UNL     1      45.172   2.260   9.374  0.00  0.00    +0.000 HD
ATOM     30  H   UNL     1      43.815   1.188   9.673  0.00  0.00    +0.000 HD
ENDBRANCH  22  26
ENDBRANCH  17  18
ENDBRANCH   1  17
TORSDOF 5
ENDMDL
MODEL 7
REMARK VINA RESULT:    -6.389      3.995      6.641
REMARK INTER + INTRA:          -9.044
REMARK INTER:                  -8.337
REMARK INTRA:                  -0.708
REMARK UNBOUND:                -0.787
REMARK  Name = 
REMARK  8 active torsions:
REMARK  status: ('A' for Active; 'I' for Inactive)
REMARK    1  A    between atoms: C_1  and  N_2
REMARK    2  A    between atoms: N_5  and  C_6
REMARK    3  A    between atoms: C_10  and  C_11
REMARK    4  A    between atoms: C_11  and  C_12
REMARK    5  A    between atoms: C_11  and  C_13
REMARK    6  A    between atoms: C_11  and  C_14
REMARK    7  A    between atoms: C_14  and  N_15
REMARK    8  A    between atoms: C_19  and  C_20
REMARK                            x       y       z     vdW  Elec       q    Type
REMARK                         _______ _______ _______ _____ _____    ______ ____
ROOT
ATOM      1  C   UNL     1      47.994   4.013  17.292  0.00  0.00    +0.000 C 
ATOM      2  C   UNL     1      47.055   2.802  17.514  0.00  0.00    +0.000 C 
ATOM      3  C   UNL     1      47.775   5.018  18.448  0.00  0.00    +0.000 C 
ENDROOT
BRANCH   1   8
ATOM      4  C   UNL     1      51.844   3.940  17.795  0.00  0.00    +0.000 A 
ATOM      5  C   UNL     1      52.090   2.581  17.584  0.00  0.00    +0.000 A 
ATOM      6  C   UNL     1      51.069   1.703  17.212  0.00  0.00    +0.000 A 
ATOM      7  C   UNL     1      49.759   2.165  17.091  0.00  0.00    +0.000 A 
ATOM      8  C   UNL     1      49.453   3.517  17.306  0.00  0.00    +0.000 A 
ATOM      9  C   UNL     1      50.529   4.380  17.584  0.00  0.00    +0.000 A 
BRANCH   4  14
ATOM     10  C   UNL     1      55.591   8.029  17.817  0.00  0.00    +0.000 C 
ATOM     11  N   UNL     1      54.801   6.941  18.386  0.00  0.00    +0.000 NA
ATOM     12  C   UNL     1      53.354   7.232  18.283  0.00  0.00    +0.000 C 
ATOM     13  C   UNL     1      52.468   6.101  18.866  0.00  0.00    +0.000 C 
ATOM     14  N   UNL     1      52.812   4.810  18.253  0.00  0.00    +0.000 N 
ATOM     15  C   UNL     1      54.251   4.494  18.254  0.00  0.00    +0.000 C 
ATOM     16  C   UNL     1      55.074   5.669  17.678  0.00  0.00    +0.000 C 
ENDBRANCH   4  14
ENDBRANCH   1   8
BRANCH   1  17
ATOM     17  C   UNL     1      47.529   4.693  15.956  0.00  0.00    +0.000 C 
BRANCH  17  18
ATOM     18  N   UNL     1      47.466   3.773  14.814  0.00  0.00    +0.000 N 
ATOM     19  C   UNL     1      46.615   4.099  13.765  0.00  0.00    +0.000 A 
ATOM     20  C   UNL     1      46.501   5.389  13.237  0.00  0.00    +0.000 A 
ATOM     21  N   UNL     1      45.733   5.716  12.167  0.00  0.00    +0.000 NA
ATOM     22  C   UNL     1      45.071   4.667  11.613  0.00  0.00    +0.000 A 
ATOM     23  C   UNL     1      45.162   3.381  12.122  0.00  0.00    +0.000 A 
ATOM     24  N   UNL     1      45.927   3.078  13.209  0.00  0.00    +0.000 NA
ATOM     25  H   UNL     1      47.305   2.791  15.043  0.00  0.00    +0.000 HD
BRANCH  22  26
ATOM     26  C   UNL     1      44.255   4.946  10.399  0.00  0.00    +0.000 C 
ATOM     27  N   UNL     1      44.906   4.775   9.204  0.00  0.00    +0.000 N 
ATOM     28  O   UNL     1      43.087   5.297  10.461  0.00  0.00    +0.000 OA
ATOM     29  H   UNL     1      45.867   4.452   9.197  0.00  0.00    +0.000 HD
ATOM     30  H   UNL     1      44.406   4.906   8.336  0.00  0.00    +0.000 HD
ENDBRANCH  22  26
ENDBRANCH  17  18
ENDBRANCH   1  17
TORSDOF 5
ENDMDL
MODEL 8
REMARK VINA RESULT:    -6.283      3.775      7.860
REMARK INTER + INTRA:          -8.907
REMARK INTER:                  -8.167
REMARK INTRA:                  -0.740
REMARK UNBOUND:                -0.787
REMARK  Name = 
REMARK  8 active torsions:
REMARK  status: ('A' for Active; 'I' for Inactive)
REMARK    1  A    between atoms: C_1  and  N_2
REMARK    2  A    between atoms: N_5  and  C_6
REMARK    3  A    between atoms: C_10  and  C_11
REMARK    4  A    between atoms: C_11  and  C_12
REMARK    5  A    between atoms: C_11  and  C_13
REMARK    6  A    between atoms: C_11  and  C_14
REMARK    7  A    between atoms: C_14  and  N_15
REMARK    8  A    between atoms: C_19  and  C_20
REMARK                            x       y       z     vdW  Elec       q    Type
REMARK                         _______ _______ _______ _____ _____    ______ ____
ROOT
ATOM      1  C   UNL     1      46.173   6.519  12.591  0.00  0.00    +0.000 C 
ATOM      2  C   UNL     1      45.284   7.746  12.910  0.00  0.00    +0.000 C 
ATOM      3  C   UNL     1      46.866   6.066  13.898  0.00  0.00    +0.000 C 
ENDROOT
BRANCH   1   8
ATOM      4  C   UNL     1      44.749   3.739  10.284  0.00  0.00    +0.000 A 
ATOM      5  C   UNL     1      43.829   3.148  11.155  0.00  0.00    +0.000 A 
ATOM      6  C   UNL     1      43.601   3.663  12.434  0.00  0.00    +0.000 A 
ATOM      7  C   UNL     1      44.332   4.761  12.887  0.00  0.00    +0.000 A 
ATOM      8  C   UNL     1      45.277   5.383  12.059  0.00  0.00    +0.000 A 
ATOM      9  C   UNL     1      45.404   4.889  10.747  0.00  0.00    +0.000 A 
BRANCH   4  14
ATOM     10  C   UNL     1      47.776   1.808   6.057  0.00  0.00    +0.000 C 
ATOM     11  N   UNL     1      46.551   2.153   6.771  0.00  0.00    +0.000 NA
ATOM     12  C   UNL     1      46.458   1.409   8.047  0.00  0.00    +0.000 C 
ATOM     13  C   UNL     1      45.176   1.746   8.851  0.00  0.00    +0.000 C 
ATOM     14  N   UNL     1      45.063   3.197   9.054  0.00  0.00    +0.000 N 
ATOM     15  C   UNL     1      45.223   4.003   7.831  0.00  0.00    +0.000 C 
ATOM     16  C   UNL     1      46.508   3.603   7.071  0.00  0.00    +0.000 C 
ENDBRANCH   4  14
ENDBRANCH   1   8
BRANCH   1  17
ATOM     17  C   UNL     1      47.280   7.022  11.597  0.00  0.00    +0.000 C 
BRANCH  17  18
ATOM     18  N   UNL     1      47.900   8.291  11.995  0.00  0.00    +0.000 N 
ATOM     19  C   UNL     1      49.281   8.317  12.151  0.00  0.00    +0.000 A 
ATOM     20  C   UNL     1      50.168   7.708  11.257  0.00  0.00    +0.000 A 
ATOM     21  N   UNL     1      51.520   7.783  11.348  0.00  0.00    +0.000 NA
ATOM     22  C   UNL     1      51.970   8.528  12.391  0.00  0.00    +0.000 A 
ATOM     23  C   UNL     1      51.111   9.135  13.293  0.00  0.00    +0.000 A 
ATOM     24  N   UNL     1      49.756   9.033  13.194  0.00  0.00    +0.000 NA
ATOM     25  H   UNL     1      47.493   8.748  12.813  0.00  0.00    +0.000 HD
BRANCH  22  26
ATOM     26  C   UNL     1      53.444   8.699  12.515  0.00  0.00    +0.000 C 
ATOM     27  N   UNL     1      54.144   7.557  12.809  0.00  0.00    +0.000 N 
ATOM     28  O   UNL     1      53.995   9.779  12.359  0.00  0.00    +0.000 OA
ATOM     29  H   UNL     1      53.651   6.675  12.898  0.00  0.00    +0.000 HD
ATOM     30  H   UNL     1      55.152   7.585  12.868  0.00  0.00    +0.000 HD
ENDBRANCH  22  26
ENDBRANCH  17  18
ENDBRANCH   1  17
TORSDOF 5
ENDMDL
MODEL 9
REMARK VINA RESULT:    -6.183      3.874      8.463
REMARK INTER + INTRA:          -8.778
REMARK INTER:                  -7.977
REMARK INTRA:                  -0.801
REMARK UNBOUND:                -0.787
REMARK  Name = 
REMARK  8 active torsions:
REMARK  status: ('A' for Active; 'I' for Inactive)
REMARK    1  A    between atoms: C_1  and  N_2
REMARK    2  A    between atoms: N_5  and  C_6
REMARK    3  A    between atoms: C_10  and  C_11
REMARK    4  A    between atoms: C_11  and  C_12
REMARK    5  A    between atoms: C_11  and  C_13
REMARK    6  A    between atoms: C_11  and  C_14
REMARK    7  A    between atoms: C_14  and  N_15
REMARK    8  A    between atoms: C_19  and  C_20
REMARK                            x       y       z     vdW  Elec       q    Type
REMARK                         _______ _______ _______ _____ _____    ______ ____
ROOT
ATOM      1  C   UNL     1      49.652   8.205  16.099  0.00  0.00    +0.000 C 
ATOM      2  C   UNL     1      50.380   9.569  16.013  0.00  0.00    +0.000 C 
ATOM      3  C   UNL     1      48.361   8.394  16.931  0.00  0.00    +0.000 C 
ENDROOT
BRANCH   1   8
ATOM      4  C   UNL     1      47.680   6.671  13.126  0.00  0.00    +0.000 A 
ATOM      5  C   UNL     1      48.466   7.117  12.059  0.00  0.00    +0.000 A 
ATOM      6  C   UNL     1      49.648   7.831  12.270  0.00  0.00    +0.000 A 
ATOM      7  C   UNL     1      50.045   8.158  13.567  0.00  0.00    +0.000 A 
ATOM      8  C   UNL     1      49.287   7.748  14.673  0.00  0.00    +0.000 A 
ATOM      9  C   UNL     1      48.156   6.951  14.415  0.00  0.00    +0.000 A 
BRANCH   4  14
ATOM     10  C   UNL     1      43.761   3.425  10.921  0.00  0.00    +0.000 C 
ATOM     11  N   UNL     1      44.325   4.373  11.878  0.00  0.00    +0.000 NA
ATOM     12  C   UNL     1      45.501   3.792  12.562  0.00  0.00    +0.000 C 
ATOM     13  C   UNL     1      46.145   4.763  13.585  0.00  0.00    +0.000 C 
ATOM     14  N   UNL     1      46.462   6.048  12.945  0.00  0.00    +0.000 N 
ATOM     15  C   UNL     1      45.353   6.645  12.181  0.00  0.00    +0.000 C 
ATOM     16  C   UNL     1      44.747   5.618  11.196  0.00  0.00    +0.000 C 
ENDBRANCH   4  14
ENDBRANCH   1   8
BRANCH   1  17
ATOM     17  C   UNL     1      50.608   7.242  16.888  0.00  0.00    +0.000 C 
BRANCH  17  18
ATOM     18  N   UNL     1      49.922   6.100  17.502  0.00  0.00    +0.000 N 
ATOM     19  C   UNL     1      50.573   4.872  17.496  0.00  0.00    +0.000 A 
ATOM     20  C   UNL     1      51.932   4.720  17.790  0.00  0.00    +0.000 A 
ATOM     21  N   UNL     1      52.572   3.525  17.861  0.00  0.00    +0.000 NA
ATOM     22  C   UNL     1      51.774   2.448  17.637  0.00  0.00    +0.000 A 
ATOM     23  C   UNL     1      50.427   2.574  17.337  0.00  0.00    +0.000 A 
ATOM     24  N   UNL     1      49.807   3.786  17.253  0.00  0.00    +0.000 NA
ATOM     25  H   UNL     1      48.963   5.937  17.191  0.00  0.00    +0.000 HD
BRANCH  22  26
ATOM     26  C   UNL     1      52.402   1.103  17.758  0.00  0.00    +0.000 C 
ATOM     27  N   UNL     1      51.568   0.104  18.191  0.00  0.00    +0.000 N 
ATOM     28  O   UNL     1      53.575   0.901  17.485  0.00  0.00    +0.000 OA
ATOM     29  H   UNL     1      50.592   0.310  18.376  0.00  0.00    +0.000 HD
ATOM     30  H   UNL     1      51.910  -0.843  18.259  0.00  0.00    +0.000 HD
ENDBRANCH  22  26
ENDBRANCH  17  18
ENDBRANCH   1  17
TORSDOF 5
ENDMDL
