MODEL 1
REMARK VINA RESULT:    -7.503      0.000      0.000
REMARK INTER + INTRA:         -10.074
REMARK INTER:                  -9.476
REMARK INTRA:                  -0.598
REMARK UNBOUND:                -0.598
REMARK  Name = 
REMARK  5 active torsions:
REMARK  status: ('A' for Active; 'I' for Inactive)
REMARK    1  A    between atoms: N_1  and  C_2
REMARK    2  A    between atoms: C_2  and  C_3
REMARK    3  A    between atoms: C_3  and  C_4
REMARK    4  A    between atoms: C_7  and  C_8
REMARK    5  A    between atoms: C_8  and  N_9
REMARK                            x       y       z     vdW  Elec       q    Type
REMARK                         _______ _______ _______ _____ _____    ______ ____
ROOT
ATOM      1  C   UNL     1      45.957   2.614   7.947  0.00  0.00    +0.000 A 
ATOM      2  C   UNL     1      45.265   2.083   9.041  0.00  0.00    +0.000 A 
ATOM      3  C   UNL     1      44.767   2.922  10.043  0.00  0.00    +0.000 A 
ATOM      4  C   UNL     1      44.945   4.310   9.967  0.00  0.00    +0.000 A 
ATOM      5  C   UNL     1      45.616   4.841   8.857  0.00  0.00    +0.000 A 
ATOM      6  C   UNL     1      46.113   4.001   7.854  0.00  0.00    +0.000 A 
ENDROOT
BRANCH   1   7
ATOM      7  C   UNL     1      46.548   1.702   6.897  0.00  0.00    +0.000 C 
BRANCH   7   8
ATOM      8  C   UNL     1      47.324   2.459   5.815  0.00  0.00    +0.000 C 
BRANCH   8   9
ATOM      9  N   UNL     1      48.581   1.779   5.508  0.00  0.00    +0.000 NA
ATOM     10  H   UNL     1      48.387   0.924   4.988  0.00  0.00    +0.000 HD
ATOM     11  H   UNL     1      49.035   1.487   6.374  0.00  0.00    +0.000 HD
ENDBRANCH   8   9
ENDBRANCH   7   8
ENDBRANCH   1   7
BRANCH   4  12
ATOM     12  C   UNL     1      44.426   5.216  11.055  0.00  0.00    +0.000 C 
BRANCH  12  13
ATOM     13  N   UNL     1      45.324   5.287  12.203  0.00  0.00    +0.000 N 
ATOM     14  C   UNL     1      45.201   4.505  13.330  0.00  0.00    +0.000 A 
ATOM     15  C   UNL     1      46.294   4.735  14.136  0.00  0.00    +0.000 A 
ATOM     16  C   UNL     1      47.114   5.679  13.476  0.00  0.00    +0.000 A 
ATOM     17  N   UNL     1      48.305   6.187  13.876  0.00  0.00    +0.000 NA
ATOM     18  C   UNL     1      48.861   7.069  13.021  0.00  0.00    +0.000 A 
ATOM     19  C   UNL     1      48.309   7.478  11.815  0.00  0.00    +0.000 A 
ATOM     20  C   UNL     1      47.085   6.952  11.411  0.00  0.00    +0.000 A 
ATOM     21  C   UNL     1      46.491   6.025  12.276  0.00  0.00    +0.000 A 
ENDBRANCH  12  13
ENDBRANCH   4  12
TORSDOF 5
ENDMDL
MODEL 2
REMARK VINA RESULT:    -7.480      1.396      2.009
REMARK INTER + INTRA:         -10.046
REMARK INTER:                  -9.504
REMARK INTRA:                  -0.542
REMARK UNBOUND:                -0.598
REMARK  Name = 
REMARK  5 active torsions:
REMARK  status: ('A' for Active; 'I' for Inactive)
REMARK    1  A    between atoms: N_1  and  C_2
REMARK    2  A    between atoms: C_2  and  C_3
REMARK    3  A    between atoms: C_3  and  C_4
REMARK    4  A    between atoms: C_7  and  C_8
REMARK    5  A    between atoms: C_8  and  N_9
REMARK                            x       y       z     vdW  Elec       q    Type
REMARK                         _______ _______ _______ _____ _____    ______ ____
ROOT
ATOM      1  C   UNL     1      46.118   2.200   7.851  0.00  0.00    +0.000 A 
ATOM      2  C   UNL     1      45.275   1.607   8.799  0.00  0.00    +0.000 A 
ATOM      3  C   UNL     1      44.506   2.396   9.660  0.00  0.00    +0.000 A 
ATOM      4  C   UNL     1      44.557   3.795   9.584  0.00  0.00    +0.000 A 
ATOM      5  C   UNL     1      45.382   4.385   8.616  0.00  0.00    +0.000 A 
ATOM      6  C   UNL     1      46.151   3.595   7.755  0.00  0.00    +0.000 A 
ENDROOT
BRANCH   1   7
ATOM      7  C   UNL     1      46.995   1.347   6.964  0.00  0.00    +0.000 C 
BRANCH   7   8
ATOM      8  C   UNL     1      48.299   2.042   6.566  0.00  0.00    +0.000 C 
BRANCH   8   9
ATOM      9  N   UNL     1      48.352   2.256   5.120  0.00  0.00    +0.000 NA
ATOM     10  H   UNL     1      47.504   1.888   4.691  0.00  0.00    +0.000 HD
ATOM     11  H   UNL     1      49.125   1.723   4.721  0.00  0.00    +0.000 HD
ENDBRANCH   8   9
ENDBRANCH   7   8
ENDBRANCH   1   7
BRANCH   4  12
ATOM     12  C   UNL     1      43.743   4.649  10.523  0.00  0.00    +0.000 C 
BRANCH  12  13
ATOM     13  N   UNL     1      44.573   5.477  11.392  0.00  0.00    +0.000 N 
ATOM     14  C   UNL     1      44.479   6.849  11.473  0.00  0.00    +0.000 A 
ATOM     15  C   UNL     1      45.303   7.278  12.489  0.00  0.00    +0.000 A 
ATOM     16  C   UNL     1      45.912   6.133  13.051  0.00  0.00    +0.000 A 
ATOM     17  N   UNL     1      46.778   6.064  14.092  0.00  0.00    +0.000 NA
ATOM     18  C   UNL     1      47.182   4.818  14.410  0.00  0.00    +0.000 A 
ATOM     19  C   UNL     1      46.791   3.655  13.763  0.00  0.00    +0.000 A 
ATOM     20  C   UNL     1      45.901   3.734  12.695  0.00  0.00    +0.000 A 
ATOM     21  C   UNL     1      45.457   5.016  12.350  0.00  0.00    +0.000 A 
ENDBRANCH  12  13
ENDBRANCH   4  12
TORSDOF 5
ENDMDL
MODEL 3
REMARK VINA RESULT:    -7.399      1.486      1.724
REMARK INTER + INTRA:          -9.944
REMARK INTER:                  -9.381
REMARK INTRA:                  -0.562
REMARK UNBOUND:                -0.598
REMARK  Name = 
REMARK  5 active torsions:
REMARK  status: ('A' for Active; 'I' for Inactive)
REMARK    1  A    between atoms: N_1  and  C_2
REMARK    2  A    between atoms: C_2  and  C_3
REMARK    3  A    between atoms: C_3  and  C_4
REMARK    4  A    between atoms: C_7  and  C_8
REMARK    5  A    between atoms: C_8  and  N_9
REMARK                            x       y       z     vdW  Elec       q    Type
REMARK                         _______ _______ _______ _____ _____    ______ ____
ROOT
ATOM      1  C   UNL     1      46.115   2.352   7.849  0.00  0.00    +0.000 A 
ATOM      2  C   UNL     1      45.275   1.734   8.783  0.00  0.00    +0.000 A 
ATOM      3  C   UNL     1      44.522   2.501   9.679  0.00  0.00    +0.000 A 
ATOM      4  C   UNL     1      44.588   3.901   9.654  0.00  0.00    +0.000 A 
ATOM      5  C   UNL     1      45.410   4.516   8.700  0.00  0.00    +0.000 A 
ATOM      6  C   UNL     1      46.162   3.750   7.803  0.00  0.00    +0.000 A 
ENDROOT
BRANCH   1   7
ATOM      7  C   UNL     1      46.973   1.523   6.923  0.00  0.00    +0.000 C 
BRANCH   7   8
ATOM      8  C   UNL     1      48.262   2.236   6.503  0.00  0.00    +0.000 C 
BRANCH   8   9
ATOM      9  N   UNL     1      48.275   2.473   5.060  0.00  0.00    +0.000 NA
ATOM     10  H   UNL     1      47.848   1.682   4.581  0.00  0.00    +0.000 HD
ATOM     11  H   UNL     1      49.239   2.518   4.728  0.00  0.00    +0.000 HD
ENDBRANCH   8   9
ENDBRANCH   7   8
ENDBRANCH   1   7
BRANCH   4  12
ATOM     12  C   UNL     1      43.792   4.729  10.631  0.00  0.00    +0.000 C 
BRANCH  12  13
ATOM     13  N   UNL     1      44.625   5.325  11.671  0.00  0.00    +0.000 N 
ATOM     14  C   UNL     1      45.399   4.601  12.551  0.00  0.00    +0.000 A 
ATOM     15  C   UNL     1      46.154   5.485  13.288  0.00  0.00    +0.000 A 
ATOM     16  C   UNL     1      45.839   6.788  12.838  0.00  0.00    +0.000 A 
ATOM     17  N   UNL     1      46.354   7.971  13.252  0.00  0.00    +0.000 NA
ATOM     18  C   UNL     1      45.861   9.056  12.621  0.00  0.00    +0.000 A 
ATOM     19  C   UNL     1      44.895   9.038  11.625  0.00  0.00    +0.000 A 
ATOM     20  C   UNL     1      44.371   7.819  11.205  0.00  0.00    +0.000 A 
ATOM     21  C   UNL     1      44.874   6.675  11.836  0.00  0.00    +0.000 A 
ENDBRANCH  12  13
ENDBRANCH   4  12
TORSDOF 5
ENDMDL
MODEL 4
REMARK VINA RESULT:    -7.288      1.424      2.294
REMARK INTER + INTRA:          -9.803
REMARK INTER:                  -9.302
REMARK INTRA:                  -0.501
REMARK UNBOUND:                -0.598
REMARK  Name = 
REMARK  5 active torsions:
REMARK  status: ('A' for Active; 'I' for Inactive)
REMARK    1  A    between atoms: N_1  and  C_2
REMARK    2  A    between atoms: C_2  and  C_3
REMARK    3  A    between atoms: C_3  and  C_4
REMARK    4  A    between atoms: C_7  and  C_8
REMARK    5  A    between atoms: C_8  and  N_9
REMARK                            x       y       z     vdW  Elec       q    Type
REMARK                         _______ _______ _______ _____ _____    ______ ____
ROOT
ATOM      1  C   UNL     1      46.116   2.264   7.779  0.00  0.00    +0.000 A 
ATOM      2  C   UNL     1      46.147   3.662   7.724  0.00  0.00    +0.000 A 
ATOM      3  C   UNL     1      45.386   4.426   8.614  0.00  0.00    +0.000 A 
ATOM      4  C   UNL     1      44.584   3.807   9.583  0.00  0.00    +0.000 A 
ATOM      5  C   UNL     1      44.575   2.408   9.652  0.00  0.00    +0.000 A 
ATOM      6  C   UNL     1      45.337   1.643   8.762  0.00  0.00    +0.000 A 
ENDROOT
BRANCH   1   7
ATOM      7  C   UNL     1      46.890   1.439   6.777  0.00  0.00    +0.000 C 
BRANCH   7   8
ATOM      8  C   UNL     1      48.248   2.051   6.421  0.00  0.00    +0.000 C 
BRANCH   8   9
ATOM      9  N   UNL     1      48.273   2.479   5.023  0.00  0.00    +0.000 NA
ATOM     10  H   UNL     1      47.726   3.333   4.919  0.00  0.00    +0.000 HD
ATOM     11  H   UNL     1      47.815   1.778   4.440  0.00  0.00    +0.000 HD
ENDBRANCH   8   9
ENDBRANCH   7   8
ENDBRANCH   1   7
BRANCH   4  12
ATOM     12  C   UNL     1      43.747   4.628  10.532  0.00  0.00    +0.000 C 
BRANCH  12  13
ATOM     13  N   UNL     1      44.556   5.442  11.434  0.00  0.00    +0.000 N 
ATOM     14  C   UNL     1      44.428   6.807  11.567  0.00  0.00    +0.000 A 
ATOM     15  C   UNL     1      45.240   7.217  12.600  0.00  0.00    +0.000 A 
ATOM     16  C   UNL     1      45.876   6.066  13.121  0.00  0.00    +0.000 A 
ATOM     17  N   UNL     1      46.741   5.978  14.160  0.00  0.00    +0.000 NA
ATOM     18  C   UNL     1      47.175   4.730  14.432  0.00  0.00    +0.000 A 
ATOM     19  C   UNL     1      46.813   3.584  13.739  0.00  0.00    +0.000 A 
ATOM     20  C   UNL     1      45.923   3.682  12.673  0.00  0.00    +0.000 A 
ATOM     21  C   UNL     1      45.449   4.966  12.376  0.00  0.00    +0.000 A 
ENDBRANCH  12  13
ENDBRANCH   4  12
TORSDOF 5
ENDMDL
MODEL 5
REMARK VINA RESULT:    -5.932      2.126      5.810
REMARK INTER + INTRA:          -8.091
REMARK INTER:                  -7.483
REMARK INTRA:                  -0.607
REMARK UNBOUND:                -0.598
REMARK  Name = 
REMARK  5 active torsions:
REMARK  status: ('A' for Active; 'I' for Inactive)
REMARK    1  A    between atoms: N_1  and  C_2
REMARK    2  A    between atoms: C_2  and  C_3
REMARK    3  A    between atoms: C_3  and  C_4
REMARK    4  A    between atoms: C_7  and  C_8
REMARK    5  A    between atoms: C_8  and  N_9
REMARK                            x       y       z     vdW  Elec       q    Type
REMARK                         _______ _______ _______ _____ _____    ______ ____
ROOT
ATOM      1  C   UNL     1      48.358   7.421  12.939  0.00  0.00    +0.000 A 
ATOM      2  C   UNL     1      47.874   6.221  13.473  0.00  0.00    +0.000 A 
ATOM      3  C   UNL     1      46.553   5.822  13.243  0.00  0.00    +0.000 A 
ATOM      4  C   UNL     1      45.692   6.612  12.468  0.00  0.00    +0.000 A 
ATOM      5  C   UNL     1      46.189   7.799  11.914  0.00  0.00    +0.000 A 
ATOM      6  C   UNL     1      47.510   8.197  12.142  0.00  0.00    +0.000 A 
ENDROOT
BRANCH   1   7
ATOM      7  C   UNL     1      49.766   7.880  13.238  0.00  0.00    +0.000 C 
BRANCH   7   8
ATOM      8  C   UNL     1      50.483   8.450  12.011  0.00  0.00    +0.000 C 
BRANCH   8   9
ATOM      9  N   UNL     1      51.081   7.379  11.216  0.00  0.00    +0.000 NA
ATOM     10  H   UNL     1      50.428   7.091  10.488  0.00  0.00    +0.000 HD
ATOM     11  H   UNL     1      51.231   6.557  11.803  0.00  0.00    +0.000 HD
ENDBRANCH   8   9
ENDBRANCH   7   8
ENDBRANCH   1   7
BRANCH   4  12
ATOM     12  C   UNL     1      44.262   6.194  12.235  0.00  0.00    +0.000 C 
BRANCH  12  13
ATOM     13  N   UNL     1      44.146   4.808  11.792  0.00  0.00    +0.000 N 
ATOM     14  C   UNL     1      43.469   3.830  12.486  0.00  0.00    +0.000 A 
ATOM     15  C   UNL     1      43.443   2.692  11.711  0.00  0.00    +0.000 A 
ATOM     16  C   UNL     1      44.115   2.988  10.503  0.00  0.00    +0.000 A 
ATOM     17  N   UNL     1      44.314   2.185   9.430  0.00  0.00    +0.000 NA
ATOM     18  C   UNL     1      44.987   2.757   8.411  0.00  0.00    +0.000 A 
ATOM     19  C   UNL     1      45.475   4.055   8.397  0.00  0.00    +0.000 A 
ATOM     20  C   UNL     1      45.266   4.875   9.503  0.00  0.00    +0.000 A 
ATOM     21  C   UNL     1      44.560   4.309  10.571  0.00  0.00    +0.000 A 
ENDBRANCH  12  13
ENDBRANCH   4  12
TORSDOF 5
ENDMDL
MODEL 6
REMARK VINA RESULT:    -5.618      1.615      2.148
REMARK INTER + INTRA:          -7.694
REMARK INTER:                  -7.372
REMARK INTRA:                  -0.322
REMARK UNBOUND:                -0.598
REMARK  Name = 
REMARK  5 active torsions:
REMARK  status: ('A' for Active; 'I' for Inactive)
REMARK    1  A    between atoms: N_1  and  C_2
REMARK    2  A    between atoms: C_2  and  C_3
REMARK    3  A    between atoms: C_3  and  C_4
REMARK    4  A    between atoms: C_7  and  C_8
REMARK    5  A    between atoms: C_8  and  N_9
REMARK                            x       y       z     vdW  Elec       q    Type
REMARK                         _______ _______ _______ _____ _____    ______ ____
ROOT
ATOM      1  C   UNL     1      45.441   3.689   8.599  0.00  0.00    +0.000 A 
ATOM      2  C   UNL     1      44.861   2.927   9.620  0.00  0.00    +0.000 A 
ATOM      3  C   UNL     1      44.706   3.459  10.904  0.00  0.00    +0.000 A 
ATOM      4  C   UNL     1      45.122   4.767  11.192  0.00  0.00    +0.000 A 
ATOM      5  C   UNL     1      45.679   5.535  10.160  0.00  0.00    +0.000 A 
ATOM      6  C   UNL     1      45.832   5.003   8.876  0.00  0.00    +0.000 A 
ENDROOT
BRANCH   1   7
ATOM      7  C   UNL     1      45.664   3.092   7.229  0.00  0.00    +0.000 C 
BRANCH   7   8
ATOM      8  C   UNL     1      47.133   3.112   6.799  0.00  0.00    +0.000 C 
BRANCH   8   9
ATOM      9  N   UNL     1      47.246   3.170   5.343  0.00  0.00    +0.000 NA
ATOM     10  H   UNL     1      46.496   3.748   4.966  0.00  0.00    +0.000 HD
ATOM     11  H   UNL     1      47.110   2.238   4.949  0.00  0.00    +0.000 HD
ENDBRANCH   8   9
ENDBRANCH   7   8
ENDBRANCH   1   7
BRANCH   4  12
ATOM     12  C   UNL     1      44.974   5.336  12.580  0.00  0.00    +0.000 C 
BRANCH  12  13
ATOM     13  N   UNL     1      45.524   6.683  12.696  0.00  0.00    +0.000 N 
ATOM     14  C   UNL     1      44.809   7.834  12.448  0.00  0.00    +0.000 A 
ATOM     15  C   UNL     1      45.593   8.911  12.795  0.00  0.00    +0.000 A 
ATOM     16  C   UNL     1      46.819   8.403  13.280  0.00  0.00    +0.000 A 
ATOM     17  N   UNL     1      47.886   9.088  13.760  0.00  0.00    +0.000 NA
ATOM     18  C   UNL     1      48.918   8.320  14.163  0.00  0.00    +0.000 A 
ATOM     19  C   UNL     1      48.958   6.934  14.112  0.00  0.00    +0.000 A 
ATOM     20  C   UNL     1      47.859   6.237  13.618  0.00  0.00    +0.000 A 
ATOM     21  C   UNL     1      46.769   7.010  13.202  0.00  0.00    +0.000 A 
ENDBRANCH  12  13
ENDBRANCH   4  12
TORSDOF 5
ENDMDL
MODEL 7
REMARK VINA RESULT:    -5.594      1.585      6.435
REMARK INTER + INTRA:          -7.664
REMARK INTER:                  -7.117
REMARK INTRA:                  -0.547
REMARK UNBOUND:                -0.598
REMARK  Name = 
REMARK  5 active torsions:
REMARK  status: ('A' for Active; 'I' for Inactive)
REMARK    1  A    between atoms: N_1  and  C_2
REMARK    2  A    between atoms: C_2  and  C_3
REMARK    3  A    between atoms: C_3  and  C_4
REMARK    4  A    between atoms: C_7  and  C_8
REMARK    5  A    between atoms: C_8  and  N_9
REMARK                            x       y       z     vdW  Elec       q    Type
REMARK                         _______ _______ _______ _____ _____    ______ ____
ROOT
ATOM      1  C   UNL     1      47.119   6.606  12.995  0.00  0.00    +0.000 A 
ATOM      2  C   UNL     1      46.324   5.520  13.379  0.00  0.00    +0.000 A 
ATOM      3  C   UNL     1      45.406   4.960  12.485  0.00  0.00    +0.000 A 
ATOM      4  C   UNL     1      45.271   5.468  11.185  0.00  0.00    +0.000 A 
ATOM      5  C   UNL     1      46.087   6.539  10.796  0.00  0.00    +0.000 A 
ATOM      6  C   UNL     1      47.006   7.099  11.690  0.00  0.00    +0.000 A 
ENDROOT
BRANCH   1   7
ATOM      7  C   UNL     1      48.066   7.250  13.981  0.00  0.00    +0.000 C 
BRANCH   7   8
ATOM      8  C   UNL     1      47.790   8.742  14.188  0.00  0.00    +0.000 C 
BRANCH   8   9
ATOM      9  N   UNL     1      47.406   9.011  15.573  0.00  0.00    +0.000 NA
ATOM     10  H   UNL     1      48.234   9.264  16.112  0.00  0.00    +0.000 HD
ATOM     11  H   UNL     1      47.040   8.159  16.000  0.00  0.00    +0.000 HD
ENDBRANCH   8   9
ENDBRANCH   7   8
ENDBRANCH   1   7
BRANCH   4  12
ATOM     12  C   UNL     1      44.269   4.878  10.226  0.00  0.00    +0.000 C 
BRANCH  12  13
ATOM     13  N   UNL     1      44.727   3.624   9.636  0.00  0.00    +0.000 N 
ATOM     14  C   UNL     1      44.204   2.388   9.945  0.00  0.00    +0.000 A 
ATOM     15  C   UNL     1      44.768   1.458   9.102  0.00  0.00    +0.000 A 
ATOM     16  C   UNL     1      45.655   2.148   8.244  0.00  0.00    +0.000 A 
ATOM     17  N   UNL     1      46.413   1.651   7.236  0.00  0.00    +0.000 NA
ATOM     18  C   UNL     1      47.157   2.565   6.582  0.00  0.00    +0.000 A 
ATOM     19  C   UNL     1      47.201   3.922   6.869  0.00  0.00    +0.000 A 
ATOM     20  C   UNL     1      46.421   4.426   7.907  0.00  0.00    +0.000 A 
ATOM     21  C   UNL     1      45.629   3.499   8.595  0.00  0.00    +0.000 A 
ENDBRANCH  12  13
ENDBRANCH   4  12
TORSDOF 5
ENDMDL
MODEL 8
REMARK VINA RESULT:    -5.083      3.721      5.781
REMARK INTER + INTRA:          -7.018
REMARK INTER:                  -6.427
REMARK INTRA:                  -0.590
REMARK UNBOUND:                -0.598
REMARK  Name = 
REMARK  5 active torsions:
REMARK  status: ('A' for Active; 'I' for Inactive)
REMARK    1  A    between atoms: N_1  and  C_2
REMARK    2  A    between atoms: C_2  and  C_3
REMARK    3  A    between atoms: C_3  and  C_4
REMARK    4  A    between atoms: C_7  and  C_8
REMARK    5  A    between atoms: C_8  and  N_9
REMARK                            x       y       z     vdW  Elec       q    Type
REMARK                         _______ _______ _______ _____ _____    ______ ____
ROOT
ATOM      1  C   UNL     1      44.754   5.138  12.937  0.00  0.00    +0.000 A 
ATOM      2  C   UNL     1      44.942   6.506  12.708  0.00  0.00    +0.000 A 
ATOM      3  C   UNL     1      46.183   7.104  12.952  0.00  0.00    +0.000 A 
ATOM      4  C   UNL     1      47.263   6.344  13.423  0.00  0.00    +0.000 A 
ATOM      5  C   UNL     1      47.077   4.969  13.627  0.00  0.00    +0.000 A 
ATOM      6  C   UNL     1      45.836   4.372  13.382  0.00  0.00    +0.000 A 
ENDROOT
BRANCH   1   7
ATOM      7  C   UNL     1      43.397   4.506  12.732  0.00  0.00    +0.000 C 
BRANCH   7   8
ATOM      8  C   UNL     1      43.301   3.704  11.431  0.00  0.00    +0.000 C 
BRANCH   8   9
ATOM      9  N   UNL     1      43.053   2.291  11.711  0.00  0.00    +0.000 NA
ATOM     10  H   UNL     1      43.578   1.716  11.054  0.00  0.00    +0.000 HD
ATOM     11  H   UNL     1      42.068   2.075  11.550  0.00  0.00    +0.000 HD
ENDBRANCH   8   9
ENDBRANCH   7   8
ENDBRANCH   1   7
BRANCH   4  12
ATOM     12  C   UNL     1      48.596   6.989  13.705  0.00  0.00    +0.000 C 
BRANCH  12  13
ATOM     13  N   UNL     1      48.627   7.674  14.994  0.00  0.00    +0.000 N 
ATOM     14  C   UNL     1      48.317   9.004  15.169  0.00  0.00    +0.000 A 
ATOM     15  C   UNL     1      48.311   9.271  16.519  0.00  0.00    +0.000 A 
ATOM     16  C   UNL     1      48.618   8.065  17.190  0.00  0.00    +0.000 A 
ATOM     17  N   UNL     1      48.699   7.838  18.524  0.00  0.00    +0.000 NA
ATOM     18  C   UNL     1      49.001   6.569  18.866  0.00  0.00    +0.000 A 
ATOM     19  C   UNL     1      49.232   5.530  17.976  0.00  0.00    +0.000 A 
ATOM     20  C   UNL     1      49.148   5.770  16.608  0.00  0.00    +0.000 A 
ATOM     21  C   UNL     1      48.824   7.078  16.226  0.00  0.00    +0.000 A 
ENDBRANCH  12  13
ENDBRANCH   4  12
TORSDOF 5
ENDMDL
MODEL 9
REMARK VINA RESULT:    -4.990      2.394      4.364
REMARK INTER + INTRA:          -6.901
REMARK INTER:                  -6.337
REMARK INTRA:                  -0.564
REMARK UNBOUND:                -0.598
REMARK  Name = 
REMARK  5 active torsions:
REMARK  status: ('A' for Active; 'I' for Inactive)
REMARK    1  A    between atoms: N_1  and  C_2
REMARK    2  A    between atoms: C_2  and  C_3
REMARK    3  A    between atoms: C_3  and  C_4
REMARK    4  A    between atoms: C_7  and  C_8
REMARK    5  A    between atoms: C_8  and  N_9
REMARK                            x       y       z     vdW  Elec       q    Type
REMARK                         _______ _______ _______ _____ _____    ______ ____
ROOT
ATOM      1  C   UNL     1      44.923   4.147  11.337  0.00  0.00    +0.000 A 
ATOM      2  C   UNL     1      45.017   5.471  10.892  0.00  0.00    +0.000 A 
ATOM      3  C   UNL     1      45.740   6.418  11.625  0.00  0.00    +0.000 A 
ATOM      4  C   UNL     1      46.390   6.058  12.814  0.00  0.00    +0.000 A 
ATOM      5  C   UNL     1      46.315   4.725  13.242  0.00  0.00    +0.000 A 
ATOM      6  C   UNL     1      45.593   3.778  12.508  0.00  0.00    +0.000 A 
ENDROOT
BRANCH   1   7
ATOM      7  C   UNL     1      44.092   3.140  10.577  0.00  0.00    +0.000 C 
BRANCH   7   8
ATOM      8  C   UNL     1      44.808   2.582   9.343  0.00  0.00    +0.000 C 
BRANCH   8   9
ATOM      9  N   UNL     1      44.346   3.252   8.129  0.00  0.00    +0.000 NA
ATOM     10  H   UNL     1      45.082   3.224   7.424  0.00  0.00    +0.000 HD
ATOM     11  H   UNL     1      44.179   4.241   8.323  0.00  0.00    +0.000 HD
ENDBRANCH   8   9
ENDBRANCH   7   8
ENDBRANCH   1   7
BRANCH   4  12
ATOM     12  C   UNL     1      47.153   7.081  13.616  0.00  0.00    +0.000 C 
BRANCH  12  13
ATOM     13  N   UNL     1      48.219   7.717  12.848  0.00  0.00    +0.000 N 
ATOM     14  C   UNL     1      49.373   7.078  12.452  0.00  0.00    +0.000 A 
ATOM     15  C   UNL     1      50.077   7.930  11.631  0.00  0.00    +0.000 A 
ATOM     16  C   UNL     1      49.324   9.121  11.513  0.00  0.00    +0.000 A 
ATOM     17  N   UNL     1      49.608  10.229  10.786  0.00  0.00    +0.000 NA
ATOM     18  C   UNL     1      48.685  11.209  10.863  0.00  0.00    +0.000 A 
ATOM     19  C   UNL     1      47.519  11.159  11.614  0.00  0.00    +0.000 A 
ATOM     20  C   UNL     1      47.235  10.018  12.359  0.00  0.00    +0.000 A 
ATOM     21  C   UNL     1      48.172   8.980  12.287  0.00  0.00    +0.000 A 
ENDBRANCH  12  13
ENDBRANCH   4  12
TORSDOF 5
ENDMDL
