MODEL 1
REMARK VINA RESULT:    -9.724      0.000      0.000
REMARK INTER + INTRA:         -12.822
REMARK INTER:                 -11.998
REMARK INTRA:                  -0.824
REMARK UNBOUND:                -0.824
REMARK  Name = 
REMARK  4 active torsions:
REMARK  status: ('A' for Active; 'I' for Inactive)
REMARK    1  A    between atoms: C_2  and  C_4
REMARK    2  A    between atoms: N_8  and  C_9
REMARK    3  A    between atoms: C_9  and  C_10
REMARK    4  A    between atoms: C_14  and  C_15
REMARK                            x       y       z     vdW  Elec       q    Type
REMARK                         _______ _______ _______ _____ _____    ______ ____
ROOT
ATOM      1  C   UNL     1      43.925   4.917  11.429  0.00  0.00    +0.000 C 
ATOM      2  C   UNL     1      42.673   5.138  12.269  0.00  0.00    +0.000 C 
ATOM      3  C   UNL     1      42.997   6.087  11.164  0.00  0.00    +0.000 C 
ENDROOT
BRANCH   1   8
ATOM      4  C   UNL     1      46.451   2.676   7.485  0.00  0.00    +0.000 A 
ATOM      5  C   UNL     1      46.052   4.004   7.604  0.00  0.00    +0.000 A 
ATOM      6  C   UNL     1      45.227   4.373   8.669  0.00  0.00    +0.000 A 
ATOM      7  C   UNL     1      44.811   3.414   9.584  0.00  0.00    +0.000 A 
ATOM      8  N   UNL     1      43.910   3.683  10.620  0.00  0.00    +0.000 N 
ATOM      9  N   UNL     1      45.180   2.120   9.467  0.00  0.00    +0.000 NA
ATOM     10  C   UNL     1      45.985   1.777   8.429  0.00  0.00    +0.000 A 
ATOM     11  H   UNL     1      43.863   2.817  11.156  0.00  0.00    +0.000 HD
BRANCH   4  13
ATOM     12  N   UNL     1      47.474   3.003   5.304  0.00  0.00    +0.000 N 
ATOM     13  C   UNL     1      47.310   2.185   6.389  0.00  0.00    +0.000 C 
ATOM     14  O   UNL     1      47.877   1.103   6.452  0.00  0.00    +0.000 OA
ATOM     15  H   UNL     1      48.142   2.697   4.607  0.00  0.00    +0.000 HD
ATOM     16  H   UNL     1      47.225   3.981   5.316  0.00  0.00    +0.000 HD
ENDBRANCH   4  13
ENDBRANCH   1   8
BRANCH   1  17
ATOM     17  C   UNL     1      45.286   5.203  12.059  0.00  0.00    +0.000 A 
ATOM     18  C   UNL     1      46.125   6.225  11.586  0.00  0.00    +0.000 A 
ATOM     19  C   UNL     1      47.314   6.548  12.238  0.00  0.00    +0.000 A 
ATOM     20  C   UNL     1      47.682   5.863  13.397  0.00  0.00    +0.000 A 
ATOM     21  C   UNL     1      46.888   4.827  13.915  0.00  0.00    +0.000 A 
ATOM     22  C   UNL     1      45.711   4.505  13.207  0.00  0.00    +0.000 A 
BRANCH  21  23
ATOM     23  C   UNL     1      47.234   4.140  15.176  0.00  0.00    +0.000 A 
ATOM     24  N   UNL     1      47.862   2.948  15.098  0.00  0.00    +0.000 NA
ATOM     25  C   UNL     1      48.234   2.385  16.259  0.00  0.00    +0.000 A 
ATOM     26  C   UNL     1      48.001   2.951  17.489  0.00  0.00    +0.000 A 
ATOM     27  C   UNL     1      47.344   4.157  17.468  0.00  0.00    +0.000 A 
ATOM     28  N   UNL     1      46.954   4.772  16.337  0.00  0.00    +0.000 NA
ENDBRANCH  21  23
ENDBRANCH   1  17
TORSDOF 4
ENDMDL
MODEL 2
REMARK VINA RESULT:    -9.061      2.067      3.525
REMARK INTER + INTRA:         -12.004
REMARK INTER:                 -10.923
REMARK INTRA:                  -1.081
REMARK UNBOUND:                -0.824
REMARK  Name = 
REMARK  4 active torsions:
REMARK  status: ('A' for Active; 'I' for Inactive)
REMARK    1  A    between atoms: C_2  and  C_4
REMARK    2  A    between atoms: N_8  and  C_9
REMARK    3  A    between atoms: C_9  and  C_10
REMARK    4  A    between atoms: C_14  and  C_15
REMARK                            x       y       z     vdW  Elec       q    Type
REMARK                         _______ _______ _______ _____ _____    ______ ____
ROOT
ATOM      1  C   UNL     1      43.826   4.907  11.369  0.00  0.00    +0.000 C 
ATOM      2  C   UNL     1      42.492   5.188  12.050  0.00  0.00    +0.000 C 
ATOM      3  C   UNL     1      43.021   6.150  11.041  0.00  0.00    +0.000 C 
ENDROOT
BRANCH   1   8
ATOM      4  C   UNL     1      46.567   2.748   7.525  0.00  0.00    +0.000 A 
ATOM      5  C   UNL     1      46.198   4.081   7.671  0.00  0.00    +0.000 A 
ATOM      6  C   UNL     1      45.310   4.433   8.689  0.00  0.00    +0.000 A 
ATOM      7  C   UNL     1      44.800   3.452   9.531  0.00  0.00    +0.000 A 
ATOM      8  N   UNL     1      43.834   3.708  10.509  0.00  0.00    +0.000 N 
ATOM      9  N   UNL     1      45.140   2.152   9.386  0.00  0.00    +0.000 NA
ATOM     10  C   UNL     1      46.008   1.826   8.394  0.00  0.00    +0.000 A 
ATOM     11  H   UNL     1      43.724   2.823  11.004  0.00  0.00    +0.000 HD
BRANCH   4  13
ATOM     12  N   UNL     1      47.457   2.924   5.270  0.00  0.00    +0.000 N 
ATOM     13  C   UNL     1      47.489   2.273   6.474  0.00  0.00    +0.000 C 
ATOM     14  O   UNL     1      48.273   1.355   6.672  0.00  0.00    +0.000 OA
ATOM     15  H   UNL     1      48.161   2.654   4.594  0.00  0.00    +0.000 HD
ATOM     16  H   UNL     1      47.009   3.819   5.145  0.00  0.00    +0.000 HD
ENDBRANCH   4  13
ENDBRANCH   1   8
BRANCH   1  17
ATOM     17  C   UNL     1      45.108   5.071  12.181  0.00  0.00    +0.000 A 
ATOM     18  C   UNL     1      45.556   4.080  13.071  0.00  0.00    +0.000 A 
ATOM     19  C   UNL     1      46.783   4.192  13.723  0.00  0.00    +0.000 A 
ATOM     20  C   UNL     1      47.603   5.295  13.481  0.00  0.00    +0.000 A 
ATOM     21  C   UNL     1      47.208   6.320  12.606  0.00  0.00    +0.000 A 
ATOM     22  C   UNL     1      45.944   6.189  11.994  0.00  0.00    +0.000 A 
BRANCH  21  23
ATOM     23  C   UNL     1      48.096   7.459  12.293  0.00  0.00    +0.000 A 
ATOM     24  N   UNL     1      49.411   7.209  12.121  0.00  0.00    +0.000 NA
ATOM     25  C   UNL     1      50.180   8.249  11.760  0.00  0.00    +0.000 A 
ATOM     26  C   UNL     1      49.699   9.522  11.571  0.00  0.00    +0.000 A 
ATOM     27  C   UNL     1      48.351   9.681  11.783  0.00  0.00    +0.000 A 
ATOM     28  N   UNL     1      47.531   8.676  12.138  0.00  0.00    +0.000 NA
ENDBRANCH  21  23
ENDBRANCH   1  17
TORSDOF 4
ENDMDL
MODEL 3
REMARK VINA RESULT:    -6.841      3.858      8.332
REMARK INTER + INTRA:          -9.264
REMARK INTER:                  -8.338
REMARK INTRA:                  -0.927
REMARK UNBOUND:                -0.824
REMARK  Name = 
REMARK  4 active torsions:
REMARK  status: ('A' for Active; 'I' for Inactive)
REMARK    1  A    between atoms: C_2  and  C_4
REMARK    2  A    between atoms: N_8  and  C_9
REMARK    3  A    between atoms: C_9  and  C_10
REMARK    4  A    between atoms: C_14  and  C_15
REMARK                            x       y       z     vdW  Elec       q    Type
REMARK                         _______ _______ _______ _____ _____    ______ ____
ROOT
ATOM      1  C   UNL     1      49.059   7.955  12.649  0.00  0.00    +0.000 C 
ATOM      2  C   UNL     1      50.031   8.187  11.499  0.00  0.00    +0.000 C 
ATOM      3  C   UNL     1      49.694   9.312  12.419  0.00  0.00    +0.000 C 
ENDROOT
BRANCH   1   8
ATOM      4  C   UNL     1      48.379   6.789  17.663  0.00  0.00    +0.000 A 
ATOM      5  C   UNL     1      48.496   8.048  17.084  0.00  0.00    +0.000 A 
ATOM      6  C   UNL     1      48.850   8.146  15.736  0.00  0.00    +0.000 A 
ATOM      7  C   UNL     1      49.089   6.993  14.999  0.00  0.00    +0.000 A 
ATOM      8  N   UNL     1      49.540   7.009  13.676  0.00  0.00    +0.000 N 
ATOM      9  N   UNL     1      48.993   5.766  15.558  0.00  0.00    +0.000 NA
ATOM     10  C   UNL     1      48.644   5.687  16.867  0.00  0.00    +0.000 A 
ATOM     11  H   UNL     1      49.546   6.030  13.391  0.00  0.00    +0.000 HD
BRANCH   4  13
ATOM     12  N   UNL     1      47.101   5.606  19.360  0.00  0.00    +0.000 N 
ATOM     13  C   UNL     1      48.022   6.580  19.081  0.00  0.00    +0.000 C 
ATOM     14  O   UNL     1      48.545   7.227  19.978  0.00  0.00    +0.000 OA
ATOM     15  H   UNL     1      46.941   5.406  20.339  0.00  0.00    +0.000 HD
ATOM     16  H   UNL     1      46.832   4.902  18.689  0.00  0.00    +0.000 HD
ENDBRANCH   4  13
ENDBRANCH   1   8
BRANCH   1  17
ATOM     17  C   UNL     1      47.576   7.786  12.330  0.00  0.00    +0.000 A 
ATOM     18  C   UNL     1      46.637   8.793  12.606  0.00  0.00    +0.000 A 
ATOM     19  C   UNL     1      45.305   8.673  12.209  0.00  0.00    +0.000 A 
ATOM     20  C   UNL     1      44.888   7.542  11.505  0.00  0.00    +0.000 A 
ATOM     21  C   UNL     1      45.779   6.499  11.204  0.00  0.00    +0.000 A 
ATOM     22  C   UNL     1      47.108   6.641  11.654  0.00  0.00    +0.000 A 
BRANCH  21  23
ATOM     23  C   UNL     1      45.364   5.330  10.403  0.00  0.00    +0.000 A 
ATOM     24  N   UNL     1      45.769   5.264   9.118  0.00  0.00    +0.000 NA
ATOM     25  C   UNL     1      45.443   4.153   8.437  0.00  0.00    +0.000 A 
ATOM     26  C   UNL     1      44.726   3.114   8.978  0.00  0.00    +0.000 A 
ATOM     27  C   UNL     1      44.345   3.277  10.287  0.00  0.00    +0.000 A 
ATOM     28  N   UNL     1      44.649   4.363  11.020  0.00  0.00    +0.000 NA
ENDBRANCH  21  23
ENDBRANCH   1  17
TORSDOF 4
ENDMDL
MODEL 4
REMARK VINA RESULT:    -6.773      2.895      4.574
REMARK INTER + INTRA:          -9.181
REMARK INTER:                  -8.812
REMARK INTRA:                  -0.368
REMARK UNBOUND:                -0.824
REMARK  Name = 
REMARK  4 active torsions:
REMARK  status: ('A' for Active; 'I' for Inactive)
REMARK    1  A    between atoms: C_2  and  C_4
REMARK    2  A    between atoms: N_8  and  C_9
REMARK    3  A    between atoms: C_9  and  C_10
REMARK    4  A    between atoms: C_14  and  C_15
REMARK                            x       y       z     vdW  Elec       q    Type
REMARK                         _______ _______ _______ _____ _____    ______ ____
ROOT
ATOM      1  C   UNL     1      47.253   8.314  13.118  0.00  0.00    +0.000 C 
ATOM      2  C   UNL     1      47.437   9.654  12.416  0.00  0.00    +0.000 C 
ATOM      3  C   UNL     1      48.088   8.433  11.858  0.00  0.00    +0.000 C 
ENDROOT
BRANCH   1   8
ATOM      4  C   UNL     1      44.483   4.220  11.526  0.00  0.00    +0.000 A 
ATOM      5  C   UNL     1      45.483   4.899  10.837  0.00  0.00    +0.000 A 
ATOM      6  C   UNL     1      45.989   6.087  11.370  0.00  0.00    +0.000 A 
ATOM      7  C   UNL     1      45.483   6.578  12.566  0.00  0.00    +0.000 A 
ATOM      8  N   UNL     1      45.867   7.807  13.114  0.00  0.00    +0.000 N 
ATOM      9  N   UNL     1      44.500   5.934  13.234  0.00  0.00    +0.000 NA
ATOM     10  C   UNL     1      44.022   4.779  12.706  0.00  0.00    +0.000 A 
ATOM     11  H   UNL     1      45.390   7.850  14.015  0.00  0.00    +0.000 HD
BRANCH   4  13
ATOM     12  N   UNL     1      44.420   2.395   9.922  0.00  0.00    +0.000 N 
ATOM     13  C   UNL     1      43.875   2.965  11.041  0.00  0.00    +0.000 C 
ATOM     14  O   UNL     1      42.941   2.435  11.626  0.00  0.00    +0.000 OA
ATOM     15  H   UNL     1      44.058   1.486   9.660  0.00  0.00    +0.000 HD
ATOM     16  H   UNL     1      45.321   2.663   9.557  0.00  0.00    +0.000 HD
ENDBRANCH   4  13
ENDBRANCH   1   8
BRANCH   1  17
ATOM     17  C   UNL     1      47.973   8.079  14.443  0.00  0.00    +0.000 A 
ATOM     18  C   UNL     1      48.251   9.128  15.334  0.00  0.00    +0.000 A 
ATOM     19  C   UNL     1      48.809   8.886  16.589  0.00  0.00    +0.000 A 
ATOM     20  C   UNL     1      49.083   7.577  16.989  0.00  0.00    +0.000 A 
ATOM     21  C   UNL     1      48.833   6.487  16.139  0.00  0.00    +0.000 A 
ATOM     22  C   UNL     1      48.302   6.775  14.865  0.00  0.00    +0.000 A 
BRANCH  21  23
ATOM     23  C   UNL     1      49.058   5.094  16.577  0.00  0.00    +0.000 A 
ATOM     24  N   UNL     1      48.076   4.195  16.362  0.00  0.00    +0.000 NA
ATOM     25  C   UNL     1      48.339   2.921  16.698  0.00  0.00    +0.000 A 
ATOM     26  C   UNL     1      49.530   2.509  17.245  0.00  0.00    +0.000 A 
ATOM     27  C   UNL     1      50.463   3.498  17.440  0.00  0.00    +0.000 A 
ATOM     28  N   UNL     1      50.258   4.788  17.116  0.00  0.00    +0.000 NA
ENDBRANCH  21  23
ENDBRANCH   1  17
TORSDOF 4
ENDMDL
