MODEL 1
REMARK VINA RESULT:    -7.563      0.000      0.000
REMARK INTER + INTRA:         -13.386
REMARK INTER:                 -11.542
REMARK INTRA:                  -1.844
REMARK UNBOUND:                -1.844
REMARK  Name = 
REMARK  10 active torsions:
REMARK  status: ('A' for Active; 'I' for Inactive)
REMARK    1  A    between atoms: C_1  and  S_2
REMARK    2  A    between atoms: S_2  and  N_5
REMARK    3  A    between atoms: N_5  and  C_6
REMARK    4  A    between atoms: C_11  and  C_12
REMARK    5  A    between atoms: C_12  and  C_14
REMARK    6  A    between atoms: C_14  and  O_15
REMARK    7  A    between atoms: O_15  and  C_16
REMARK    8  A    between atoms: C_19  and  C_20
REMARK    9  A    between atoms: C_20  and  N_21
REMARK   10  A    between atoms: C_22  and  C_24
REMARK                            x       y       z     vdW  Elec       q    Type
REMARK                         _______ _______ _______ _____ _____    ______ ____
ROOT
ATOM      1  C   UNL     1      49.452   7.852  15.465  0.00  0.00    +0.000 A 
ATOM      2  C   UNL     1      48.476   8.819  15.292  0.00  0.00    +0.000 A 
ATOM      3  C   UNL     1      47.778   8.843  14.088  0.00  0.00    +0.000 A 
ATOM      4  C   UNL     1      48.089   7.919  13.088  0.00  0.00    +0.000 A 
ATOM      5  C   UNL     1      49.113   7.012  13.354  0.00  0.00    +0.000 A 
ATOM      6  N   UNL     1      49.803   6.955  14.517  0.00  0.00    +0.000 NA
ENDROOT
BRANCH   1   7
ATOM      7  O   UNL     1      50.089   7.837  16.687  0.00  0.00    +0.000 OA
BRANCH   7   8
ATOM      8  C   UNL     1      51.151   6.886  16.717  0.00  0.00    +0.000 C 
BRANCH   8   9
ATOM      9  C   UNL     1      50.773   5.713  17.605  0.00  0.00    +0.000 C 
ATOM     10  O   UNL     1      51.410   4.655  17.601  0.00  0.00    +0.000 OA
BRANCH   9  16
ATOM     11  C   UNL     1      48.237   5.723  18.094  0.00  0.00    +0.000 A 
ATOM     12  C   UNL     1      47.213   5.888  19.044  0.00  0.00    +0.000 A 
ATOM     13  C   UNL     1      47.509   6.065  20.395  0.00  0.00    +0.000 A 
ATOM     14  C   UNL     1      48.833   6.092  20.812  0.00  0.00    +0.000 A 
ATOM     15  C   UNL     1      49.858   5.983  19.871  0.00  0.00    +0.000 A 
ATOM     16  C   UNL     1      49.579   5.815  18.499  0.00  0.00    +0.000 A 
BRANCH  11  17
ATOM     17  N   UNL     1      47.826   5.444  16.741  0.00  0.00    +0.000 N 
ATOM     18  H   UNL     1      48.519   5.810  16.082  0.00  0.00    +0.000 HD
BRANCH  17  20
ATOM     19  C   UNL     1      46.995   3.969  14.688  0.00  0.00    +0.000 C 
ATOM     20  S   UNL     1      47.572   3.799  16.368  0.00  0.00    +0.000 S 
ATOM     21  O   UNL     1      46.501   3.291  17.188  0.00  0.00    +0.000 OA
ATOM     22  O   UNL     1      48.874   3.167  16.332  0.00  0.00    +0.000 OA
ENDBRANCH  17  20
ENDBRANCH  11  17
ENDBRANCH   9  16
ENDBRANCH   8   9
ENDBRANCH   7   8
ENDBRANCH   1   7
BRANCH   4  23
ATOM     23  C   UNL     1      47.365   7.904  11.775  0.00  0.00    +0.000 C 
BRANCH  23  24
ATOM     24  N   UNL     1      46.729   6.631  11.531  0.00  0.00    +0.000 N 
ATOM     25  C   UNL     1      45.367   6.490  11.643  0.00  0.00    +0.000 C 
ATOM     26  O   UNL     1      44.638   7.449  11.884  0.00  0.00    +0.000 OA
ATOM     27  H   UNL     1      47.313   5.802  11.595  0.00  0.00    +0.000 HD
BRANCH  25  28
ATOM     28  C   UNL     1      44.818   5.151  11.395  0.00  0.00    +0.000 A 
ATOM     29  C   UNL     1      44.082   4.520  12.389  0.00  0.00    +0.000 A 
ATOM     30  S   UNL     1      43.491   2.986  11.937  0.00  0.00    +0.000 S 
ATOM     31  C   UNL     1      44.238   3.089  10.412  0.00  0.00    +0.000 A 
ATOM     32  N   UNL     1      44.150   2.065   9.521  0.00  0.00    +0.000 NA
ATOM     33  C   UNL     1      44.788   2.262   8.416  0.00  0.00    +0.000 A 
ATOM     34  N   UNL     1      45.496   3.397   8.114  0.00  0.00    +0.000 N 
ATOM     35  C   UNL     1      45.580   4.474   8.968  0.00  0.00    +0.000 A 
ATOM     36  O   UNL     1      46.165   5.503   8.647  0.00  0.00    +0.000 OA
ATOM     37  C   UNL     1      44.902   4.290  10.239  0.00  0.00    +0.000 A 
ATOM     38  H   UNL     1      45.960   3.496   7.225  0.00  0.00    +0.000 HD
ENDBRANCH  25  28
ENDBRANCH  23  24
ENDBRANCH   4  23
TORSDOF 9
ENDMDL
MODEL 2
REMARK VINA RESULT:    -7.397      1.681      2.400
REMARK INTER + INTRA:         -13.133
REMARK INTER:                 -11.302
REMARK INTRA:                  -1.831
REMARK UNBOUND:                -1.844
REMARK  Name = 
REMARK  10 active torsions:
REMARK  status: ('A' for Active; 'I' for Inactive)
REMARK    1  A    between atoms: C_1  and  S_2
REMARK    2  A    between atoms: S_2  and  N_5
REMARK    3  A    between atoms: N_5  and  C_6
REMARK    4  A    between atoms: C_11  and  C_12
REMARK    5  A    between atoms: C_12  and  C_14
REMARK    6  A    between atoms: C_14  and  O_15
REMARK    7  A    between atoms: O_15  and  C_16
REMARK    8  A    between atoms: C_19  and  C_20
REMARK    9  A    between atoms: C_20  and  N_21
REMARK   10  A    between atoms: C_22  and  C_24
REMARK                            x       y       z     vdW  Elec       q    Type
REMARK                         _______ _______ _______ _____ _____    ______ ____
ROOT
ATOM      1  C   UNL     1      49.366   7.507  16.064  0.00  0.00    +0.000 A 
ATOM      2  C   UNL     1      49.093   8.777  15.582  0.00  0.00    +0.000 A 
ATOM      3  C   UNL     1      48.372   8.892  14.398  0.00  0.00    +0.000 A 
ATOM      4  C   UNL     1      47.963   7.740  13.721  0.00  0.00    +0.000 A 
ATOM      5  C   UNL     1      48.321   6.514  14.276  0.00  0.00    +0.000 A 
ATOM      6  N   UNL     1      49.012   6.366  15.430  0.00  0.00    +0.000 NA
ENDROOT
BRANCH   1   7
ATOM      7  O   UNL     1      50.045   7.440  17.261  0.00  0.00    +0.000 OA
BRANCH   7   8
ATOM      8  C   UNL     1      51.154   6.545  17.189  0.00  0.00    +0.000 C 
BRANCH   8   9
ATOM      9  C   UNL     1      51.052   5.501  18.287  0.00  0.00    +0.000 C 
ATOM     10  O   UNL     1      50.852   5.807  19.466  0.00  0.00    +0.000 OA
BRANCH   9  16
ATOM     11  C   UNL     1      50.254   3.224  17.365  0.00  0.00    +0.000 A 
ATOM     12  C   UNL     1      50.541   1.864  17.153  0.00  0.00    +0.000 A 
ATOM     13  C   UNL     1      51.801   1.342  17.445  0.00  0.00    +0.000 A 
ATOM     14  C   UNL     1      52.786   2.171  17.966  0.00  0.00    +0.000 A 
ATOM     15  C   UNL     1      52.494   3.510  18.231  0.00  0.00    +0.000 A 
ATOM     16  C   UNL     1      51.224   4.053  17.952  0.00  0.00    +0.000 A 
BRANCH  11  17
ATOM     17  N   UNL     1      48.958   3.687  16.935  0.00  0.00    +0.000 N 
ATOM     18  H   UNL     1      48.667   3.181  16.094  0.00  0.00    +0.000 HD
BRANCH  17  20
ATOM     19  C   UNL     1      47.335   5.281  18.315  0.00  0.00    +0.000 C 
ATOM     20  S   UNL     1      47.704   3.551  18.083  0.00  0.00    +0.000 S 
ATOM     21  O   UNL     1      48.243   3.013  19.307  0.00  0.00    +0.000 OA
ATOM     22  O   UNL     1      46.577   2.939  17.411  0.00  0.00    +0.000 OA
ENDBRANCH  17  20
ENDBRANCH  11  17
ENDBRANCH   9  16
ENDBRANCH   8   9
ENDBRANCH   7   8
ENDBRANCH   1   7
BRANCH   4  23
ATOM     23  C   UNL     1      47.183   7.812  12.442  0.00  0.00    +0.000 C 
BRANCH  23  24
ATOM     24  N   UNL     1      46.580   6.543  12.114  0.00  0.00    +0.000 N 
ATOM     25  C   UNL     1      45.267   6.466  11.718  0.00  0.00    +0.000 C 
ATOM     26  O   UNL     1      44.581   7.475  11.563  0.00  0.00    +0.000 OA
ATOM     27  H   UNL     1      47.028   5.708  12.481  0.00  0.00    +0.000 HD
BRANCH  25  28
ATOM     28  C   UNL     1      44.740   5.128  11.426  0.00  0.00    +0.000 A 
ATOM     29  C   UNL     1      43.991   4.463  12.389  0.00  0.00    +0.000 A 
ATOM     30  S   UNL     1      43.429   2.934  11.886  0.00  0.00    +0.000 S 
ATOM     31  C   UNL     1      44.206   3.084  10.380  0.00  0.00    +0.000 A 
ATOM     32  N   UNL     1      44.149   2.082   9.463  0.00  0.00    +0.000 NA
ATOM     33  C   UNL     1      44.807   2.314   8.376  0.00  0.00    +0.000 A 
ATOM     34  N   UNL     1      45.507   3.465   8.118  0.00  0.00    +0.000 N 
ATOM     35  C   UNL     1      45.560   4.520   9.000  0.00  0.00    +0.000 A 
ATOM     36  O   UNL     1      46.138   5.564   8.717  0.00  0.00    +0.000 OA
ATOM     37  C   UNL     1      44.858   4.296  10.251  0.00  0.00    +0.000 A 
ATOM     38  H   UNL     1      45.988   3.591   7.241  0.00  0.00    +0.000 HD
ENDBRANCH  25  28
ENDBRANCH  23  24
ENDBRANCH   4  23
TORSDOF 9
ENDMDL
MODEL 3
REMARK VINA RESULT:    -7.378      3.146      8.981
REMARK INTER + INTRA:         -13.104
REMARK INTER:                 -11.484
REMARK INTRA:                  -1.621
REMARK UNBOUND:                -1.844
REMARK  Name = 
REMARK  10 active torsions:
REMARK  status: ('A' for Active; 'I' for Inactive)
REMARK    1  A    between atoms: C_1  and  S_2
REMARK    2  A    between atoms: S_2  and  N_5
REMARK    3  A    between atoms: N_5  and  C_6
REMARK    4  A    between atoms: C_11  and  C_12
REMARK    5  A    between atoms: C_12  and  C_14
REMARK    6  A    between atoms: C_14  and  O_15
REMARK    7  A    between atoms: O_15  and  C_16
REMARK    8  A    between atoms: C_19  and  C_20
REMARK    9  A    between atoms: C_20  and  N_21
REMARK   10  A    between atoms: C_22  and  C_24
REMARK                            x       y       z     vdW  Elec       q    Type
REMARK                         _______ _______ _______ _____ _____    ______ ____
ROOT
ATOM      1  C   UNL     1      47.520   5.549  13.726  0.00  0.00    +0.000 A 
ATOM      2  C   UNL     1      48.306   6.689  13.757  0.00  0.00    +0.000 A 
ATOM      3  C   UNL     1      48.914   7.037  14.959  0.00  0.00    +0.000 A 
ATOM      4  C   UNL     1      48.703   6.253  16.095  0.00  0.00    +0.000 A 
ATOM      5  C   UNL     1      47.866   5.147  15.960  0.00  0.00    +0.000 A 
ATOM      6  N   UNL     1      47.268   4.775  14.805  0.00  0.00    +0.000 NA
ENDROOT
BRANCH   1   7
ATOM      7  O   UNL     1      46.972   5.217  12.505  0.00  0.00    +0.000 OA
BRANCH   7   8
ATOM      8  C   UNL     1      46.743   6.371  11.698  0.00  0.00    +0.000 C 
BRANCH   8   9
ATOM      9  C   UNL     1      45.472   6.193  10.887  0.00  0.00    +0.000 C 
ATOM     10  O   UNL     1      44.462   6.874  11.091  0.00  0.00    +0.000 OA
BRANCH   9  16
ATOM     11  C   UNL     1      44.494   4.087   9.753  0.00  0.00    +0.000 A 
ATOM     12  C   UNL     1      44.592   3.148   8.712  0.00  0.00    +0.000 A 
ATOM     13  C   UNL     1      45.539   3.295   7.700  0.00  0.00    +0.000 A 
ATOM     14  C   UNL     1      46.410   4.377   7.722  0.00  0.00    +0.000 A 
ATOM     15  C   UNL     1      46.357   5.285   8.780  0.00  0.00    +0.000 A 
ATOM     16  C   UNL     1      45.414   5.148   9.819  0.00  0.00    +0.000 A 
BRANCH  11  17
ATOM     17  N   UNL     1      43.417   3.903  10.694  0.00  0.00    +0.000 N 
ATOM     18  H   UNL     1      42.644   3.403  10.247  0.00  0.00    +0.000 HD
BRANCH  17  20
ATOM     19  C   UNL     1      43.289   4.275  13.325  0.00  0.00    +0.000 C 
ATOM     20  S   UNL     1      43.819   3.066  12.125  0.00  0.00    +0.000 S 
ATOM     21  O   UNL     1      45.250   2.920  12.199  0.00  0.00    +0.000 OA
ATOM     22  O   UNL     1      42.929   1.927  12.214  0.00  0.00    +0.000 OA
ENDBRANCH  17  20
ENDBRANCH  11  17
ENDBRANCH   9  16
ENDBRANCH   8   9
ENDBRANCH   7   8
ENDBRANCH   1   7
BRANCH   4  23
ATOM     23  C   UNL     1      49.336   6.586  17.413  0.00  0.00    +0.000 C 
BRANCH  23  24
ATOM     24  N   UNL     1      50.272   5.568  17.828  0.00  0.00    +0.000 N 
ATOM     25  C   UNL     1      51.545   5.528  17.313  0.00  0.00    +0.000 C 
ATOM     26  O   UNL     1      51.955   6.392  16.540  0.00  0.00    +0.000 OA
ATOM     27  H   UNL     1      49.885   4.723  18.240  0.00  0.00    +0.000 HD
BRANCH  25  28
ATOM     28  C   UNL     1      52.415   4.443  17.782  0.00  0.00    +0.000 A 
ATOM     29  C   UNL     1      53.667   4.746  18.301  0.00  0.00    +0.000 A 
ATOM     30  S   UNL     1      54.541   3.380  18.827  0.00  0.00    +0.000 S 
ATOM     31  C   UNL     1      53.297   2.328  18.337  0.00  0.00    +0.000 A 
ATOM     32  N   UNL     1      53.425   0.981  18.477  0.00  0.00    +0.000 NA
ATOM     33  C   UNL     1      52.420   0.300  18.037  0.00  0.00    +0.000 A 
ATOM     34  N   UNL     1      51.292   0.845  17.480  0.00  0.00    +0.000 N 
ATOM     35  C   UNL     1      51.102   2.202  17.354  0.00  0.00    +0.000 A 
ATOM     36  O   UNL     1      50.055   2.664  16.912  0.00  0.00    +0.000 OA
ATOM     37  C   UNL     1      52.217   3.012  17.808  0.00  0.00    +0.000 A 
ATOM     38  H   UNL     1      50.534   0.257  17.169  0.00  0.00    +0.000 HD
ENDBRANCH  25  28
ENDBRANCH  23  24
ENDBRANCH   4  23
TORSDOF 9
ENDMDL
MODEL 4
REMARK VINA RESULT:    -7.196      1.788      2.796
REMARK INTER + INTRA:         -12.826
REMARK INTER:                 -10.773
REMARK INTRA:                  -2.052
REMARK UNBOUND:                -1.844
REMARK  Name = 
REMARK  10 active torsions:
REMARK  status: ('A' for Active; 'I' for Inactive)
REMARK    1  A    between atoms: C_1  and  S_2
REMARK    2  A    between atoms: S_2  and  N_5
REMARK    3  A    between atoms: N_5  and  C_6
REMARK    4  A    between atoms: C_11  and  C_12
REMARK    5  A    between atoms: C_12  and  C_14
REMARK    6  A    between atoms: C_14  and  O_15
REMARK    7  A    between atoms: O_15  and  C_16
REMARK    8  A    between atoms: C_19  and  C_20
REMARK    9  A    between atoms: C_20  and  N_21
REMARK   10  A    between atoms: C_22  and  C_24
REMARK                            x       y       z     vdW  Elec       q    Type
REMARK                         _______ _______ _______ _____ _____    ______ ____
ROOT
ATOM      1  C   UNL     1      49.106   7.716  15.996  0.00  0.00    +0.000 A 
ATOM      2  C   UNL     1      48.455   8.881  15.627  0.00  0.00    +0.000 A 
ATOM      3  C   UNL     1      47.862   8.935  14.370  0.00  0.00    +0.000 A 
ATOM      4  C   UNL     1      47.953   7.836  13.512  0.00  0.00    +0.000 A 
ATOM      5  C   UNL     1      48.662   6.728  13.971  0.00  0.00    +0.000 A 
ATOM      6  N   UNL     1      49.242   6.638  15.190  0.00  0.00    +0.000 NA
ENDROOT
BRANCH   1   7
ATOM      7  O   UNL     1      49.643   7.690  17.265  0.00  0.00    +0.000 OA
BRANCH   7   8
ATOM      8  C   UNL     1      48.629   7.598  18.265  0.00  0.00    +0.000 C 
BRANCH   8   9
ATOM      9  C   UNL     1      48.778   6.298  19.037  0.00  0.00    +0.000 C 
ATOM     10  O   UNL     1      49.020   6.278  20.247  0.00  0.00    +0.000 OA
BRANCH   9  16
ATOM     11  C   UNL     1      49.639   3.989  18.262  0.00  0.00    +0.000 A 
ATOM     12  C   UNL     1      49.402   2.828  17.505  0.00  0.00    +0.000 A 
ATOM     13  C   UNL     1      48.176   2.621  16.873  0.00  0.00    +0.000 A 
ATOM     14  C   UNL     1      47.176   3.579  16.980  0.00  0.00    +0.000 A 
ATOM     15  C   UNL     1      47.420   4.758  17.683  0.00  0.00    +0.000 A 
ATOM     16  C   UNL     1      48.656   4.991  18.320  0.00  0.00    +0.000 A 
BRANCH  11  17
ATOM     17  N   UNL     1      50.898   4.062  18.960  0.00  0.00    +0.000 N 
ATOM     18  H   UNL     1      51.288   3.122  19.078  0.00  0.00    +0.000 HD
BRANCH  17  20
ATOM     19  C   UNL     1      53.487   3.923  18.360  0.00  0.00    +0.000 C 
ATOM     20  S   UNL     1      52.096   5.032  18.228  0.00  0.00    +0.000 S 
ATOM     21  O   UNL     1      52.332   6.190  19.053  0.00  0.00    +0.000 OA
ATOM     22  O   UNL     1      51.748   5.150  16.827  0.00  0.00    +0.000 OA
ENDBRANCH  17  20
ENDBRANCH  11  17
ENDBRANCH   9  16
ENDBRANCH   8   9
ENDBRANCH   7   8
ENDBRANCH   1   7
BRANCH   4  23
ATOM     23  C   UNL     1      47.330   7.845  12.149  0.00  0.00    +0.000 C 
BRANCH  23  24
ATOM     24  N   UNL     1      46.700   6.584  11.842  0.00  0.00    +0.000 N 
ATOM     25  C   UNL     1      45.337   6.493  11.692  0.00  0.00    +0.000 C 
ATOM     26  O   UNL     1      44.616   7.487  11.744  0.00  0.00    +0.000 OA
ATOM     27  H   UNL     1      47.225   5.740  12.055  0.00  0.00    +0.000 HD
BRANCH  25  28
ATOM     28  C   UNL     1      44.790   5.162  11.402  0.00  0.00    +0.000 A 
ATOM     29  C   UNL     1      44.021   4.516  12.360  0.00  0.00    +0.000 A 
ATOM     30  S   UNL     1      43.438   2.994  11.860  0.00  0.00    +0.000 S 
ATOM     31  C   UNL     1      44.231   3.123  10.360  0.00  0.00    +0.000 A 
ATOM     32  N   UNL     1      44.166   2.117   9.447  0.00  0.00    +0.000 NA
ATOM     33  C   UNL     1      44.838   2.333   8.366  0.00  0.00    +0.000 A 
ATOM     34  N   UNL     1      45.560   3.470   8.109  0.00  0.00    +0.000 N 
ATOM     35  C   UNL     1      45.622   4.529   8.986  0.00  0.00    +0.000 A 
ATOM     36  O   UNL     1      46.222   5.561   8.703  0.00  0.00    +0.000 OA
ATOM     37  C   UNL     1      44.906   4.323  10.232  0.00  0.00    +0.000 A 
ATOM     38  H   UNL     1      46.051   3.583   7.236  0.00  0.00    +0.000 HD
ENDBRANCH  25  28
ENDBRANCH  23  24
ENDBRANCH   4  23
TORSDOF 9
ENDMDL
MODEL 5
REMARK VINA RESULT:    -6.976      5.858     10.116
REMARK INTER + INTRA:         -12.490
REMARK INTER:                 -11.150
REMARK INTRA:                  -1.341
REMARK UNBOUND:                -1.844
REMARK  Name = 
REMARK  10 active torsions:
REMARK  status: ('A' for Active; 'I' for Inactive)
REMARK    1  A    between atoms: C_1  and  S_2
REMARK    2  A    between atoms: S_2  and  N_5
REMARK    3  A    between atoms: N_5  and  C_6
REMARK    4  A    between atoms: C_11  and  C_12
REMARK    5  A    between atoms: C_12  and  C_14
REMARK    6  A    between atoms: C_14  and  O_15
REMARK    7  A    between atoms: O_15  and  C_16
REMARK    8  A    between atoms: C_19  and  C_20
REMARK    9  A    between atoms: C_20  and  N_21
REMARK   10  A    between atoms: C_22  and  C_24
REMARK                            x       y       z     vdW  Elec       q    Type
REMARK                         _______ _______ _______ _____ _____    ______ ____
ROOT
ATOM      1  C   UNL     1      48.604   2.877  16.673  0.00  0.00    +0.000 A 
ATOM      2  C   UNL     1      49.112   3.821  17.549  0.00  0.00    +0.000 A 
ATOM      3  C   UNL     1      50.414   3.658  18.011  0.00  0.00    +0.000 A 
ATOM      4  C   UNL     1      51.161   2.551  17.603  0.00  0.00    +0.000 A 
ATOM      5  C   UNL     1      50.540   1.644  16.747  0.00  0.00    +0.000 A 
ATOM      6  N   UNL     1      49.280   1.777  16.271  0.00  0.00    +0.000 NA
ENDROOT
BRANCH   1   7
ATOM      7  O   UNL     1      47.326   3.099  16.207  0.00  0.00    +0.000 OA
BRANCH   7   8
ATOM      8  C   UNL     1      47.168   4.428  15.714  0.00  0.00    +0.000 C 
BRANCH   8   9
ATOM      9  C   UNL     1      46.869   4.397  14.225  0.00  0.00    +0.000 C 
ATOM     10  O   UNL     1      46.661   3.342  13.619  0.00  0.00    +0.000 OA
BRANCH   9  16
ATOM     11  C   UNL     1      45.740   6.202  12.760  0.00  0.00    +0.000 A 
ATOM     12  C   UNL     1      45.882   7.392  12.026  0.00  0.00    +0.000 A 
ATOM     13  C   UNL     1      47.084   8.099  12.031  0.00  0.00    +0.000 A 
ATOM     14  C   UNL     1      48.164   7.618  12.759  0.00  0.00    +0.000 A 
ATOM     15  C   UNL     1      48.050   6.409  13.447  0.00  0.00    +0.000 A 
ATOM     16  C   UNL     1      46.847   5.674  13.446  0.00  0.00    +0.000 A 
BRANCH  11  17
ATOM     17  N   UNL     1      44.430   5.601  12.774  0.00  0.00    +0.000 N 
ATOM     18  H   UNL     1      43.717   6.320  12.927  0.00  0.00    +0.000 HD
BRANCH  17  20
ATOM     19  C   UNL     1      43.410   3.229  12.130  0.00  0.00    +0.000 C 
ATOM     20  S   UNL     1      43.998   4.732  11.371  0.00  0.00    +0.000 S 
ATOM     21  O   UNL     1      45.189   4.445  10.610  0.00  0.00    +0.000 OA
ATOM     22  O   UNL     1      42.862   5.411  10.784  0.00  0.00    +0.000 OA
ENDBRANCH  17  20
ENDBRANCH  11  17
ENDBRANCH   9  16
ENDBRANCH   8   9
ENDBRANCH   7   8
ENDBRANCH   1   7
BRANCH   4  23
ATOM     23  C   UNL     1      52.569   2.332  18.072  0.00  0.00    +0.000 C 
BRANCH  23  24
ATOM     24  N   UNL     1      53.101   1.079  17.593  0.00  0.00    +0.000 N 
ATOM     25  C   UNL     1      54.074   0.410  18.296  0.00  0.00    +0.000 C 
ATOM     26  O   UNL     1      54.474   0.815  19.385  0.00  0.00    +0.000 OA
ATOM     27  H   UNL     1      52.985   0.874  16.604  0.00  0.00    +0.000 HD
BRANCH  25  28
ATOM     28  C   UNL     1      54.565  -0.845  17.715  0.00  0.00    +0.000 A 
ATOM     29  C   UNL     1      55.209  -0.823  16.485  0.00  0.00    +0.000 A 
ATOM     30  S   UNL     1      55.744  -2.356  15.962  0.00  0.00    +0.000 S 
ATOM     31  C   UNL     1      55.093  -3.112  17.340  0.00  0.00    +0.000 A 
ATOM     32  N   UNL     1      55.178  -4.459  17.503  0.00  0.00    +0.000 NA
ATOM     33  C   UNL     1      54.616  -4.905  18.577  0.00  0.00    +0.000 A 
ATOM     34  N   UNL     1      53.988  -4.122  19.511  0.00  0.00    +0.000 N 
ATOM     35  C   UNL     1      53.911  -2.752  19.408  0.00  0.00    +0.000 A 
ATOM     36  O   UNL     1      53.400  -2.070  20.290  0.00  0.00    +0.000 OA
ATOM     37  C   UNL     1      54.503  -2.204  18.201  0.00  0.00    +0.000 A 
ATOM     38  H   UNL     1      53.581  -4.531  20.338  0.00  0.00    +0.000 HD
ENDBRANCH  25  28
ENDBRANCH  23  24
ENDBRANCH   4  23
TORSDOF 9
ENDMDL
MODEL 6
REMARK VINA RESULT:    -6.259      6.042      7.314
REMARK INTER + INTRA:         -11.396
REMARK INTER:                 -10.514
REMARK INTRA:                  -0.882
REMARK UNBOUND:                -1.844
REMARK  Name = 
REMARK  10 active torsions:
REMARK  status: ('A' for Active; 'I' for Inactive)
REMARK    1  A    between atoms: C_1  and  S_2
REMARK    2  A    between atoms: S_2  and  N_5
REMARK    3  A    between atoms: N_5  and  C_6
REMARK    4  A    between atoms: C_11  and  C_12
REMARK    5  A    between atoms: C_12  and  C_14
REMARK    6  A    between atoms: C_14  and  O_15
REMARK    7  A    between atoms: O_15  and  C_16
REMARK    8  A    between atoms: C_19  and  C_20
REMARK    9  A    between atoms: C_20  and  N_21
REMARK   10  A    between atoms: C_22  and  C_24
REMARK                            x       y       z     vdW  Elec       q    Type
REMARK                         _______ _______ _______ _____ _____    ______ ____
ROOT
ATOM      1  C   UNL     1      51.150   2.077  17.413  0.00  0.00    +0.000 A 
ATOM      2  C   UNL     1      49.812   1.953  17.077  0.00  0.00    +0.000 A 
ATOM      3  C   UNL     1      49.043   3.110  16.999  0.00  0.00    +0.000 A 
ATOM      4  C   UNL     1      49.624   4.349  17.278  0.00  0.00    +0.000 A 
ATOM      5  C   UNL     1      50.969   4.355  17.641  0.00  0.00    +0.000 A 
ATOM      6  N   UNL     1      51.748   3.251  17.716  0.00  0.00    +0.000 NA
ENDROOT
BRANCH   1   7
ATOM      7  O   UNL     1      51.885   0.911  17.438  0.00  0.00    +0.000 OA
BRANCH   7   8
ATOM      8  C   UNL     1      53.282   1.170  17.566  0.00  0.00    +0.000 C 
BRANCH   8   9
ATOM      9  C   UNL     1      54.073  -0.093  17.278  0.00  0.00    +0.000 C 
ATOM     10  O   UNL     1      54.289  -0.485  16.126  0.00  0.00    +0.000 OA
BRANCH   9  16
ATOM     11  C   UNL     1      54.640  -2.321  18.457  0.00  0.00    +0.000 A 
ATOM     12  C   UNL     1      55.112  -2.963  19.616  0.00  0.00    +0.000 A 
ATOM     13  C   UNL     1      55.607  -2.227  20.692  0.00  0.00    +0.000 A 
ATOM     14  C   UNL     1      55.624  -0.840  20.629  0.00  0.00    +0.000 A 
ATOM     15  C   UNL     1      55.108  -0.193  19.506  0.00  0.00    +0.000 A 
ATOM     16  C   UNL     1      54.594  -0.918  18.412  0.00  0.00    +0.000 A 
BRANCH  11  17
ATOM     17  N   UNL     1      54.245  -3.171  17.361  0.00  0.00    +0.000 N 
ATOM     18  H   UNL     1      55.021  -3.275  16.702  0.00  0.00    +0.000 HD
BRANCH  17  20
ATOM     19  C   UNL     1      53.183  -5.309  16.186  0.00  0.00    +0.000 C 
ATOM     20  S   UNL     1      53.713  -4.734  17.790  0.00  0.00    +0.000 S 
ATOM     21  O   UNL     1      52.567  -4.620  18.656  0.00  0.00    +0.000 OA
ATOM     22  O   UNL     1      54.887  -5.491  18.171  0.00  0.00    +0.000 OA
ENDBRANCH  17  20
ENDBRANCH  11  17
ENDBRANCH   9  16
ENDBRANCH   8   9
ENDBRANCH   7   8
ENDBRANCH   1   7
BRANCH   4  23
ATOM     23  C   UNL     1      48.837   5.624  17.206  0.00  0.00    +0.000 C 
BRANCH  23  24
ATOM     24  N   UNL     1      47.943   5.635  16.074  0.00  0.00    +0.000 N 
ATOM     25  C   UNL     1      48.337   6.165  14.869  0.00  0.00    +0.000 C 
ATOM     26  O   UNL     1      49.480   6.582  14.692  0.00  0.00    +0.000 OA
ATOM     27  H   UNL     1      46.949   5.548  16.267  0.00  0.00    +0.000 HD
BRANCH  25  28
ATOM     28  C   UNL     1      47.349   6.148  13.784  0.00  0.00    +0.000 A 
ATOM     29  C   UNL     1      46.980   7.343  13.178  0.00  0.00    +0.000 A 
ATOM     30  S   UNL     1      45.846   7.151  11.919  0.00  0.00    +0.000 S 
ATOM     31  C   UNL     1      45.772   5.470  12.168  0.00  0.00    +0.000 A 
ATOM     32  N   UNL     1      44.943   4.690  11.425  0.00  0.00    +0.000 NA
ATOM     33  C   UNL     1      44.963   3.438  11.739  0.00  0.00    +0.000 A 
ATOM     34  N   UNL     1      45.748   2.892  12.722  0.00  0.00    +0.000 N 
ATOM     35  C   UNL     1      46.629   3.636  13.473  0.00  0.00    +0.000 A 
ATOM     36  O   UNL     1      47.366   3.112  14.301  0.00  0.00    +0.000 OA
ATOM     37  C   UNL     1      46.623   5.057  13.177  0.00  0.00    +0.000 A 
ATOM     38  H   UNL     1      45.728   1.901  12.908  0.00  0.00    +0.000 HD
ENDBRANCH  25  28
ENDBRANCH  23  24
ENDBRANCH   4  23
TORSDOF 9
ENDMDL
MODEL 7
REMARK VINA RESULT:    -6.025      5.520      8.590
REMARK INTER + INTRA:         -11.039
REMARK INTER:                  -9.430
REMARK INTRA:                  -1.608
REMARK UNBOUND:                -1.844
REMARK  Name = 
REMARK  10 active torsions:
REMARK  status: ('A' for Active; 'I' for Inactive)
REMARK    1  A    between atoms: C_1  and  S_2
REMARK    2  A    between atoms: S_2  and  N_5
REMARK    3  A    between atoms: N_5  and  C_6
REMARK    4  A    between atoms: C_11  and  C_12
REMARK    5  A    between atoms: C_12  and  C_14
REMARK    6  A    between atoms: C_14  and  O_15
REMARK    7  A    between atoms: O_15  and  C_16
REMARK    8  A    between atoms: C_19  and  C_20
REMARK    9  A    between atoms: C_20  and  N_21
REMARK   10  A    between atoms: C_22  and  C_24
REMARK                            x       y       z     vdW  Elec       q    Type
REMARK                         _______ _______ _______ _____ _____    ______ ____
ROOT
ATOM      1  C   UNL     1      48.409   8.316  11.815  0.00  0.00    +0.000 A 
ATOM      2  C   UNL     1      48.487   9.686  11.629  0.00  0.00    +0.000 A 
ATOM      3  C   UNL     1      49.729  10.242  11.336  0.00  0.00    +0.000 A 
ATOM      4  C   UNL     1      50.856   9.420  11.260  0.00  0.00    +0.000 A 
ATOM      5  C   UNL     1      50.670   8.060  11.499  0.00  0.00    +0.000 A 
ATOM      6  N   UNL     1      49.476   7.486  11.775  0.00  0.00    +0.000 NA
ENDROOT
BRANCH   1   7
ATOM      7  O   UNL     1      47.154   7.802  12.060  0.00  0.00    +0.000 OA
BRANCH   7   8
ATOM      8  C   UNL     1      47.024   6.470  11.567  0.00  0.00    +0.000 C 
BRANCH   8   9
ATOM      9  C   UNL     1      45.690   6.306  10.860  0.00  0.00    +0.000 C 
ATOM     10  O   UNL     1      44.716   7.018  11.123  0.00  0.00    +0.000 OA
BRANCH   9  16
ATOM     11  C   UNL     1      44.542   4.232   9.832  0.00  0.00    +0.000 A 
ATOM     12  C   UNL     1      44.539   3.260   8.817  0.00  0.00    +0.000 A 
ATOM     13  C   UNL     1      45.448   3.322   7.761  0.00  0.00    +0.000 A 
ATOM     14  C   UNL     1      46.381   4.349   7.715  0.00  0.00    +0.000 A 
ATOM     15  C   UNL     1      46.428   5.288   8.746  0.00  0.00    +0.000 A 
ATOM     16  C   UNL     1      45.524   5.237   9.827  0.00  0.00    +0.000 A 
BRANCH  11  17
ATOM     17  N   UNL     1      43.497   4.139  10.822  0.00  0.00    +0.000 N 
ATOM     18  H   UNL     1      42.650   3.747  10.401  0.00  0.00    +0.000 HD
BRANCH  17  20
ATOM     19  C   UNL     1      43.221   4.297  13.463  0.00  0.00    +0.000 C 
ATOM     20  S   UNL     1      43.867   3.211  12.204  0.00  0.00    +0.000 S 
ATOM     21  O   UNL     1      45.299   3.123  12.343  0.00  0.00    +0.000 OA
ATOM     22  O   UNL     1      43.030   2.030  12.159  0.00  0.00    +0.000 OA
ENDBRANCH  17  20
ENDBRANCH  11  17
ENDBRANCH   9  16
ENDBRANCH   8   9
ENDBRANCH   7   8
ENDBRANCH   1   7
BRANCH   4  23
ATOM     23  C   UNL     1      52.215   9.971  10.946  0.00  0.00    +0.000 C 
BRANCH  23  24
ATOM     24  N   UNL     1      52.791   9.339   9.784  0.00  0.00    +0.000 N 
ATOM     25  C   UNL     1      52.621   9.876   8.532  0.00  0.00    +0.000 C 
ATOM     26  O   UNL     1      52.036  10.943   8.362  0.00  0.00    +0.000 OA
ATOM     27  H   UNL     1      53.036   8.356   9.865  0.00  0.00    +0.000 HD
BRANCH  25  28
ATOM     28  C   UNL     1      53.229   9.148   7.411  0.00  0.00    +0.000 A 
ATOM     29  C   UNL     1      53.810   9.860   6.370  0.00  0.00    +0.000 A 
ATOM     30  S   UNL     1      54.496   8.870   5.161  0.00  0.00    +0.000 S 
ATOM     31  C   UNL     1      54.000   7.455   5.964  0.00  0.00    +0.000 A 
ATOM     32  N   UNL     1      54.248   6.228   5.432  0.00  0.00    +0.000 NA
ATOM     33  C   UNL     1      53.790   5.241   6.128  0.00  0.00    +0.000 A 
ATOM     34  N   UNL     1      53.117   5.370   7.316  0.00  0.00    +0.000 N 
ATOM     35  C   UNL     1      52.877   6.588   7.910  0.00  0.00    +0.000 A 
ATOM     36  O   UNL     1      52.329   6.671   9.005  0.00  0.00    +0.000 OA
ATOM     37  C   UNL     1      53.347   7.733   7.151  0.00  0.00    +0.000 A 
ATOM     38  H   UNL     1      52.798   4.557   7.819  0.00  0.00    +0.000 HD
ENDBRANCH  25  28
ENDBRANCH  23  24
ENDBRANCH   4  23
TORSDOF 9
ENDMDL
MODEL 8
REMARK VINA RESULT:    -6.020      5.651      7.864
REMARK INTER + INTRA:         -11.031
REMARK INTER:                  -9.737
REMARK INTRA:                  -1.295
REMARK UNBOUND:                -1.844
REMARK  Name = 
REMARK  10 active torsions:
REMARK  status: ('A' for Active; 'I' for Inactive)
REMARK    1  A    between atoms: C_1  and  S_2
REMARK    2  A    between atoms: S_2  and  N_5
REMARK    3  A    between atoms: N_5  and  C_6
REMARK    4  A    between atoms: C_11  and  C_12
REMARK    5  A    between atoms: C_12  and  C_14
REMARK    6  A    between atoms: C_14  and  O_15
REMARK    7  A    between atoms: O_15  and  C_16
REMARK    8  A    between atoms: C_19  and  C_20
REMARK    9  A    between atoms: C_20  and  N_21
REMARK   10  A    between atoms: C_22  and  C_24
REMARK                            x       y       z     vdW  Elec       q    Type
REMARK                         _______ _______ _______ _____ _____    ______ ____
ROOT
ATOM      1  C   UNL     1      49.189   8.815  11.728  0.00  0.00    +0.000 A 
ATOM      2  C   UNL     1      49.476  10.123  11.373  0.00  0.00    +0.000 A 
ATOM      3  C   UNL     1      50.771  10.426  10.963  0.00  0.00    +0.000 A 
ATOM      4  C   UNL     1      51.743   9.423  10.939  0.00  0.00    +0.000 A 
ATOM      5  C   UNL     1      51.355   8.149  11.349  0.00  0.00    +0.000 A 
ATOM      6  N   UNL     1      50.103   7.819  11.744  0.00  0.00    +0.000 NA
ENDROOT
BRANCH   1   7
ATOM      7  O   UNL     1      47.885   8.550  12.086  0.00  0.00    +0.000 OA
BRANCH   7   8
ATOM      8  C   UNL     1      47.457   7.274  11.614  0.00  0.00    +0.000 C 
BRANCH   8   9
ATOM      9  C   UNL     1      46.086   6.945  12.179  0.00  0.00    +0.000 C 
ATOM     10  O   UNL     1      45.454   7.744  12.876  0.00  0.00    +0.000 OA
BRANCH   9  16
ATOM     11  C   UNL     1      45.282   4.587  12.863  0.00  0.00    +0.000 A 
ATOM     12  C   UNL     1      44.741   3.354  12.458  0.00  0.00    +0.000 A 
ATOM     13  C   UNL     1      44.323   3.153  11.143  0.00  0.00    +0.000 A 
ATOM     14  C   UNL     1      44.452   4.176  10.214  0.00  0.00    +0.000 A 
ATOM     15  C   UNL     1      45.038   5.384  10.593  0.00  0.00    +0.000 A 
ATOM     16  C   UNL     1      45.477   5.604  11.914  0.00  0.00    +0.000 A 
BRANCH  11  17
ATOM     17  N   UNL     1      45.589   4.730  14.265  0.00  0.00    +0.000 N 
ATOM     18  H   UNL     1      44.957   4.148  14.822  0.00  0.00    +0.000 HD
BRANCH  17  20
ATOM     19  C   UNL     1      46.947   4.127  16.472  0.00  0.00    +0.000 C 
ATOM     20  S   UNL     1      47.187   4.342  14.717  0.00  0.00    +0.000 S 
ATOM     21  O   UNL     1      48.031   5.488  14.491  0.00  0.00    +0.000 OA
ATOM     22  O   UNL     1      47.487   3.047  14.144  0.00  0.00    +0.000 OA
ENDBRANCH  17  20
ENDBRANCH  11  17
ENDBRANCH   9  16
ENDBRANCH   8   9
ENDBRANCH   7   8
ENDBRANCH   1   7
BRANCH   4  23
ATOM     23  C   UNL     1      53.151   9.699  10.504  0.00  0.00    +0.000 C 
BRANCH  23  24
ATOM     24  N   UNL     1      53.534   8.876   9.382  0.00  0.00    +0.000 N 
ATOM     25  C   UNL     1      53.138   9.194   8.106  0.00  0.00    +0.000 C 
ATOM     26  O   UNL     1      52.508  10.221   7.864  0.00  0.00    +0.000 OA
ATOM     27  H   UNL     1      53.811   7.919   9.583  0.00  0.00    +0.000 HD
BRANCH  25  28
ATOM     28  C   UNL     1      53.561   8.283   7.035  0.00  0.00    +0.000 A 
ATOM     29  C   UNL     1      53.918   8.802   5.797  0.00  0.00    +0.000 A 
ATOM     30  S   UNL     1      54.411   7.619   4.673  0.00  0.00    +0.000 S 
ATOM     31  C   UNL     1      54.121   6.364   5.785  0.00  0.00    +0.000 A 
ATOM     32  N   UNL     1      54.315   5.064   5.437  0.00  0.00    +0.000 NA
ATOM     33  C   UNL     1      54.028   4.214   6.365  0.00  0.00    +0.000 A 
ATOM     34  N   UNL     1      53.575   4.546   7.616  0.00  0.00    +0.000 N 
ATOM     35  C   UNL     1      53.401   5.849   8.025  0.00  0.00    +0.000 A 
ATOM     36  O   UNL     1      53.057   6.121   9.171  0.00  0.00    +0.000 OA
ATOM     37  C   UNL     1      53.683   6.844   7.006  0.00  0.00    +0.000 A 
ATOM     38  H   UNL     1      53.383   3.833   8.302  0.00  0.00    +0.000 HD
ENDBRANCH  25  28
ENDBRANCH  23  24
ENDBRANCH   4  23
TORSDOF 9
ENDMDL
MODEL 9
REMARK VINA RESULT:    -5.887      3.179      8.769
REMARK INTER + INTRA:         -10.828
REMARK INTER:                  -8.830
REMARK INTRA:                  -1.998
REMARK UNBOUND:                -1.844
REMARK  Name = 
REMARK  10 active torsions:
REMARK  status: ('A' for Active; 'I' for Inactive)
REMARK    1  A    between atoms: C_1  and  S_2
REMARK    2  A    between atoms: S_2  and  N_5
REMARK    3  A    between atoms: N_5  and  C_6
REMARK    4  A    between atoms: C_11  and  C_12
REMARK    5  A    between atoms: C_12  and  C_14
REMARK    6  A    between atoms: C_14  and  O_15
REMARK    7  A    between atoms: O_15  and  C_16
REMARK    8  A    between atoms: C_19  and  C_20
REMARK    9  A    between atoms: C_20  and  N_21
REMARK   10  A    between atoms: C_22  and  C_24
REMARK                            x       y       z     vdW  Elec       q    Type
REMARK                         _______ _______ _______ _____ _____    ______ ____
ROOT
ATOM      1  C   UNL     1      48.588   3.503  17.393  0.00  0.00    +0.000 A 
ATOM      2  C   UNL     1      48.384   4.198  18.573  0.00  0.00    +0.000 A 
ATOM      3  C   UNL     1      49.498   4.600  19.303  0.00  0.00    +0.000 A 
ATOM      4  C   UNL     1      50.778   4.280  18.845  0.00  0.00    +0.000 A 
ATOM      5  C   UNL     1      50.868   3.548  17.664  0.00  0.00    +0.000 A 
ATOM      6  N   UNL     1      49.806   3.150  16.925  0.00  0.00    +0.000 NA
ENDROOT
BRANCH   1   7
ATOM      7  O   UNL     1      47.459   3.161  16.680  0.00  0.00    +0.000 OA
BRANCH   7   8
ATOM      8  C   UNL     1      46.899   4.287  16.006  0.00  0.00    +0.000 C 
BRANCH   8   9
ATOM      9  C   UNL     1      47.105   4.149  14.507  0.00  0.00    +0.000 C 
ATOM     10  O   UNL     1      47.276   3.053  13.966  0.00  0.00    +0.000 OA
BRANCH   9  16
ATOM     11  C   UNL     1      46.460   5.534  12.423  0.00  0.00    +0.000 A 
ATOM     12  C   UNL     1      46.619   6.727  11.697  0.00  0.00    +0.000 A 
ATOM     13  C   UNL     1      47.371   7.784  12.209  0.00  0.00    +0.000 A 
ATOM     14  C   UNL     1      47.985   7.656  13.448  0.00  0.00    +0.000 A 
ATOM     15  C   UNL     1      47.879   6.457  14.152  0.00  0.00    +0.000 A 
ATOM     16  C   UNL     1      47.132   5.373  13.647  0.00  0.00    +0.000 A 
BRANCH  11  17
ATOM     17  N   UNL     1      45.581   4.542  11.856  0.00  0.00    +0.000 N 
ATOM     18  H   UNL     1      45.794   3.620  12.248  0.00  0.00    +0.000 HD
BRANCH  17  20
ATOM     19  C   UNL     1      43.353   3.138  12.234  0.00  0.00    +0.000 C 
ATOM     20  S   UNL     1      43.912   4.823  12.068  0.00  0.00    +0.000 S 
ATOM     21  O   UNL     1      43.372   5.385  10.855  0.00  0.00    +0.000 OA
ATOM     22  O   UNL     1      43.751   5.477  13.350  0.00  0.00    +0.000 OA
ENDBRANCH  17  20
ENDBRANCH  11  17
ENDBRANCH   9  16
ENDBRANCH   8   9
ENDBRANCH   7   8
ENDBRANCH   1   7
BRANCH   4  23
ATOM     23  C   UNL     1      52.010   4.692  19.595  0.00  0.00    +0.000 C 
BRANCH  23  24
ATOM     24  N   UNL     1      52.853   5.555  18.802  0.00  0.00    +0.000 N 
ATOM     25  C   UNL     1      52.828   6.917  18.973  0.00  0.00    +0.000 C 
ATOM     26  O   UNL     1      52.144   7.445  19.847  0.00  0.00    +0.000 OA
ATOM     27  H   UNL     1      53.209   5.178  17.927  0.00  0.00    +0.000 HD
BRANCH  25  28
ATOM     28  C   UNL     1      53.707   7.709  18.104  0.00  0.00    +0.000 A 
ATOM     29  C   UNL     1      54.728   8.462  18.670  0.00  0.00    +0.000 A 
ATOM     30  S   UNL     1      55.676   9.301  17.527  0.00  0.00    +0.000 S 
ATOM     31  C   UNL     1      54.728   8.725  16.238  0.00  0.00    +0.000 A 
ATOM     32  N   UNL     1      54.988   9.102  14.957  0.00  0.00    +0.000 NA
ATOM     33  C   UNL     1      54.173   8.617  14.081  0.00  0.00    +0.000 A 
ATOM     34  N   UNL     1      53.127   7.778  14.368  0.00  0.00    +0.000 N 
ATOM     35  C   UNL     1      52.849   7.340  15.643  0.00  0.00    +0.000 A 
ATOM     36  O   UNL     1      51.947   6.538  15.864  0.00  0.00    +0.000 OA
ATOM     37  C   UNL     1      53.721   7.882  16.670  0.00  0.00    +0.000 A 
ATOM     38  H   UNL     1      52.535   7.420  13.635  0.00  0.00    +0.000 HD
ENDBRANCH  25  28
ENDBRANCH  23  24
ENDBRANCH   4  23
TORSDOF 9
ENDMDL
