MODEL 1
REMARK VINA RESULT:    -7.504      0.000      0.000
REMARK INTER + INTRA:         -10.634
REMARK INTER:                  -9.698
REMARK INTRA:                  -0.936
REMARK UNBOUND:                -0.936
REMARK  Name = 
REMARK  7 active torsions:
REMARK  status: ('A' for Active; 'I' for Inactive)
REMARK    1  A    between atoms: C_1  and  C_2
REMARK    2  A    between atoms: N_9  and  C_10
REMARK    3  A    between atoms: C_10  and  C_11
REMARK    4  A    between atoms: C_14  and  C_15
REMARK    5  A    between atoms: C_15  and  N_16
REMARK    6  A    between atoms: C_17  and  C_19
REMARK    7  A    between atoms: N_25  and  C_26
REMARK                            x       y       z     vdW  Elec       q    Type
REMARK                         _______ _______ _______ _____ _____    ______ ____
ROOT
ATOM      1  C   UNL     1      50.434   9.046  11.415  0.00  0.00    +0.000 A 
ATOM      2  C   UNL     1      49.596  10.138  11.676  0.00  0.00    +0.000 A 
ATOM      3  C   UNL     1      48.275   9.942  12.095  0.00  0.00    +0.000 A 
ATOM      4  C   UNL     1      47.768   8.650  12.279  0.00  0.00    +0.000 A 
ATOM      5  C   UNL     1      48.595   7.558  11.988  0.00  0.00    +0.000 A 
ATOM      6  C   UNL     1      49.916   7.753  11.569  0.00  0.00    +0.000 A 
ENDROOT
BRANCH   1   7
ATOM      7  C   UNL     1      51.859   9.258  10.974  0.00  0.00    +0.000 C 
BRANCH   7  16
ATOM      8  C   UNL     1      54.901   6.119  10.105  0.00  0.00    +0.000 C 
ATOM      9  C   UNL     1      54.022   5.949   8.919  0.00  0.00    +0.000 A 
ATOM     10  C   UNL     1      54.026   4.910   8.001  0.00  0.00    +0.000 A 
ATOM     11  C   UNL     1      53.126   5.233   6.966  0.00  0.00    +0.000 A 
ATOM     12  C   UNL     1      52.623   6.479   7.250  0.00  0.00    +0.000 A 
ATOM     13  N   UNL     1      53.124   6.917   8.464  0.00  0.00    +0.000 N 
ATOM     14  C   UNL     1      52.802   8.172   9.028  0.00  0.00    +0.000 C 
ATOM     15  O   UNL     1      52.738   9.162   8.313  0.00  0.00    +0.000 OA
ATOM     16  N   UNL     1      52.437   8.083  10.354  0.00  0.00    +0.000 N 
ATOM     17  H   UNL     1      52.156   7.174  10.704  0.00  0.00    +0.000 HD
ENDBRANCH   7  16
ENDBRANCH   1   7
BRANCH   4  18
ATOM     18  C   UNL     1      46.357   8.427  12.759  0.00  0.00    +0.000 C 
BRANCH  18  19
ATOM     19  N   UNL     1      45.933   7.060  12.572  0.00  0.00    +0.000 N 
ATOM     20  C   UNL     1      44.900   6.746  11.733  0.00  0.00    +0.000 C 
ATOM     21  O   UNL     1      44.275   7.625  11.132  0.00  0.00    +0.000 OA
ATOM     22  H   UNL     1      46.431   6.335  13.075  0.00  0.00    +0.000 HD
BRANCH  20  23
ATOM     23  C   UNL     1      44.576   5.325  11.538  0.00  0.00    +0.000 A 
ATOM     24  C   UNL     1      43.868   4.654  12.528  0.00  0.00    +0.000 A 
ATOM     25  S   UNL     1      43.509   3.036  12.150  0.00  0.00    +0.000 S 
ATOM     26  C   UNL     1      44.198   3.195  10.604  0.00  0.00    +0.000 A 
ATOM     27  N   UNL     1      44.093   2.189   9.702  0.00  0.00    +0.000 NA
ATOM     28  C   UNL     1      44.697   2.411   8.583  0.00  0.00    +0.000 A 
ATOM     29  N   UNL     1      45.449   3.528   8.287  0.00  0.00    +0.000 N 
ATOM     30  C   UNL     1      46.201   3.571   7.049  0.00  0.00    +0.000 C 
ATOM     31  C   UNL     1      45.550   4.596   9.179  0.00  0.00    +0.000 A 
ATOM     32  O   UNL     1      46.216   5.600   8.944  0.00  0.00    +0.000 OA
ATOM     33  C   UNL     1      44.820   4.419  10.427  0.00  0.00    +0.000 A 
ENDBRANCH  20  23
ENDBRANCH  18  19
ENDBRANCH   4  18
TORSDOF 5
ENDMDL
MODEL 2
REMARK VINA RESULT:    -7.480      4.922      8.108
REMARK INTER + INTRA:         -10.603
REMARK INTER:                  -9.637
REMARK INTRA:                  -0.966
REMARK UNBOUND:                -0.936
REMARK  Name = 
REMARK  7 active torsions:
REMARK  status: ('A' for Active; 'I' for Inactive)
REMARK    1  A    between atoms: C_1  and  C_2
REMARK    2  A    between atoms: N_9  and  C_10
REMARK    3  A    between atoms: C_10  and  C_11
REMARK    4  A    between atoms: C_14  and  C_15
REMARK    5  A    between atoms: C_15  and  N_16
REMARK    6  A    between atoms: C_17  and  C_19
REMARK    7  A    between atoms: N_25  and  C_26
REMARK                            x       y       z     vdW  Elec       q    Type
REMARK                         _______ _______ _______ _____ _____    ______ ____
ROOT
ATOM      1  C   UNL     1      45.330   5.845  11.470  0.00  0.00    +0.000 A 
ATOM      2  C   UNL     1      46.486   5.457  12.162  0.00  0.00    +0.000 A 
ATOM      3  C   UNL     1      47.199   6.380  12.936  0.00  0.00    +0.000 A 
ATOM      4  C   UNL     1      46.764   7.706  13.049  0.00  0.00    +0.000 A 
ATOM      5  C   UNL     1      45.627   8.102  12.333  0.00  0.00    +0.000 A 
ATOM      6  C   UNL     1      44.913   7.181  11.559  0.00  0.00    +0.000 A 
ENDROOT
BRANCH   1   7
ATOM      7  C   UNL     1      44.557   4.850  10.645  0.00  0.00    +0.000 C 
BRANCH   7  16
ATOM      8  C   UNL     1      46.704   4.207   6.793  0.00  0.00    +0.000 C 
ATOM      9  C   UNL     1      46.686   2.811   7.303  0.00  0.00    +0.000 A 
ATOM     10  C   UNL     1      47.400   1.723   6.826  0.00  0.00    +0.000 A 
ATOM     11  C   UNL     1      46.964   0.574   7.516  0.00  0.00    +0.000 A 
ATOM     12  C   UNL     1      45.966   0.976   8.369  0.00  0.00    +0.000 A 
ATOM     13  N   UNL     1      45.809   2.349   8.288  0.00  0.00    +0.000 N 
ATOM     14  C   UNL     1      44.849   3.065   9.037  0.00  0.00    +0.000 C 
ATOM     15  O   UNL     1      43.725   2.607   9.183  0.00  0.00    +0.000 OA
ATOM     16  N   UNL     1      45.379   4.173   9.662  0.00  0.00    +0.000 N 
ATOM     17  H   UNL     1      46.385   4.212   9.777  0.00  0.00    +0.000 HD
ENDBRANCH   7  16
ENDBRANCH   1   7
BRANCH   4  18
ATOM     18  C   UNL     1      47.506   8.700  13.904  0.00  0.00    +0.000 C 
BRANCH  18  19
ATOM     19  N   UNL     1      47.913   8.129  15.166  0.00  0.00    +0.000 N 
ATOM     20  C   UNL     1      49.229   8.081  15.533  0.00  0.00    +0.000 C 
ATOM     21  O   UNL     1      50.117   8.496  14.782  0.00  0.00    +0.000 OA
ATOM     22  H   UNL     1      47.191   7.771  15.781  0.00  0.00    +0.000 HD
BRANCH  20  23
ATOM     23  C   UNL     1      49.557   7.553  16.865  0.00  0.00    +0.000 A 
ATOM     24  C   UNL     1      50.265   8.355  17.752  0.00  0.00    +0.000 A 
ATOM     25  S   UNL     1      50.526   7.645  19.275  0.00  0.00    +0.000 S 
ATOM     26  C   UNL     1      49.615   6.276  18.844  0.00  0.00    +0.000 A 
ATOM     27  N   UNL     1      49.329   5.328  19.769  0.00  0.00    +0.000 NA
ATOM     28  C   UNL     1      48.673   4.315  19.309  0.00  0.00    +0.000 A 
ATOM     29  N   UNL     1      48.313   4.126  17.991  0.00  0.00    +0.000 N 
ATOM     30  C   UNL     1      47.717   2.867  17.592  0.00  0.00    +0.000 C 
ATOM     31  C   UNL     1      48.563   5.097  17.021  0.00  0.00    +0.000 A 
ATOM     32  O   UNL     1      48.258   4.953  15.840  0.00  0.00    +0.000 OA
ATOM     33  C   UNL     1      49.235   6.291  17.514  0.00  0.00    +0.000 A 
ENDBRANCH  20  23
ENDBRANCH  18  19
ENDBRANCH   4  18
TORSDOF 5
ENDMDL
MODEL 3
REMARK VINA RESULT:    -6.452      5.056      8.596
REMARK INTER + INTRA:          -9.274
REMARK INTER:                  -8.072
REMARK INTRA:                  -1.202
REMARK UNBOUND:                -0.936
REMARK  Name = 
REMARK  7 active torsions:
REMARK  status: ('A' for Active; 'I' for Inactive)
REMARK    1  A    between atoms: C_1  and  C_2
REMARK    2  A    between atoms: N_9  and  C_10
REMARK    3  A    between atoms: C_10  and  C_11
REMARK    4  A    between atoms: C_14  and  C_15
REMARK    5  A    between atoms: C_15  and  N_16
REMARK    6  A    between atoms: C_17  and  C_19
REMARK    7  A    between atoms: N_25  and  C_26
REMARK                            x       y       z     vdW  Elec       q    Type
REMARK                         _______ _______ _______ _____ _____    ______ ____
ROOT
ATOM      1  C   UNL     1      46.914   8.038  12.156  0.00  0.00    +0.000 A 
ATOM      2  C   UNL     1      47.165   9.204  12.892  0.00  0.00    +0.000 A 
ATOM      3  C   UNL     1      48.384   9.381  13.558  0.00  0.00    +0.000 A 
ATOM      4  C   UNL     1      49.385   8.404  13.488  0.00  0.00    +0.000 A 
ATOM      5  C   UNL     1      49.123   7.225  12.779  0.00  0.00    +0.000 A 
ATOM      6  C   UNL     1      47.905   7.047  12.113  0.00  0.00    +0.000 A 
ENDROOT
BRANCH   1   7
ATOM      7  C   UNL     1      45.606   7.852  11.432  0.00  0.00    +0.000 C 
BRANCH   7  16
ATOM      8  C   UNL     1      45.152   4.301   8.779  0.00  0.00    +0.000 C 
ATOM      9  C   UNL     1      44.469   3.791   9.997  0.00  0.00    +0.000 A 
ATOM     10  C   UNL     1      44.086   2.487  10.273  0.00  0.00    +0.000 A 
ATOM     11  C   UNL     1      43.344   2.491  11.472  0.00  0.00    +0.000 A 
ATOM     12  C   UNL     1      43.253   3.799  11.880  0.00  0.00    +0.000 A 
ATOM     13  N   UNL     1      43.972   4.608  11.016  0.00  0.00    +0.000 N 
ATOM     14  C   UNL     1      44.062   6.010  11.161  0.00  0.00    +0.000 C 
ATOM     15  O   UNL     1      43.073   6.654  11.479  0.00  0.00    +0.000 OA
ATOM     16  N   UNL     1      45.356   6.473  11.065  0.00  0.00    +0.000 N 
ATOM     17  H   UNL     1      46.106   5.804  11.195  0.00  0.00    +0.000 HD
ENDBRANCH   7  16
ENDBRANCH   1   7
BRANCH   4  18
ATOM     18  C   UNL     1      50.712   8.597  14.175  0.00  0.00    +0.000 C 
BRANCH  18  19
ATOM     19  N   UNL     1      50.815   7.811  15.381  0.00  0.00    +0.000 N 
ATOM     20  C   UNL     1      50.468   8.328  16.598  0.00  0.00    +0.000 C 
ATOM     21  O   UNL     1      50.086   9.496  16.711  0.00  0.00    +0.000 OA
ATOM     22  H   UNL     1      51.145   6.855  15.299  0.00  0.00    +0.000 HD
BRANCH  20  23
ATOM     23  C   UNL     1      50.530   7.440  17.769  0.00  0.00    +0.000 A 
ATOM     24  C   UNL     1      51.298   7.822  18.863  0.00  0.00    +0.000 A 
ATOM     25  S   UNL     1      51.236   6.735  20.169  0.00  0.00    +0.000 S 
ATOM     26  C   UNL     1      50.100   5.761  19.364  0.00  0.00    +0.000 A 
ATOM     27  N   UNL     1      49.517   4.718  20.005  0.00  0.00    +0.000 NA
ATOM     28  C   UNL     1      48.710   4.026  19.274  0.00  0.00    +0.000 A 
ATOM     29  N   UNL     1      48.459   4.240  17.934  0.00  0.00    +0.000 N 
ATOM     30  C   UNL     1      47.649   3.288  17.202  0.00  0.00    +0.000 C 
ATOM     31  C   UNL     1      49.015   5.323  17.254  0.00  0.00    +0.000 A 
ATOM     32  O   UNL     1      48.813   5.536  16.061  0.00  0.00    +0.000 OA
ATOM     33  C   UNL     1      49.875   6.175  18.063  0.00  0.00    +0.000 A 
ENDBRANCH  20  23
ENDBRANCH  18  19
ENDBRANCH   4  18
TORSDOF 5
ENDMDL
MODEL 4
REMARK VINA RESULT:    -6.279      6.422      9.579
REMARK INTER + INTRA:          -9.050
REMARK INTER:                  -8.021
REMARK INTRA:                  -1.030
REMARK UNBOUND:                -0.936
REMARK  Name = 
REMARK  7 active torsions:
REMARK  status: ('A' for Active; 'I' for Inactive)
REMARK    1  A    between atoms: C_1  and  C_2
REMARK    2  A    between atoms: N_9  and  C_10
REMARK    3  A    between atoms: C_10  and  C_11
REMARK    4  A    between atoms: C_14  and  C_15
REMARK    5  A    between atoms: C_15  and  N_16
REMARK    6  A    between atoms: C_17  and  C_19
REMARK    7  A    between atoms: N_25  and  C_26
REMARK                            x       y       z     vdW  Elec       q    Type
REMARK                         _______ _______ _______ _____ _____    ______ ____
ROOT
ATOM      1  C   UNL     1      46.733   4.721  14.263  0.00  0.00    +0.000 A 
ATOM      2  C   UNL     1      47.223   5.848  13.590  0.00  0.00    +0.000 A 
ATOM      3  C   UNL     1      48.168   6.687  14.193  0.00  0.00    +0.000 A 
ATOM      4  C   UNL     1      48.656   6.408  15.475  0.00  0.00    +0.000 A 
ATOM      5  C   UNL     1      48.144   5.300  16.161  0.00  0.00    +0.000 A 
ATOM      6  C   UNL     1      47.199   4.460  15.559  0.00  0.00    +0.000 A 
ENDROOT
BRANCH   1   7
ATOM      7  C   UNL     1      45.724   3.813  13.610  0.00  0.00    +0.000 C 
BRANCH   7  16
ATOM      8  C   UNL     1      45.754   5.621   9.537  0.00  0.00    +0.000 C 
ATOM      9  C   UNL     1      45.431   4.214   9.183  0.00  0.00    +0.000 A 
ATOM     10  C   UNL     1      45.441   3.632   7.925  0.00  0.00    +0.000 A 
ATOM     11  C   UNL     1      44.929   2.324   8.041  0.00  0.00    +0.000 A 
ATOM     12  C   UNL     1      44.577   2.150   9.357  0.00  0.00    +0.000 A 
ATOM     13  N   UNL     1      44.918   3.278  10.083  0.00  0.00    +0.000 N 
ATOM     14  C   UNL     1      44.673   3.412  11.468  0.00  0.00    +0.000 C 
ATOM     15  O   UNL     1      43.619   3.012  11.942  0.00  0.00    +0.000 OA
ATOM     16  N   UNL     1      45.774   3.862  12.163  0.00  0.00    +0.000 N 
ATOM     17  H   UNL     1      46.680   3.777  11.716  0.00  0.00    +0.000 HD
ENDBRANCH   7  16
ENDBRANCH   1   7
BRANCH   4  18
ATOM     18  C   UNL     1      49.695   7.287  16.121  0.00  0.00    +0.000 C 
BRANCH  18  19
ATOM     19  N   UNL     1      50.902   6.558  16.430  0.00  0.00    +0.000 N 
ATOM     20  C   UNL     1      51.592   6.784  17.588  0.00  0.00    +0.000 C 
ATOM     21  O   UNL     1      51.223   7.644  18.394  0.00  0.00    +0.000 OA
ATOM     22  H   UNL     1      51.221   5.862  15.765  0.00  0.00    +0.000 HD
BRANCH  20  23
ATOM     23  C   UNL     1      52.771   5.949  17.865  0.00  0.00    +0.000 A 
ATOM     24  C   UNL     1      53.977   6.568  18.170  0.00  0.00    +0.000 A 
ATOM     25  S   UNL     1      55.242   5.488  18.526  0.00  0.00    +0.000 S 
ATOM     26  C   UNL     1      54.202   4.151  18.386  0.00  0.00    +0.000 A 
ATOM     27  N   UNL     1      54.636   2.910  18.711  0.00  0.00    +0.000 NA
ATOM     28  C   UNL     1      53.770   1.972  18.517  0.00  0.00    +0.000 A 
ATOM     29  N   UNL     1      52.514   2.144  17.975  0.00  0.00    +0.000 N 
ATOM     30  C   UNL     1      51.708   0.979  17.669  0.00  0.00    +0.000 C 
ATOM     31  C   UNL     1      52.022   3.411  17.661  0.00  0.00    +0.000 A 
ATOM     32  O   UNL     1      50.910   3.593  17.173  0.00  0.00    +0.000 OA
ATOM     33  C   UNL     1      52.942   4.507  17.936  0.00  0.00    +0.000 A 
ENDBRANCH  20  23
ENDBRANCH  18  19
ENDBRANCH   4  18
TORSDOF 5
ENDMDL
MODEL 5
REMARK VINA RESULT:    -6.208      3.113      8.699
REMARK INTER + INTRA:          -8.959
REMARK INTER:                  -7.975
REMARK INTRA:                  -0.985
REMARK UNBOUND:                -0.936
REMARK  Name = 
REMARK  7 active torsions:
REMARK  status: ('A' for Active; 'I' for Inactive)
REMARK    1  A    between atoms: C_1  and  C_2
REMARK    2  A    between atoms: N_9  and  C_10
REMARK    3  A    between atoms: C_10  and  C_11
REMARK    4  A    between atoms: C_14  and  C_15
REMARK    5  A    between atoms: C_15  and  N_16
REMARK    6  A    between atoms: C_17  and  C_19
REMARK    7  A    between atoms: N_25  and  C_26
REMARK                            x       y       z     vdW  Elec       q    Type
REMARK                         _______ _______ _______ _____ _____    ______ ____
ROOT
ATOM      1  C   UNL     1      48.306   6.685  13.764  0.00  0.00    +0.000 A 
ATOM      2  C   UNL     1      49.330   7.293  14.502  0.00  0.00    +0.000 A 
ATOM      3  C   UNL     1      50.274   8.114  13.873  0.00  0.00    +0.000 A 
ATOM      4  C   UNL     1      50.203   8.359  12.496  0.00  0.00    +0.000 A 
ATOM      5  C   UNL     1      49.198   7.727  11.753  0.00  0.00    +0.000 A 
ATOM      6  C   UNL     1      48.255   6.906  12.380  0.00  0.00    +0.000 A 
ENDROOT
BRANCH   1   7
ATOM      7  C   UNL     1      47.285   5.809  14.443  0.00  0.00    +0.000 C 
BRANCH   7  16
ATOM      8  C   UNL     1      43.052   5.128  13.227  0.00  0.00    +0.000 C 
ATOM      9  C   UNL     1      43.745   4.395  12.135  0.00  0.00    +0.000 A 
ATOM     10  C   UNL     1      43.200   3.916  10.955  0.00  0.00    +0.000 A 
ATOM     11  C   UNL     1      44.186   3.162  10.288  0.00  0.00    +0.000 A 
ATOM     12  C   UNL     1      45.299   3.161  11.093  0.00  0.00    +0.000 A 
ATOM     13  N   UNL     1      45.066   3.948  12.209  0.00  0.00    +0.000 N 
ATOM     14  C   UNL     1      46.018   4.138  13.236  0.00  0.00    +0.000 C 
ATOM     15  O   UNL     1      46.692   3.194  13.623  0.00  0.00    +0.000 OA
ATOM     16  N   UNL     1      46.175   5.463  13.578  0.00  0.00    +0.000 N 
ATOM     17  H   UNL     1      45.853   6.161  12.918  0.00  0.00    +0.000 HD
ENDBRANCH   7  16
ENDBRANCH   1   7
BRANCH   4  18
ATOM     18  C   UNL     1      51.194   9.266  11.814  0.00  0.00    +0.000 C 
BRANCH  18  19
ATOM     19  N   UNL     1      51.709   8.685  10.597  0.00  0.00    +0.000 N 
ATOM     20  C   UNL     1      52.835   7.911  10.601  0.00  0.00    +0.000 C 
ATOM     21  O   UNL     1      53.469   7.709  11.641  0.00  0.00    +0.000 OA
ATOM     22  H   UNL     1      51.204   8.860   9.736  0.00  0.00    +0.000 HD
BRANCH  20  23
ATOM     23  C   UNL     1      53.254   7.293   9.334  0.00  0.00    +0.000 A 
ATOM     24  C   UNL     1      53.552   5.936   9.312  0.00  0.00    +0.000 A 
ATOM     25  S   UNL     1      53.966   5.339   7.775  0.00  0.00    +0.000 S 
ATOM     26  C   UNL     1      53.665   6.850   7.056  0.00  0.00    +0.000 A 
ATOM     27  N   UNL     1      53.699   6.985   5.708  0.00  0.00    +0.000 NA
ATOM     28  C   UNL     1      53.503   8.189   5.287  0.00  0.00    +0.000 A 
ATOM     29  N   UNL     1      53.323   9.297   6.088  0.00  0.00    +0.000 N 
ATOM     30  C   UNL     1      53.269  10.612   5.479  0.00  0.00    +0.000 C 
ATOM     31  C   UNL     1      53.248   9.189   7.476  0.00  0.00    +0.000 A 
ATOM     32  O   UNL     1      53.094  10.159   8.213  0.00  0.00    +0.000 OA
ATOM     33  C   UNL     1      53.391   7.834   7.990  0.00  0.00    +0.000 A 
ENDBRANCH  20  23
ENDBRANCH  18  19
ENDBRANCH   4  18
TORSDOF 5
ENDMDL
MODEL 6
REMARK VINA RESULT:    -6.127      1.615      2.187
REMARK INTER + INTRA:          -8.854
REMARK INTER:                  -8.127
REMARK INTRA:                  -0.727
REMARK UNBOUND:                -0.936
REMARK  Name = 
REMARK  7 active torsions:
REMARK  status: ('A' for Active; 'I' for Inactive)
REMARK    1  A    between atoms: C_1  and  C_2
REMARK    2  A    between atoms: N_9  and  C_10
REMARK    3  A    between atoms: C_10  and  C_11
REMARK    4  A    between atoms: C_14  and  C_15
REMARK    5  A    between atoms: C_15  and  N_16
REMARK    6  A    between atoms: C_17  and  C_19
REMARK    7  A    between atoms: N_25  and  C_26
REMARK                            x       y       z     vdW  Elec       q    Type
REMARK                         _______ _______ _______ _____ _____    ______ ____
ROOT
ATOM      1  C   UNL     1      51.709   8.522  11.770  0.00  0.00    +0.000 A 
ATOM      2  C   UNL     1      50.849   7.630  11.116  0.00  0.00    +0.000 A 
ATOM      3  C   UNL     1      49.467   7.677  11.336  0.00  0.00    +0.000 A 
ATOM      4  C   UNL     1      48.914   8.629  12.202  0.00  0.00    +0.000 A 
ATOM      5  C   UNL     1      49.776   9.499  12.880  0.00  0.00    +0.000 A 
ATOM      6  C   UNL     1      51.157   9.453  12.661  0.00  0.00    +0.000 A 
ENDROOT
BRANCH   1   7
ATOM      7  C   UNL     1      53.195   8.477  11.526  0.00  0.00    +0.000 C 
BRANCH   7  16
ATOM      8  C   UNL     1      52.654   9.984   7.368  0.00  0.00    +0.000 C 
ATOM      9  C   UNL     1      53.919   9.221   7.193  0.00  0.00    +0.000 A 
ATOM     10  C   UNL     1      54.786   9.250   6.113  0.00  0.00    +0.000 A 
ATOM     11  C   UNL     1      55.772   8.264   6.313  0.00  0.00    +0.000 A 
ATOM     12  C   UNL     1      55.464   7.626   7.489  0.00  0.00    +0.000 A 
ATOM     13  N   UNL     1      54.358   8.225   8.068  0.00  0.00    +0.000 N 
ATOM     14  C   UNL     1      53.787   7.787   9.284  0.00  0.00    +0.000 C 
ATOM     15  O   UNL     1      53.678   6.591   9.509  0.00  0.00    +0.000 OA
ATOM     16  N   UNL     1      53.553   8.820  10.165  0.00  0.00    +0.000 N 
ATOM     17  H   UNL     1      54.047   9.692  10.010  0.00  0.00    +0.000 HD
ENDBRANCH   7  16
ENDBRANCH   1   7
BRANCH   4  18
ATOM     18  C   UNL     1      47.426   8.709  12.422  0.00  0.00    +0.000 C 
BRANCH  18  19
ATOM     19  N   UNL     1      46.812   7.403  12.443  0.00  0.00    +0.000 N 
ATOM     20  C   UNL     1      45.574   7.191  11.902  0.00  0.00    +0.000 C 
ATOM     21  O   UNL     1      44.926   8.118  11.406  0.00  0.00    +0.000 OA
ATOM     22  H   UNL     1      47.330   6.641  12.864  0.00  0.00    +0.000 HD
BRANCH  20  23
ATOM     23  C   UNL     1      45.048   5.818  11.896  0.00  0.00    +0.000 A 
ATOM     24  C   UNL     1      44.428   5.329  13.039  0.00  0.00    +0.000 A 
ATOM     25  S   UNL     1      43.815   3.751  12.877  0.00  0.00    +0.000 S 
ATOM     26  C   UNL     1      44.265   3.695  11.239  0.00  0.00    +0.000 A 
ATOM     27  N   UNL     1      43.893   2.648  10.464  0.00  0.00    +0.000 NA
ATOM     28  C   UNL     1      44.336   2.697   9.252  0.00  0.00    +0.000 A 
ATOM     29  N   UNL     1      45.165   3.674   8.742  0.00  0.00    +0.000 N 
ATOM     30  C   UNL     1      45.710   3.517   7.408  0.00  0.00    +0.000 C 
ATOM     31  C   UNL     1      45.538   4.782   9.501  0.00  0.00    +0.000 A 
ATOM     32  O   UNL     1      46.279   5.664   9.074  0.00  0.00    +0.000 OA
ATOM     33  C   UNL     1      44.998   4.804  10.854  0.00  0.00    +0.000 A 
ENDBRANCH  20  23
ENDBRANCH  18  19
ENDBRANCH   4  18
TORSDOF 5
ENDMDL
MODEL 7
REMARK VINA RESULT:    -6.024      3.095      8.741
REMARK INTER + INTRA:          -8.720
REMARK INTER:                  -7.936
REMARK INTRA:                  -0.784
REMARK UNBOUND:                -0.936
REMARK  Name = 
REMARK  7 active torsions:
REMARK  status: ('A' for Active; 'I' for Inactive)
REMARK    1  A    between atoms: C_1  and  C_2
REMARK    2  A    between atoms: N_9  and  C_10
REMARK    3  A    between atoms: C_10  and  C_11
REMARK    4  A    between atoms: C_14  and  C_15
REMARK    5  A    between atoms: C_15  and  N_16
REMARK    6  A    between atoms: C_17  and  C_19
REMARK    7  A    between atoms: N_25  and  C_26
REMARK                            x       y       z     vdW  Elec       q    Type
REMARK                         _______ _______ _______ _____ _____    ______ ____
ROOT
ATOM      1  C   UNL     1      48.363   7.252  12.984  0.00  0.00    +0.000 A 
ATOM      2  C   UNL     1      49.364   7.636  13.886  0.00  0.00    +0.000 A 
ATOM      3  C   UNL     1      50.581   8.154  13.426  0.00  0.00    +0.000 A 
ATOM      4  C   UNL     1      50.816   8.314  12.055  0.00  0.00    +0.000 A 
ATOM      5  C   UNL     1      49.828   7.900  11.152  0.00  0.00    +0.000 A 
ATOM      6  C   UNL     1      48.612   7.383  11.611  0.00  0.00    +0.000 A 
ENDROOT
BRANCH   1   7
ATOM      7  C   UNL     1      47.050   6.704  13.480  0.00  0.00    +0.000 C 
BRANCH   7  16
ATOM      8  C   UNL     1      45.592   5.119   9.579  0.00  0.00    +0.000 C 
ATOM      9  C   UNL     1      44.854   4.219  10.504  0.00  0.00    +0.000 A 
ATOM     10  C   UNL     1      44.164   3.059  10.190  0.00  0.00    +0.000 A 
ATOM     11  C   UNL     1      43.499   2.614  11.351  0.00  0.00    +0.000 A 
ATOM     12  C   UNL     1      43.762   3.533  12.337  0.00  0.00    +0.000 A 
ATOM     13  N   UNL     1      44.626   4.501  11.853  0.00  0.00    +0.000 N 
ATOM     14  C   UNL     1      45.076   5.594  12.626  0.00  0.00    +0.000 C 
ATOM     15  O   UNL     1      44.299   6.178  13.367  0.00  0.00    +0.000 OA
ATOM     16  N   UNL     1      46.441   5.773  12.552  0.00  0.00    +0.000 N 
ATOM     17  H   UNL     1      47.000   4.994  12.226  0.00  0.00    +0.000 HD
ENDBRANCH   7  16
ENDBRANCH   1   7
BRANCH   4  18
ATOM     18  C   UNL     1      52.110   8.898  11.549  0.00  0.00    +0.000 C 
BRANCH  18  19
ATOM     19  N   UNL     1      52.244   8.757  10.119  0.00  0.00    +0.000 N 
ATOM     20  C   UNL     1      53.405   8.307   9.556  0.00  0.00    +0.000 C 
ATOM     21  O   UNL     1      54.390   8.037  10.250  0.00  0.00    +0.000 OA
ATOM     22  H   UNL     1      51.445   8.993   9.541  0.00  0.00    +0.000 HD
BRANCH  20  23
ATOM     23  C   UNL     1      53.438   8.119   8.098  0.00  0.00    +0.000 A 
ATOM     24  C   UNL     1      53.178   9.207   7.273  0.00  0.00    +0.000 A 
ATOM     25  S   UNL     1      53.306   8.866   5.612  0.00  0.00    +0.000 S 
ATOM     26  C   UNL     1      53.814   7.276   5.930  0.00  0.00    +0.000 A 
ATOM     27  N   UNL     1      54.230   6.476   4.919  0.00  0.00    +0.000 NA
ATOM     28  C   UNL     1      54.545   5.277   5.281  0.00  0.00    +0.000 A 
ATOM     29  N   UNL     1      54.436   4.773   6.560  0.00  0.00    +0.000 N 
ATOM     30  C   UNL     1      54.677   3.362   6.790  0.00  0.00    +0.000 C 
ATOM     31  C   UNL     1      54.044   5.578   7.629  0.00  0.00    +0.000 A 
ATOM     32  O   UNL     1      53.935   5.155   8.777  0.00  0.00    +0.000 OA
ATOM     33  C   UNL     1      53.752   6.960   7.276  0.00  0.00    +0.000 A 
ENDBRANCH  20  23
ENDBRANCH  18  19
ENDBRANCH   4  18
TORSDOF 5
ENDMDL
MODEL 8
REMARK VINA RESULT:    -5.766      3.234      7.970
REMARK INTER + INTRA:          -8.387
REMARK INTER:                  -7.559
REMARK INTRA:                  -0.828
REMARK UNBOUND:                -0.936
REMARK  Name = 
REMARK  7 active torsions:
REMARK  status: ('A' for Active; 'I' for Inactive)
REMARK    1  A    between atoms: C_1  and  C_2
REMARK    2  A    between atoms: N_9  and  C_10
REMARK    3  A    between atoms: C_10  and  C_11
REMARK    4  A    between atoms: C_14  and  C_15
REMARK    5  A    between atoms: C_15  and  N_16
REMARK    6  A    between atoms: C_17  and  C_19
REMARK    7  A    between atoms: N_25  and  C_26
REMARK                            x       y       z     vdW  Elec       q    Type
REMARK                         _______ _______ _______ _____ _____    ______ ____
ROOT
ATOM      1  C   UNL     1      45.718   6.486  11.910  0.00  0.00    +0.000 A 
ATOM      2  C   UNL     1      47.088   6.620  11.645  0.00  0.00    +0.000 A 
ATOM      3  C   UNL     1      47.763   7.807  11.952  0.00  0.00    +0.000 A 
ATOM      4  C   UNL     1      47.088   8.880  12.547  0.00  0.00    +0.000 A 
ATOM      5  C   UNL     1      45.713   8.758  12.783  0.00  0.00    +0.000 A 
ATOM      6  C   UNL     1      45.037   7.573  12.476  0.00  0.00    +0.000 A 
ENDROOT
BRANCH   1   7
ATOM      7  C   UNL     1      44.994   5.205  11.587  0.00  0.00    +0.000 C 
BRANCH   7  16
ATOM      8  C   UNL     1      46.658   4.556   7.504  0.00  0.00    +0.000 C 
ATOM      9  C   UNL     1      46.407   3.144   7.898  0.00  0.00    +0.000 A 
ATOM     10  C   UNL     1      46.852   1.994   7.266  0.00  0.00    +0.000 A 
ATOM     11  C   UNL     1      46.256   0.885   7.899  0.00  0.00    +0.000 A 
ATOM     12  C   UNL     1      45.427   1.381   8.875  0.00  0.00    +0.000 A 
ATOM     13  N   UNL     1      45.538   2.760   8.923  0.00  0.00    +0.000 N 
ATOM     14  C   UNL     1      44.800   3.566   9.818  0.00  0.00    +0.000 C 
ATOM     15  O   UNL     1      43.623   3.316  10.035  0.00  0.00    +0.000 OA
ATOM     16  N   UNL     1      45.586   4.487  10.477  0.00  0.00    +0.000 N 
ATOM     17  H   UNL     1      46.586   4.324  10.496  0.00  0.00    +0.000 HD
ENDBRANCH   7  16
ENDBRANCH   1   7
BRANCH   4  18
ATOM     18  C   UNL     1      47.811  10.151  12.911  0.00  0.00    +0.000 C 
BRANCH  18  19
ATOM     19  N   UNL     1      49.245   9.986  12.874  0.00  0.00    +0.000 N 
ATOM     20  C   UNL     1      49.936   9.538  13.965  0.00  0.00    +0.000 C 
ATOM     21  O   UNL     1      49.361   9.290  15.029  0.00  0.00    +0.000 OA
ATOM     22  H   UNL     1      49.726  10.203  12.009  0.00  0.00    +0.000 HD
BRANCH  20  23
ATOM     23  C   UNL     1      51.385   9.325  13.825  0.00  0.00    +0.000 A 
ATOM     24  C   UNL     1      52.222   9.682  14.876  0.00  0.00    +0.000 A 
ATOM     25  S   UNL     1      53.863   9.329  14.607  0.00  0.00    +0.000 S 
ATOM     26  C   UNL     1      53.509   8.592  13.117  0.00  0.00    +0.000 A 
ATOM     27  N   UNL     1      54.479   7.944  12.427  0.00  0.00    +0.000 NA
ATOM     28  C   UNL     1      54.098   7.468  11.289  0.00  0.00    +0.000 A 
ATOM     29  N   UNL     1      52.842   7.618  10.739  0.00  0.00    +0.000 N 
ATOM     30  C   UNL     1      52.602   7.165   9.384  0.00  0.00    +0.000 C 
ATOM     31  C   UNL     1      51.811   8.249  11.437  0.00  0.00    +0.000 A 
ATOM     32  O   UNL     1      50.686   8.400  10.970  0.00  0.00    +0.000 OA
ATOM     33  C   UNL     1      52.180   8.736  12.759  0.00  0.00    +0.000 A 
ENDBRANCH  20  23
ENDBRANCH  18  19
ENDBRANCH   4  18
TORSDOF 5
ENDMDL
MODEL 9
REMARK VINA RESULT:    -5.698      3.065      4.514
REMARK INTER + INTRA:          -8.300
REMARK INTER:                  -7.478
REMARK INTRA:                  -0.823
REMARK UNBOUND:                -0.936
REMARK  Name = 
REMARK  7 active torsions:
REMARK  status: ('A' for Active; 'I' for Inactive)
REMARK    1  A    between atoms: C_1  and  C_2
REMARK    2  A    between atoms: N_9  and  C_10
REMARK    3  A    between atoms: C_10  and  C_11
REMARK    4  A    between atoms: C_14  and  C_15
REMARK    5  A    between atoms: C_15  and  N_16
REMARK    6  A    between atoms: C_17  and  C_19
REMARK    7  A    between atoms: N_25  and  C_26
REMARK                            x       y       z     vdW  Elec       q    Type
REMARK                         _______ _______ _______ _____ _____    ______ ____
ROOT
ATOM      1  C   UNL     1      53.597   7.721   9.568  0.00  0.00    +0.000 A 
ATOM      2  C   UNL     1      52.290   7.215   9.594  0.00  0.00    +0.000 A 
ATOM      3  C   UNL     1      51.440   7.486  10.673  0.00  0.00    +0.000 A 
ATOM      4  C   UNL     1      51.873   8.282  11.741  0.00  0.00    +0.000 A 
ATOM      5  C   UNL     1      53.189   8.761  11.730  0.00  0.00    +0.000 A 
ATOM      6  C   UNL     1      54.039   8.491  10.652  0.00  0.00    +0.000 A 
ENDROOT
BRANCH   1   7
ATOM      7  C   UNL     1      54.508   7.437   8.402  0.00  0.00    +0.000 C 
BRANCH   7  16
ATOM      8  C   UNL     1      52.002   9.976   5.731  0.00  0.00    +0.000 C 
ATOM      9  C   UNL     1      52.856   9.310   4.712  0.00  0.00    +0.000 A 
ATOM     10  C   UNL     1      52.992   9.639   3.373  0.00  0.00    +0.000 A 
ATOM     11  C   UNL     1      53.790   8.654   2.756  0.00  0.00    +0.000 A 
ATOM     12  C   UNL     1      54.088   7.723   3.721  0.00  0.00    +0.000 A 
ATOM     13  N   UNL     1      53.564   8.127   4.937  0.00  0.00    +0.000 N 
ATOM     14  C   UNL     1      53.692   7.374   6.125  0.00  0.00    +0.000 C 
ATOM     15  O   UNL     1      53.566   6.159   6.092  0.00  0.00    +0.000 OA
ATOM     16  N   UNL     1      54.112   8.134   7.195  0.00  0.00    +0.000 N 
ATOM     17  H   UNL     1      54.552   9.025   6.995  0.00  0.00    +0.000 HD
ENDBRANCH   7  16
ENDBRANCH   1   7
BRANCH   4  18
ATOM     18  C   UNL     1      50.957   8.605  12.893  0.00  0.00    +0.000 C 
BRANCH  18  19
ATOM     19  N   UNL     1      50.150   7.471  13.276  0.00  0.00    +0.000 N 
ATOM     20  C   UNL     1      48.909   7.635  13.825  0.00  0.00    +0.000 C 
ATOM     21  O   UNL     1      48.450   8.761  14.041  0.00  0.00    +0.000 OA
ATOM     22  H   UNL     1      50.528   6.544  13.117  0.00  0.00    +0.000 HD
BRANCH  20  23
ATOM     23  C   UNL     1      48.119   6.431  14.120  0.00  0.00    +0.000 A 
ATOM     24  C   UNL     1      48.278   5.805  15.350  0.00  0.00    +0.000 A 
ATOM     25  S   UNL     1      47.264   4.461  15.583  0.00  0.00    +0.000 S 
ATOM     26  C   UNL     1      46.498   4.721  14.088  0.00  0.00    +0.000 A 
ATOM     27  N   UNL     1      45.416   3.984  13.737  0.00  0.00    +0.000 NA
ATOM     28  C   UNL     1      44.954   4.242  12.559  0.00  0.00    +0.000 A 
ATOM     29  N   UNL     1      45.500   5.138  11.664  0.00  0.00    +0.000 N 
ATOM     30  C   UNL     1      44.968   5.210  10.318  0.00  0.00    +0.000 C 
ATOM     31  C   UNL     1      46.592   5.936  12.006  0.00  0.00    +0.000 A 
ATOM     32  O   UNL     1      47.101   6.738  11.227  0.00  0.00    +0.000 OA
ATOM     33  C   UNL     1      47.098   5.730  13.356  0.00  0.00    +0.000 A 
ENDBRANCH  20  23
ENDBRANCH  18  19
ENDBRANCH   4  18
TORSDOF 5
ENDMDL
