MODEL 1
REMARK VINA RESULT:    -8.250      0.000      0.000
REMARK INTER + INTRA:         -12.681
REMARK INTER:                 -11.626
REMARK INTRA:                  -1.054
REMARK UNBOUND:                -1.054
REMARK  Name = 
REMARK  8 active torsions:
REMARK  status: ('A' for Active; 'I' for Inactive)
REMARK    1  A    between atoms: C_1  and  O_2
REMARK    2  A    between atoms: O_2  and  C_3
REMARK    3  A    between atoms: C_10  and  C_11
REMARK    4  A    between atoms: N_13  and  C_14
REMARK    5  A    between atoms: C_14  and  C_15
REMARK    6  A    between atoms: C_18  and  C_19
REMARK    7  A    between atoms: C_19  and  C_20
REMARK    8  A    between atoms: C_20  and  N_21
REMARK                            x       y       z     vdW  Elec       q    Type
REMARK                         _______ _______ _______ _____ _____    ______ ____
ROOT
ATOM      1  C   UNL     1      47.889   7.551  13.394  0.00  0.00    +0.000 C 
ENDROOT
BRANCH   1   2
ATOM      2  C   UNL     1      46.986   6.476  12.849  0.00  0.00    +0.000 A 
ATOM      3  C   UNL     1      46.474   6.582  11.552  0.00  0.00    +0.000 A 
ATOM      4  C   UNL     1      45.575   5.631  11.060  0.00  0.00    +0.000 A 
ATOM      5  C   UNL     1      45.154   4.554  11.853  0.00  0.00    +0.000 A 
ATOM      6  C   UNL     1      45.693   4.437  13.143  0.00  0.00    +0.000 A 
ATOM      7  C   UNL     1      46.594   5.388  13.637  0.00  0.00    +0.000 A 
BRANCH   5   8
ATOM      8  C   UNL     1      44.132   3.529  11.387  0.00  0.00    +0.000 C 
BRANCH   8   9
ATOM      9  C   UNL     1      44.117   3.262   9.875  0.00  0.00    +0.000 C 
BRANCH   9  10
ATOM     10  N   UNL     1      44.786   2.003   9.530  0.00  0.00    +0.000 N 
ATOM     11  C   UNL     1      45.702   2.170   8.465  0.00  0.00    +0.000 A 
ATOM     12  C   UNL     1      46.415   1.058   8.022  0.00  0.00    +0.000 A 
ATOM     13  C   UNL     1      47.336   1.204   6.985  0.00  0.00    +0.000 A 
ATOM     14  C   UNL     1      47.527   2.454   6.413  0.00  0.00    +0.000 A 
ATOM     15  C   UNL     1      46.788   3.508   6.912  0.00  0.00    +0.000 A 
ATOM     16  N   UNL     1      45.894   3.389   7.918  0.00  0.00    +0.000 NA
ATOM     17  H   UNL     1      44.127   1.275   9.265  0.00  0.00    +0.000 HD
ENDBRANCH   9  10
ENDBRANCH   8   9
ENDBRANCH   5   8
ENDBRANCH   1   2
BRANCH   1  20
ATOM     18  C   UNL     1      48.936   7.088  15.564  0.00  0.00    +0.000 C 
ATOM     19  O   UNL     1      49.931   6.632  15.003  0.00  0.00    +0.000 OA
ATOM     20  N   UNL     1      47.875   7.557  14.839  0.00  0.00    +0.000 N 
ATOM     21  H   UNL     1      47.068   7.953  15.305  0.00  0.00    +0.000 HD
BRANCH  18  29
ATOM     22  C   UNL     1      48.961   4.704  18.062  0.00  0.00    +0.000 A 
ATOM     23  N   UNL     1      48.899   4.001  19.212  0.00  0.00    +0.000 NA
ATOM     24  C   UNL     1      48.758   4.677  20.355  0.00  0.00    +0.000 A 
ATOM     25  N   UNL     1      48.675   5.996  20.499  0.00  0.00    +0.000 NA
ATOM     26  C   UNL     1      48.726   6.656  19.330  0.00  0.00    +0.000 A 
ATOM     27  S   UNL     1      48.640   8.350  19.326  0.00  0.00    +0.000 S 
ATOM     28  C   UNL     1      48.748   8.399  17.632  0.00  0.00    +0.000 A 
ATOM     29  C   UNL     1      48.853   7.147  17.033  0.00  0.00    +0.000 A 
ATOM     30  C   UNL     1      48.853   6.104  18.058  0.00  0.00    +0.000 A 
BRANCH  22  32
ATOM     31  C   UNL     1      47.900   3.374  16.466  0.00  0.00    +0.000 C 
ATOM     32  O   UNL     1      49.111   4.004  16.881  0.00  0.00    +0.000 OA
ENDBRANCH  22  32
ENDBRANCH  18  29
ENDBRANCH   1  20
TORSDOF 7
ENDMDL
MODEL 2
REMARK VINA RESULT:    -8.059      1.495      1.971
REMARK INTER + INTRA:         -12.411
REMARK INTER:                 -11.433
REMARK INTRA:                  -0.978
REMARK UNBOUND:                -1.054
REMARK  Name = 
REMARK  8 active torsions:
REMARK  status: ('A' for Active; 'I' for Inactive)
REMARK    1  A    between atoms: C_1  and  O_2
REMARK    2  A    between atoms: O_2  and  C_3
REMARK    3  A    between atoms: C_10  and  C_11
REMARK    4  A    between atoms: N_13  and  C_14
REMARK    5  A    between atoms: C_14  and  C_15
REMARK    6  A    between atoms: C_18  and  C_19
REMARK    7  A    between atoms: C_19  and  C_20
REMARK    8  A    between atoms: C_20  and  N_21
REMARK                            x       y       z     vdW  Elec       q    Type
REMARK                         _______ _______ _______ _____ _____    ______ ____
ROOT
ATOM      1  C   UNL     1      47.290   8.426  13.348  0.00  0.00    +0.000 C 
ENDROOT
BRANCH   1   2
ATOM      2  C   UNL     1      46.334   7.567  12.563  0.00  0.00    +0.000 A 
ATOM      3  C   UNL     1      45.122   8.100  12.112  0.00  0.00    +0.000 A 
ATOM      4  C   UNL     1      44.192   7.295  11.449  0.00  0.00    +0.000 A 
ATOM      5  C   UNL     1      44.441   5.933  11.225  0.00  0.00    +0.000 A 
ATOM      6  C   UNL     1      45.671   5.411  11.653  0.00  0.00    +0.000 A 
ATOM      7  C   UNL     1      46.604   6.216  12.318  0.00  0.00    +0.000 A 
BRANCH   5   8
ATOM      8  C   UNL     1      43.437   5.003  10.563  0.00  0.00    +0.000 C 
BRANCH   8   9
ATOM      9  C   UNL     1      44.048   3.862   9.739  0.00  0.00    +0.000 C 
BRANCH   9  10
ATOM     10  N   UNL     1      44.774   4.357   8.565  0.00  0.00    +0.000 N 
ATOM     11  C   UNL     1      45.622   3.367   8.015  0.00  0.00    +0.000 A 
ATOM     12  C   UNL     1      46.382   3.691   6.893  0.00  0.00    +0.000 A 
ATOM     13  C   UNL     1      47.211   2.724   6.324  0.00  0.00    +0.000 A 
ATOM     14  C   UNL     1      47.265   1.456   6.886  0.00  0.00    +0.000 A 
ATOM     15  C   UNL     1      46.477   1.210   7.993  0.00  0.00    +0.000 A 
ATOM     16  N   UNL     1      45.665   2.131   8.557  0.00  0.00    +0.000 NA
ATOM     17  H   UNL     1      45.343   5.173   8.778  0.00  0.00    +0.000 HD
ENDBRANCH   9  10
ENDBRANCH   8   9
ENDBRANCH   5   8
ENDBRANCH   1   2
BRANCH   1  20
ATOM     18  C   UNL     1      48.939   7.152  14.645  0.00  0.00    +0.000 C 
ATOM     19  O   UNL     1      49.710   7.148  13.687  0.00  0.00    +0.000 OA
ATOM     20  N   UNL     1      47.715   7.757  14.557  0.00  0.00    +0.000 N 
ATOM     21  H   UNL     1      47.093   7.778  15.355  0.00  0.00    +0.000 HD
BRANCH  18  29
ATOM     22  C   UNL     1      47.701   4.454  16.409  0.00  0.00    +0.000 A 
ATOM     23  N   UNL     1      47.400   3.496  17.311  0.00  0.00    +0.000 NA
ATOM     24  C   UNL     1      48.138   3.424  18.422  0.00  0.00    +0.000 A 
ATOM     25  N   UNL     1      49.165   4.202  18.752  0.00  0.00    +0.000 NA
ATOM     26  C   UNL     1      49.421   5.150  17.835  0.00  0.00    +0.000 A 
ATOM     27  S   UNL     1      50.705   6.230  18.090  0.00  0.00    +0.000 S 
ATOM     28  C   UNL     1      50.381   7.034  16.629  0.00  0.00    +0.000 A 
ATOM     29  C   UNL     1      49.305   6.509  15.918  0.00  0.00    +0.000 A 
ATOM     30  C   UNL     1      48.741   5.370  16.639  0.00  0.00    +0.000 A 
BRANCH  22  32
ATOM     31  C   UNL     1      47.164   3.415  14.392  0.00  0.00    +0.000 C 
ATOM     32  O   UNL     1      46.941   4.525  15.260  0.00  0.00    +0.000 OA
ENDBRANCH  22  32
ENDBRANCH  18  29
ENDBRANCH   1  20
TORSDOF 7
ENDMDL
MODEL 3
REMARK VINA RESULT:    -7.855      1.720      2.134
REMARK INTER + INTRA:         -12.124
REMARK INTER:                 -10.918
REMARK INTRA:                  -1.206
REMARK UNBOUND:                -1.054
REMARK  Name = 
REMARK  8 active torsions:
REMARK  status: ('A' for Active; 'I' for Inactive)
REMARK    1  A    between atoms: C_1  and  O_2
REMARK    2  A    between atoms: O_2  and  C_3
REMARK    3  A    between atoms: C_10  and  C_11
REMARK    4  A    between atoms: N_13  and  C_14
REMARK    5  A    between atoms: C_14  and  C_15
REMARK    6  A    between atoms: C_18  and  C_19
REMARK    7  A    between atoms: C_19  and  C_20
REMARK    8  A    between atoms: C_20  and  N_21
REMARK                            x       y       z     vdW  Elec       q    Type
REMARK                         _______ _______ _______ _____ _____    ______ ____
ROOT
ATOM      1  C   UNL     1      47.753   7.576  13.203  0.00  0.00    +0.000 C 
ENDROOT
BRANCH   1   2
ATOM      2  C   UNL     1      46.754   6.543  12.754  0.00  0.00    +0.000 A 
ATOM      3  C   UNL     1      46.252   5.609  13.666  0.00  0.00    +0.000 A 
ATOM      4  C   UNL     1      45.383   4.599  13.247  0.00  0.00    +0.000 A 
ATOM      5  C   UNL     1      44.999   4.484  11.903  0.00  0.00    +0.000 A 
ATOM      6  C   UNL     1      45.483   5.440  10.997  0.00  0.00    +0.000 A 
ATOM      7  C   UNL     1      46.354   6.454  11.416  0.00  0.00    +0.000 A 
BRANCH   5   8
ATOM      8  C   UNL     1      44.106   3.367  11.386  0.00  0.00    +0.000 C 
BRANCH   8   9
ATOM      9  C   UNL     1      44.148   3.147   9.868  0.00  0.00    +0.000 C 
BRANCH   9  10
ATOM     10  N   UNL     1      44.890   1.934   9.506  0.00  0.00    +0.000 N 
ATOM     11  C   UNL     1      45.755   2.154   8.409  0.00  0.00    +0.000 A 
ATOM     12  C   UNL     1      46.526   1.090   7.947  0.00  0.00    +0.000 A 
ATOM     13  C   UNL     1      47.399   1.290   6.878  0.00  0.00    +0.000 A 
ATOM     14  C   UNL     1      47.484   2.545   6.292  0.00  0.00    +0.000 A 
ATOM     15  C   UNL     1      46.692   3.550   6.811  0.00  0.00    +0.000 A 
ATOM     16  N   UNL     1      45.843   3.379   7.848  0.00  0.00    +0.000 NA
ATOM     17  H   UNL     1      44.273   1.159   9.269  0.00  0.00    +0.000 HD
ENDBRANCH   9  10
ENDBRANCH   8   9
ENDBRANCH   5   8
ENDBRANCH   1   2
BRANCH   1  20
ATOM     18  C   UNL     1      49.568   7.732  14.848  0.00  0.00    +0.000 C 
ATOM     19  O   UNL     1      49.415   8.950  14.922  0.00  0.00    +0.000 OA
ATOM     20  N   UNL     1      48.790   6.977  14.013  0.00  0.00    +0.000 N 
ATOM     21  H   UNL     1      48.904   5.972  13.973  0.00  0.00    +0.000 HD
BRANCH  18  29
ATOM     22  C   UNL     1      49.477   5.124  17.109  0.00  0.00    +0.000 A 
ATOM     23  N   UNL     1      49.723   4.183  18.044  0.00  0.00    +0.000 NA
ATOM     24  C   UNL     1      50.979   4.035  18.473  0.00  0.00    +0.000 A 
ATOM     25  N   UNL     1      52.046   4.719  18.072  0.00  0.00    +0.000 NA
ATOM     26  C   UNL     1      51.755   5.654  17.153  0.00  0.00    +0.000 A 
ATOM     27  S   UNL     1      53.001   6.619  16.524  0.00  0.00    +0.000 S 
ATOM     28  C   UNL     1      51.910   7.467  15.536  0.00  0.00    +0.000 A 
ATOM     29  C   UNL     1      50.590   7.044  15.655  0.00  0.00    +0.000 A 
ATOM     30  C   UNL     1      50.504   5.946  16.616  0.00  0.00    +0.000 A 
BRANCH  22  32
ATOM     31  C   UNL     1      47.422   4.070  16.784  0.00  0.00    +0.000 C 
ATOM     32  O   UNL     1      48.179   5.273  16.664  0.00  0.00    +0.000 OA
ENDBRANCH  22  32
ENDBRANCH  18  29
ENDBRANCH   1  20
TORSDOF 7
ENDMDL
MODEL 4
REMARK VINA RESULT:    -7.678      1.796      2.984
REMARK INTER + INTRA:         -11.875
REMARK INTER:                 -10.793
REMARK INTRA:                  -1.081
REMARK UNBOUND:                -1.054
REMARK  Name = 
REMARK  8 active torsions:
REMARK  status: ('A' for Active; 'I' for Inactive)
REMARK    1  A    between atoms: C_1  and  O_2
REMARK    2  A    between atoms: O_2  and  C_3
REMARK    3  A    between atoms: C_10  and  C_11
REMARK    4  A    between atoms: N_13  and  C_14
REMARK    5  A    between atoms: C_14  and  C_15
REMARK    6  A    between atoms: C_18  and  C_19
REMARK    7  A    between atoms: C_19  and  C_20
REMARK    8  A    between atoms: C_20  and  N_21
REMARK                            x       y       z     vdW  Elec       q    Type
REMARK                         _______ _______ _______ _____ _____    ______ ____
ROOT
ATOM      1  C   UNL     1      48.390   7.012  14.098  0.00  0.00    +0.000 C 
ENDROOT
BRANCH   1   2
ATOM      2  C   UNL     1      47.182   6.535  13.336  0.00  0.00    +0.000 A 
ATOM      3  C   UNL     1      46.874   5.171  13.291  0.00  0.00    +0.000 A 
ATOM      4  C   UNL     1      45.801   4.707  12.526  0.00  0.00    +0.000 A 
ATOM      5  C   UNL     1      45.011   5.589  11.775  0.00  0.00    +0.000 A 
ATOM      6  C   UNL     1      45.306   6.959  11.846  0.00  0.00    +0.000 A 
ATOM      7  C   UNL     1      46.381   7.426  12.613  0.00  0.00    +0.000 A 
BRANCH   5   8
ATOM      8  C   UNL     1      43.872   5.127  10.879  0.00  0.00    +0.000 C 
BRANCH   8   9
ATOM      9  C   UNL     1      44.219   3.981   9.920  0.00  0.00    +0.000 C 
BRANCH   9  10
ATOM     10  N   UNL     1      44.918   4.456   8.721  0.00  0.00    +0.000 N 
ATOM     11  C   UNL     1      45.685   3.432   8.118  0.00  0.00    +0.000 A 
ATOM     12  C   UNL     1      46.410   3.733   6.968  0.00  0.00    +0.000 A 
ATOM     13  C   UNL     1      47.159   2.733   6.347  0.00  0.00    +0.000 A 
ATOM     14  C   UNL     1      47.168   1.454   6.887  0.00  0.00    +0.000 A 
ATOM     15  C   UNL     1      46.418   1.232   8.025  0.00  0.00    +0.000 A 
ATOM     16  N   UNL     1      45.683   2.186   8.639  0.00  0.00    +0.000 NA
ATOM     17  H   UNL     1      45.540   5.237   8.920  0.00  0.00    +0.000 HD
ENDBRANCH   9  10
ENDBRANCH   8   9
ENDBRANCH   5   8
ENDBRANCH   1   2
BRANCH   1  20
ATOM     18  C   UNL     1      48.701   6.391  16.452  0.00  0.00    +0.000 C 
ATOM     19  O   UNL     1      49.517   5.529  16.131  0.00  0.00    +0.000 OA
ATOM     20  N   UNL     1      48.089   7.165  15.504  0.00  0.00    +0.000 N 
ATOM     21  H   UNL     1      47.436   7.889  15.774  0.00  0.00    +0.000 HD
BRANCH  18  29
ATOM     22  C   UNL     1      47.730   9.171  18.255  0.00  0.00    +0.000 A 
ATOM     23  N   UNL     1      47.389  10.079  19.194  0.00  0.00    +0.000 NA
ATOM     24  C   UNL     1      47.250   9.659  20.454  0.00  0.00    +0.000 A 
ATOM     25  N   UNL     1      47.406   8.418  20.905  0.00  0.00    +0.000 NA
ATOM     26  C   UNL     1      47.759   7.550  19.943  0.00  0.00    +0.000 A 
ATOM     27  S   UNL     1      47.996   5.917  20.339  0.00  0.00    +0.000 S 
ATOM     28  C   UNL     1      48.393   5.536  18.733  0.00  0.00    +0.000 A 
ATOM     29  C   UNL     1      48.355   6.623  17.865  0.00  0.00    +0.000 A 
ATOM     30  C   UNL     1      47.961   7.827  18.593  0.00  0.00    +0.000 A 
BRANCH  22  32
ATOM     31  C   UNL     1      48.912  10.569  16.811  0.00  0.00    +0.000 C 
ATOM     32  O   UNL     1      47.870   9.606  16.953  0.00  0.00    +0.000 OA
ENDBRANCH  22  32
ENDBRANCH  18  29
ENDBRANCH   1  20
TORSDOF 7
ENDMDL
MODEL 5
REMARK VINA RESULT:    -6.920      2.547      3.302
REMARK INTER + INTRA:         -10.806
REMARK INTER:                  -9.990
REMARK INTRA:                  -0.815
REMARK UNBOUND:                -1.054
REMARK  Name = 
REMARK  8 active torsions:
REMARK  status: ('A' for Active; 'I' for Inactive)
REMARK    1  A    between atoms: C_1  and  O_2
REMARK    2  A    between atoms: O_2  and  C_3
REMARK    3  A    between atoms: C_10  and  C_11
REMARK    4  A    between atoms: N_13  and  C_14
REMARK    5  A    between atoms: C_14  and  C_15
REMARK    6  A    between atoms: C_18  and  C_19
REMARK    7  A    between atoms: C_19  and  C_20
REMARK    8  A    between atoms: C_20  and  N_21
REMARK                            x       y       z     vdW  Elec       q    Type
REMARK                         _______ _______ _______ _____ _____    ______ ____
ROOT
ATOM      1  C   UNL     1      47.895   7.307  13.160  0.00  0.00    +0.000 C 
ENDROOT
BRANCH   1   2
ATOM      2  C   UNL     1      46.850   6.319  12.714  0.00  0.00    +0.000 A 
ATOM      3  C   UNL     1      46.435   5.299  13.577  0.00  0.00    +0.000 A 
ATOM      4  C   UNL     1      45.523   4.331  13.151  0.00  0.00    +0.000 A 
ATOM      5  C   UNL     1      45.006   4.345  11.848  0.00  0.00    +0.000 A 
ATOM      6  C   UNL     1      45.403   5.386  10.995  0.00  0.00    +0.000 A 
ATOM      7  C   UNL     1      46.317   6.358  11.421  0.00  0.00    +0.000 A 
BRANCH   5   8
ATOM      8  C   UNL     1      44.059   3.280  11.317  0.00  0.00    +0.000 C 
BRANCH   8   9
ATOM      9  C   UNL     1      44.104   3.064   9.798  0.00  0.00    +0.000 C 
BRANCH   9  10
ATOM     10  N   UNL     1      44.859   1.860   9.434  0.00  0.00    +0.000 N 
ATOM     11  C   UNL     1      45.774   2.110   8.385  0.00  0.00    +0.000 A 
ATOM     12  C   UNL     1      46.564   1.058   7.927  0.00  0.00    +0.000 A 
ATOM     13  C   UNL     1      47.486   1.287   6.906  0.00  0.00    +0.000 A 
ATOM     14  C   UNL     1      47.601   2.560   6.364  0.00  0.00    +0.000 A 
ATOM     15  C   UNL     1      46.789   3.552   6.877  0.00  0.00    +0.000 A 
ATOM     16  N   UNL     1      45.892   3.352   7.868  0.00  0.00    +0.000 NA
ATOM     17  H   UNL     1      44.252   1.096   9.144  0.00  0.00    +0.000 HD
ENDBRANCH   9  10
ENDBRANCH   8   9
ENDBRANCH   5   8
ENDBRANCH   1   2
BRANCH   1  20
ATOM     18  C   UNL     1      49.697   7.494  14.814  0.00  0.00    +0.000 C 
ATOM     19  O   UNL     1      50.030   8.583  14.349  0.00  0.00    +0.000 OA
ATOM     20  N   UNL     1      48.653   6.792  14.277  0.00  0.00    +0.000 N 
ATOM     21  H   UNL     1      48.368   5.907  14.678  0.00  0.00    +0.000 HD
BRANCH  18  29
ATOM     22  C   UNL     1      53.030   7.161  15.653  0.00  0.00    +0.000 A 
ATOM     23  N   UNL     1      54.227   6.859  16.199  0.00  0.00    +0.000 NA
ATOM     24  C   UNL     1      54.240   6.206  17.364  0.00  0.00    +0.000 A 
ATOM     25  N   UNL     1      53.186   5.812  18.072  0.00  0.00    +0.000 NA
ATOM     26  C   UNL     1      52.016   6.119  17.487  0.00  0.00    +0.000 A 
ATOM     27  S   UNL     1      50.564   5.696  18.257  0.00  0.00    +0.000 S 
ATOM     28  C   UNL     1      49.646   6.357  16.990  0.00  0.00    +0.000 A 
ATOM     29  C   UNL     1      50.407   6.910  15.965  0.00  0.00    +0.000 A 
ATOM     30  C   UNL     1      51.830   6.777  16.274  0.00  0.00    +0.000 A 
BRANCH  22  32
ATOM     31  C   UNL     1      53.825   9.014  14.482  0.00  0.00    +0.000 C 
ATOM     32  O   UNL     1      53.017   7.839  14.451  0.00  0.00    +0.000 OA
ENDBRANCH  22  32
ENDBRANCH  18  29
ENDBRANCH   1  20
TORSDOF 7
ENDMDL
MODEL 6
REMARK VINA RESULT:    -6.560      2.661      3.632
REMARK INTER + INTRA:         -10.299
REMARK INTER:                  -9.766
REMARK INTRA:                  -0.533
REMARK UNBOUND:                -1.054
REMARK  Name = 
REMARK  8 active torsions:
REMARK  status: ('A' for Active; 'I' for Inactive)
REMARK    1  A    between atoms: C_1  and  O_2
REMARK    2  A    between atoms: O_2  and  C_3
REMARK    3  A    between atoms: C_10  and  C_11
REMARK    4  A    between atoms: N_13  and  C_14
REMARK    5  A    between atoms: C_14  and  C_15
REMARK    6  A    between atoms: C_18  and  C_19
REMARK    7  A    between atoms: C_19  and  C_20
REMARK    8  A    between atoms: C_20  and  N_21
REMARK                            x       y       z     vdW  Elec       q    Type
REMARK                         _______ _______ _______ _____ _____    ______ ____
ROOT
ATOM      1  C   UNL     1      49.103   7.288  16.287  0.00  0.00    +0.000 C 
ENDROOT
BRANCH   1   2
ATOM      2  C   UNL     1      48.490   7.044  14.933  0.00  0.00    +0.000 A 
ATOM      3  C   UNL     1      48.388   8.090  14.011  0.00  0.00    +0.000 A 
ATOM      4  C   UNL     1      47.754   7.897  12.781  0.00  0.00    +0.000 A 
ATOM      5  C   UNL     1      47.193   6.658  12.441  0.00  0.00    +0.000 A 
ATOM      6  C   UNL     1      47.323   5.604  13.358  0.00  0.00    +0.000 A 
ATOM      7  C   UNL     1      47.959   5.795  14.591  0.00  0.00    +0.000 A 
BRANCH   5   8
ATOM      8  C   UNL     1      46.439   6.415  11.142  0.00  0.00    +0.000 C 
BRANCH   8   9
ATOM      9  C   UNL     1      44.919   6.263  11.288  0.00  0.00    +0.000 C 
BRANCH   9  10
ATOM     10  N   UNL     1      44.515   4.859  11.416  0.00  0.00    +0.000 N 
ATOM     11  C   UNL     1      44.794   4.122  10.241  0.00  0.00    +0.000 A 
ATOM     12  C   UNL     1      44.463   2.770  10.210  0.00  0.00    +0.000 A 
ATOM     13  C   UNL     1      44.746   2.020   9.068  0.00  0.00    +0.000 A 
ATOM     14  C   UNL     1      45.352   2.635   7.982  0.00  0.00    +0.000 A 
ATOM     15  C   UNL     1      45.657   3.978   8.092  0.00  0.00    +0.000 A 
ATOM     16  N   UNL     1      45.394   4.720   9.190  0.00  0.00    +0.000 NA
ATOM     17  H   UNL     1      43.523   4.759  11.620  0.00  0.00    +0.000 HD
ENDBRANCH   9  10
ENDBRANCH   8   9
ENDBRANCH   5   8
ENDBRANCH   1   2
BRANCH   1  20
ATOM     18  C   UNL     1      50.500   6.083  17.904  0.00  0.00    +0.000 C 
ATOM     19  O   UNL     1      50.123   6.828  18.807  0.00  0.00    +0.000 OA
ATOM     20  N   UNL     1      50.049   6.248  16.624  0.00  0.00    +0.000 N 
ATOM     21  H   UNL     1      50.344   5.618  15.888  0.00  0.00    +0.000 HD
BRANCH  18  29
ATOM     22  C   UNL     1      50.519   2.706  17.184  0.00  0.00    +0.000 A 
ATOM     23  N   UNL     1      50.763   1.383  17.081  0.00  0.00    +0.000 NA
ATOM     24  C   UNL     1      51.891   0.908  17.616  0.00  0.00    +0.000 A 
ATOM     25  N   UNL     1      52.831   1.603  18.249  0.00  0.00    +0.000 NA
ATOM     26  C   UNL     1      52.542   2.912  18.342  0.00  0.00    +0.000 A 
ATOM     27  S   UNL     1      53.636   3.954  19.116  0.00  0.00    +0.000 S 
ATOM     28  C   UNL     1      52.625   5.292  18.847  0.00  0.00    +0.000 A 
ATOM     29  C   UNL     1      51.448   4.988  18.170  0.00  0.00    +0.000 A 
ATOM     30  C   UNL     1      51.409   3.560  17.857  0.00  0.00    +0.000 A 
BRANCH  22  32
ATOM     31  C   UNL     1      48.231   3.035  17.491  0.00  0.00    +0.000 C 
ATOM     32  O   UNL     1      49.355   3.196  16.628  0.00  0.00    +0.000 OA
ENDBRANCH  22  32
ENDBRANCH  18  29
ENDBRANCH   1  20
TORSDOF 7
ENDMDL
MODEL 7
REMARK VINA RESULT:    -6.193      4.214      6.245
REMARK INTER + INTRA:          -9.782
REMARK INTER:                  -8.939
REMARK INTRA:                  -0.842
REMARK UNBOUND:                -1.054
REMARK  Name = 
REMARK  8 active torsions:
REMARK  status: ('A' for Active; 'I' for Inactive)
REMARK    1  A    between atoms: C_1  and  O_2
REMARK    2  A    between atoms: O_2  and  C_3
REMARK    3  A    between atoms: C_10  and  C_11
REMARK    4  A    between atoms: N_13  and  C_14
REMARK    5  A    between atoms: C_14  and  C_15
REMARK    6  A    between atoms: C_18  and  C_19
REMARK    7  A    between atoms: C_19  and  C_20
REMARK    8  A    between atoms: C_20  and  N_21
REMARK                            x       y       z     vdW  Elec       q    Type
REMARK                         _______ _______ _______ _____ _____    ______ ____
ROOT
ATOM      1  C   UNL     1      48.600   7.276  13.889  0.00  0.00    +0.000 C 
ENDROOT
BRANCH   1   2
ATOM      2  C   UNL     1      47.404   6.470  13.455  0.00  0.00    +0.000 A 
ATOM      3  C   UNL     1      46.306   7.106  12.866  0.00  0.00    +0.000 A 
ATOM      4  C   UNL     1      45.160   6.382  12.528  0.00  0.00    +0.000 A 
ATOM      5  C   UNL     1      45.071   5.006  12.778  0.00  0.00    +0.000 A 
ATOM      6  C   UNL     1      46.186   4.367  13.343  0.00  0.00    +0.000 A 
ATOM      7  C   UNL     1      47.336   5.091  13.682  0.00  0.00    +0.000 A 
BRANCH   5   8
ATOM      8  C   UNL     1      43.824   4.186  12.486  0.00  0.00    +0.000 C 
BRANCH   8   9
ATOM      9  C   UNL     1      43.530   3.952  10.998  0.00  0.00    +0.000 C 
BRANCH   9  10
ATOM     10  N   UNL     1      44.088   2.684  10.517  0.00  0.00    +0.000 N 
ATOM     11  C   UNL     1      44.940   2.873   9.404  0.00  0.00    +0.000 A 
ATOM     12  C   UNL     1      45.545   1.756   8.833  0.00  0.00    +0.000 A 
ATOM     13  C   UNL     1      46.404   1.921   7.746  0.00  0.00    +0.000 A 
ATOM     14  C   UNL     1      46.639   3.197   7.252  0.00  0.00    +0.000 A 
ATOM     15  C   UNL     1      46.008   4.254   7.876  0.00  0.00    +0.000 A 
ATOM     16  N   UNL     1      45.177   4.116   8.933  0.00  0.00    +0.000 NA
ATOM     17  H   UNL     1      43.365   2.020  10.249  0.00  0.00    +0.000 HD
ENDBRANCH   9  10
ENDBRANCH   8   9
ENDBRANCH   5   8
ENDBRANCH   1   2
BRANCH   1  20
ATOM     18  C   UNL     1      50.351   8.437  12.622  0.00  0.00    +0.000 C 
ATOM     19  O   UNL     1      51.220   7.920  13.323  0.00  0.00    +0.000 OA
ATOM     20  N   UNL     1      49.027   8.177  12.842  0.00  0.00    +0.000 N 
ATOM     21  H   UNL     1      48.316   8.586  12.248  0.00  0.00    +0.000 HD
BRANCH  18  29
ATOM     22  C   UNL     1      52.723   8.360  10.114  0.00  0.00    +0.000 A 
ATOM     23  N   UNL     1      53.564   8.609   9.088  0.00  0.00    +0.000 NA
ATOM     24  C   UNL     1      53.411   9.752   8.414  0.00  0.00    +0.000 A 
ATOM     25  N   UNL     1      52.502  10.696   8.636  0.00  0.00    +0.000 NA
ATOM     26  C   UNL     1      51.697  10.416   9.674  0.00  0.00    +0.000 A 
ATOM     27  S   UNL     1      50.471  11.511  10.098  0.00  0.00    +0.000 S 
ATOM     28  C   UNL     1      49.968  10.523  11.384  0.00  0.00    +0.000 A 
ATOM     29  C   UNL     1      50.705   9.351  11.523  0.00  0.00    +0.000 A 
ATOM     30  C   UNL     1      51.733   9.284  10.486  0.00  0.00    +0.000 A 
BRANCH  22  32
ATOM     31  C   UNL     1      53.507   6.165  10.022  0.00  0.00    +0.000 C 
ATOM     32  O   UNL     1      52.879   7.177  10.808  0.00  0.00    +0.000 OA
ENDBRANCH  22  32
ENDBRANCH  18  29
ENDBRANCH   1  20
TORSDOF 7
ENDMDL
MODEL 8
REMARK VINA RESULT:    -5.988      5.779      8.531
REMARK INTER + INTRA:          -9.492
REMARK INTER:                  -8.359
REMARK INTRA:                  -1.133
REMARK UNBOUND:                -1.054
REMARK  Name = 
REMARK  8 active torsions:
REMARK  status: ('A' for Active; 'I' for Inactive)
REMARK    1  A    between atoms: C_1  and  O_2
REMARK    2  A    between atoms: O_2  and  C_3
REMARK    3  A    between atoms: C_10  and  C_11
REMARK    4  A    between atoms: N_13  and  C_14
REMARK    5  A    between atoms: C_14  and  C_15
REMARK    6  A    between atoms: C_18  and  C_19
REMARK    7  A    between atoms: C_19  and  C_20
REMARK    8  A    between atoms: C_20  and  N_21
REMARK                            x       y       z     vdW  Elec       q    Type
REMARK                         _______ _______ _______ _____ _____    ______ ____
ROOT
ATOM      1  C   UNL     1      51.611   8.431  11.796  0.00  0.00    +0.000 C 
ENDROOT
BRANCH   1   2
ATOM      2  C   UNL     1      50.120   8.500  12.002  0.00  0.00    +0.000 A 
ATOM      3  C   UNL     1      49.555   9.589  12.675  0.00  0.00    +0.000 A 
ATOM      4  C   UNL     1      48.184   9.629  12.940  0.00  0.00    +0.000 A 
ATOM      5  C   UNL     1      47.339   8.580  12.552  0.00  0.00    +0.000 A 
ATOM      6  C   UNL     1      47.906   7.504  11.852  0.00  0.00    +0.000 A 
ATOM      7  C   UNL     1      49.281   7.461  11.585  0.00  0.00    +0.000 A 
BRANCH   5   8
ATOM      8  C   UNL     1      45.852   8.548  12.870  0.00  0.00    +0.000 C 
BRANCH   8   9
ATOM      9  C   UNL     1      45.015   7.613  11.987  0.00  0.00    +0.000 C 
BRANCH   9  10
ATOM     10  N   UNL     1      44.335   6.576  12.770  0.00  0.00    +0.000 N 
ATOM     11  C   UNL     1      44.202   5.370  12.043  0.00  0.00    +0.000 A 
ATOM     12  C   UNL     1      43.572   4.290  12.657  0.00  0.00    +0.000 A 
ATOM     13  C   UNL     1      43.446   3.086  11.964  0.00  0.00    +0.000 A 
ATOM     14  C   UNL     1      43.951   2.985  10.675  0.00  0.00    +0.000 A 
ATOM     15  C   UNL     1      44.568   4.097  10.139  0.00  0.00    +0.000 A 
ATOM     16  N   UNL     1      44.704   5.271  10.794  0.00  0.00    +0.000 NA
ATOM     17  H   UNL     1      43.406   6.865  13.071  0.00  0.00    +0.000 HD
ENDBRANCH   9  10
ENDBRANCH   8   9
ENDBRANCH   5   8
ENDBRANCH   1   2
BRANCH   1  20
ATOM     18  C   UNL     1      52.732   8.797   9.645  0.00  0.00    +0.000 C 
ATOM     19  O   UNL     1      53.195   9.861  10.051  0.00  0.00    +0.000 OA
ATOM     20  N   UNL     1      51.930   8.031  10.445  0.00  0.00    +0.000 N 
ATOM     21  H   UNL     1      51.570   7.144  10.115  0.00  0.00    +0.000 HD
BRANCH  18  29
ATOM     22  C   UNL     1      53.615   5.723   8.343  0.00  0.00    +0.000 A 
ATOM     23  N   UNL     1      54.006   4.677   7.585  0.00  0.00    +0.000 NA
ATOM     24  C   UNL     1      54.171   4.876   6.275  0.00  0.00    +0.000 A 
ATOM     25  N   UNL     1      53.985   6.011   5.609  0.00  0.00    +0.000 NA
ATOM     26  C   UNL     1      53.611   7.029   6.402  0.00  0.00    +0.000 A 
ATOM     27  S   UNL     1      53.323   8.555   5.717  0.00  0.00    +0.000 S 
ATOM     28  C   UNL     1      52.946   9.217   7.235  0.00  0.00    +0.000 A 
ATOM     29  C   UNL     1      53.026   8.309   8.287  0.00  0.00    +0.000 A 
ATOM     30  C   UNL     1      53.412   6.994   7.779  0.00  0.00    +0.000 A 
BRANCH  22  32
ATOM     31  C   UNL     1      54.676   5.517  10.409  0.00  0.00    +0.000 C 
ATOM     32  O   UNL     1      53.441   5.515   9.696  0.00  0.00    +0.000 OA
ENDBRANCH  22  32
ENDBRANCH  18  29
ENDBRANCH   1  20
TORSDOF 7
ENDMDL
MODEL 9
REMARK VINA RESULT:    -5.889      5.659      8.436
REMARK INTER + INTRA:          -9.353
REMARK INTER:                  -8.323
REMARK INTRA:                  -1.030
REMARK UNBOUND:                -1.054
REMARK  Name = 
REMARK  8 active torsions:
REMARK  status: ('A' for Active; 'I' for Inactive)
REMARK    1  A    between atoms: C_1  and  O_2
REMARK    2  A    between atoms: O_2  and  C_3
REMARK    3  A    between atoms: C_10  and  C_11
REMARK    4  A    between atoms: N_13  and  C_14
REMARK    5  A    between atoms: C_14  and  C_15
REMARK    6  A    between atoms: C_18  and  C_19
REMARK    7  A    between atoms: C_19  and  C_20
REMARK    8  A    between atoms: C_20  and  N_21
REMARK                            x       y       z     vdW  Elec       q    Type
REMARK                         _______ _______ _______ _____ _____    ______ ____
ROOT
ATOM      1  C   UNL     1      51.531   9.536  10.779  0.00  0.00    +0.000 C 
ENDROOT
BRANCH   1   2
ATOM      2  C   UNL     1      50.141   9.231  11.273  0.00  0.00    +0.000 A 
ATOM      3  C   UNL     1      49.204  10.260  11.410  0.00  0.00    +0.000 A 
ATOM      4  C   UNL     1      47.936  10.005  11.938  0.00  0.00    +0.000 A 
ATOM      5  C   UNL     1      47.570   8.717  12.356  0.00  0.00    +0.000 A 
ATOM      6  C   UNL     1      48.504   7.683  12.190  0.00  0.00    +0.000 A 
ATOM      7  C   UNL     1      49.775   7.937  11.660  0.00  0.00    +0.000 A 
BRANCH   5   8
ATOM      8  C   UNL     1      46.227   8.400  12.994  0.00  0.00    +0.000 C 
BRANCH   8   9
ATOM      9  C   UNL     1      45.273   7.566  12.127  0.00  0.00    +0.000 C 
BRANCH   9  10
ATOM     10  N   UNL     1      44.546   6.565  12.914  0.00  0.00    +0.000 N 
ATOM     11  C   UNL     1      44.341   5.370  12.184  0.00  0.00    +0.000 A 
ATOM     12  C   UNL     1      43.660   4.324  12.801  0.00  0.00    +0.000 A 
ATOM     13  C   UNL     1      43.462   3.130  12.105  0.00  0.00    +0.000 A 
ATOM     14  C   UNL     1      43.947   3.007  10.811  0.00  0.00    +0.000 A 
ATOM     15  C   UNL     1      44.618   4.087  10.272  0.00  0.00    +0.000 A 
ATOM     16  N   UNL     1      44.824   5.249  10.930  0.00  0.00    +0.000 NA
ATOM     17  H   UNL     1      43.638   6.902  13.225  0.00  0.00    +0.000 HD
ENDBRANCH   9  10
ENDBRANCH   8   9
ENDBRANCH   5   8
ENDBRANCH   1   2
BRANCH   1  20
ATOM     18  C   UNL     1      53.475   8.067  10.490  0.00  0.00    +0.000 C 
ATOM     19  O   UNL     1      54.164   8.822  11.174  0.00  0.00    +0.000 OA
ATOM     20  N   UNL     1      52.161   8.352  10.240  0.00  0.00    +0.000 N 
ATOM     21  H   UNL     1      51.591   7.716   9.696  0.00  0.00    +0.000 HD
BRANCH  18  29
ATOM     22  C   UNL     1      53.126   6.453   7.458  0.00  0.00    +0.000 A 
ATOM     23  N   UNL     1      53.140   5.604   6.409  0.00  0.00    +0.000 NA
ATOM     24  C   UNL     1      53.884   4.500   6.502  0.00  0.00    +0.000 A 
ATOM     25  N   UNL     1      54.639   4.129   7.532  0.00  0.00    +0.000 NA
ATOM     26  C   UNL     1      54.585   4.992   8.560  0.00  0.00    +0.000 A 
ATOM     27  S   UNL     1      55.494   4.680   9.959  0.00  0.00    +0.000 S 
ATOM     28  C   UNL     1      54.920   6.093  10.704  0.00  0.00    +0.000 A 
ATOM     29  C   UNL     1      54.038   6.831   9.921  0.00  0.00    +0.000 A 
ATOM     30  C   UNL     1      53.851   6.173   8.629  0.00  0.00    +0.000 A 
BRANCH  22  32
ATOM     31  C   UNL     1      52.784   8.443   6.293  0.00  0.00    +0.000 C 
ATOM     32  O   UNL     1      52.360   7.596   7.359  0.00  0.00    +0.000 OA
ENDBRANCH  22  32
ENDBRANCH  18  29
ENDBRANCH   1  20
TORSDOF 7
ENDMDL
