MODEL 1
REMARK VINA RESULT:    -7.388      0.000      0.000
REMARK INTER + INTRA:         -11.419
REMARK INTER:                 -10.411
REMARK INTRA:                  -1.008
REMARK UNBOUND:                -1.008
REMARK  Name = 
REMARK  7 active torsions:
REMARK  status: ('A' for Active; 'I' for Inactive)
REMARK    1  A    between atoms: C_2  and  C_20
REMARK    2  A    between atoms: N_3  and  C_4
REMARK    3  A    between atoms: C_4  and  C_5
REMARK    4  A    between atoms: C_8  and  C_9
REMARK    5  A    between atoms: C_9  and  N_10
REMARK    6  A    between atoms: N_10  and  C_11
REMARK    7  A    between atoms: C_11  and  C_12
REMARK                            x       y       z     vdW  Elec       q    Type
REMARK                         _______ _______ _______ _____ _____    ______ ____
ROOT
ATOM      1  C   UNL     1      46.521   4.752  14.183  0.00  0.00    +0.000 A 
ATOM      2  C   UNL     1      47.297   5.849  13.810  0.00  0.00    +0.000 A 
ATOM      3  C   UNL     1      47.165   6.387  12.533  0.00  0.00    +0.000 A 
ATOM      4  C   UNL     1      46.301   5.778  11.622  0.00  0.00    +0.000 A 
ATOM      5  N   UNL     1      45.536   4.714  11.972  0.00  0.00    +0.000 NA
ATOM      6  C   UNL     1      45.662   4.228  13.229  0.00  0.00    +0.000 A 
ENDROOT
BRANCH   1   7
ATOM      7  C   UNL     1      46.631   4.134  15.543  0.00  0.00    +0.000 C 
BRANCH   7  10
ATOM      8  O   UNL     1      47.566   4.894  18.080  0.00  0.00    +0.000 OA
ATOM      9  C   UNL     1      48.370   4.454  17.261  0.00  0.00    +0.000 C 
ATOM     10  N   UNL     1      47.998   4.090  15.995  0.00  0.00    +0.000 N 
ATOM     11  H   UNL     1      48.649   3.568  15.416  0.00  0.00    +0.000 HD
BRANCH   9  12
ATOM     12  C   UNL     1      49.803   4.345  17.574  0.00  0.00    +0.000 A 
ATOM     13  C   UNL     1      50.487   5.456  18.053  0.00  0.00    +0.000 A 
ATOM     14  S   UNL     1      52.145   5.171  18.328  0.00  0.00    +0.000 S 
ATOM     15  C   UNL     1      51.997   3.540  17.870  0.00  0.00    +0.000 A 
ATOM     16  N   UNL     1      53.072   2.704  17.905  0.00  0.00    +0.000 NA
ATOM     17  C   UNL     1      52.808   1.483  17.579  0.00  0.00    +0.000 A 
ATOM     18  N   UNL     1      51.573   1.023  17.206  0.00  0.00    +0.000 N 
ATOM     19  C   UNL     1      50.477   1.847  17.079  0.00  0.00    +0.000 A 
ATOM     20  O   UNL     1      49.420   1.431  16.617  0.00  0.00    +0.000 OA
ATOM     21  C   UNL     1      50.707   3.222  17.485  0.00  0.00    +0.000 A 
ATOM     22  H   UNL     1      51.440   0.060  16.935  0.00  0.00    +0.000 HD
ENDBRANCH   9  12
ENDBRANCH   7  10
ENDBRANCH   1   7
BRANCH   4  23
ATOM     23  C   UNL     1      46.131   6.276  10.196  0.00  0.00    +0.000 C 
BRANCH  23  24
ATOM     24  N   UNL     1      45.467   5.385   9.229  0.00  0.00    +0.000 NA
ATOM     25  H   UNL     1      44.747   5.912   8.749  0.00  0.00    +0.000 HD
BRANCH  24  26
ATOM     26  C   UNL     1      46.384   4.747   8.286  0.00  0.00    +0.000 C 
BRANCH  26  27
ATOM     27  C   UNL     1      45.644   3.738   7.375  0.00  0.00    +0.000 C 
ATOM     28  C   UNL     1      44.727   2.821   8.207  0.00  0.00    +0.000 C 
ATOM     29  C   UNL     1      45.512   1.744   8.960  0.00  0.00    +0.000 C 
ATOM     30  N   UNL     1      46.306   0.924   8.045  0.00  0.00    +0.000 NA
ATOM     31  C   UNL     1      47.257   1.745   7.296  0.00  0.00    +0.000 C 
ATOM     32  C   UNL     1      46.568   2.859   6.508  0.00  0.00    +0.000 C 
ATOM     33  H   UNL     1      45.677   0.466   7.382  0.00  0.00    +0.000 HD
ENDBRANCH  26  27
ENDBRANCH  24  26
ENDBRANCH  23  24
ENDBRANCH   4  23
TORSDOF 7
ENDMDL
MODEL 2
REMARK VINA RESULT:    -7.262      2.406      3.128
REMARK INTER + INTRA:         -11.241
REMARK INTER:                 -10.028
REMARK INTRA:                  -1.213
REMARK UNBOUND:                -1.008
REMARK  Name = 
REMARK  7 active torsions:
REMARK  status: ('A' for Active; 'I' for Inactive)
REMARK    1  A    between atoms: C_2  and  C_20
REMARK    2  A    between atoms: N_3  and  C_4
REMARK    3  A    between atoms: C_4  and  C_5
REMARK    4  A    between atoms: C_8  and  C_9
REMARK    5  A    between atoms: C_9  and  N_10
REMARK    6  A    between atoms: N_10  and  C_11
REMARK    7  A    between atoms: C_11  and  C_12
REMARK                            x       y       z     vdW  Elec       q    Type
REMARK                         _______ _______ _______ _____ _____    ______ ____
ROOT
ATOM      1  C   UNL     1      46.493   6.743  12.387  0.00  0.00    +0.000 A 
ATOM      2  C   UNL     1      46.671   6.675  11.006  0.00  0.00    +0.000 A 
ATOM      3  C   UNL     1      45.833   5.869  10.240  0.00  0.00    +0.000 A 
ATOM      4  C   UNL     1      44.867   5.089  10.876  0.00  0.00    +0.000 A 
ATOM      5  N   UNL     1      44.679   5.148  12.218  0.00  0.00    +0.000 NA
ATOM      6  C   UNL     1      45.487   5.962  12.937  0.00  0.00    +0.000 A 
ENDROOT
BRANCH   1   7
ATOM      7  C   UNL     1      47.371   7.591  13.255  0.00  0.00    +0.000 C 
BRANCH   7  10
ATOM      8  O   UNL     1      49.896   7.093  14.380  0.00  0.00    +0.000 OA
ATOM      9  C   UNL     1      48.893   6.777  15.016  0.00  0.00    +0.000 C 
ATOM     10  N   UNL     1      47.628   6.959  14.524  0.00  0.00    +0.000 N 
ATOM     11  H   UNL     1      46.833   6.854  15.146  0.00  0.00    +0.000 HD
BRANCH   9  12
ATOM     12  C   UNL     1      48.991   6.124  16.330  0.00  0.00    +0.000 A 
ATOM     13  C   UNL     1      49.699   6.743  17.353  0.00  0.00    +0.000 A 
ATOM     14  S   UNL     1      49.748   5.837  18.796  0.00  0.00    +0.000 S 
ATOM     15  C   UNL     1      48.781   4.611  18.123  0.00  0.00    +0.000 A 
ATOM     16  N   UNL     1      48.417   3.524  18.860  0.00  0.00    +0.000 NA
ATOM     17  C   UNL     1      47.643   2.696  18.242  0.00  0.00    +0.000 A 
ATOM     18  N   UNL     1      47.210   2.846  16.950  0.00  0.00    +0.000 N 
ATOM     19  C   UNL     1      47.616   3.885  16.144  0.00  0.00    +0.000 A 
ATOM     20  O   UNL     1      47.318   3.920  14.955  0.00  0.00    +0.000 OA
ATOM     21  C   UNL     1      48.447   4.874  16.807  0.00  0.00    +0.000 A 
ATOM     22  H   UNL     1      46.628   2.145  16.516  0.00  0.00    +0.000 HD
ENDBRANCH   9  12
ENDBRANCH   7  10
ENDBRANCH   1   7
BRANCH   4  23
ATOM     23  C   UNL     1      43.943   4.150  10.119  0.00  0.00    +0.000 C 
BRANCH  23  24
ATOM     24  N   UNL     1      44.077   4.083   8.654  0.00  0.00    +0.000 NA
ATOM     25  H   UNL     1      44.642   4.867   8.346  0.00  0.00    +0.000 HD
BRANCH  24  26
ATOM     26  C   UNL     1      44.612   2.812   8.167  0.00  0.00    +0.000 C 
BRANCH  26  27
ATOM     27  C   UNL     1      46.153   2.759   8.306  0.00  0.00    +0.000 C 
ATOM     28  C   UNL     1      46.826   3.718   7.307  0.00  0.00    +0.000 C 
ATOM     29  C   UNL     1      46.820   3.167   5.879  0.00  0.00    +0.000 C 
ATOM     30  N   UNL     1      47.477   1.863   5.807  0.00  0.00    +0.000 NA
ATOM     31  C   UNL     1      46.813   0.891   6.676  0.00  0.00    +0.000 C 
ATOM     32  C   UNL     1      46.764   1.353   8.132  0.00  0.00    +0.000 C 
ATOM     33  H   UNL     1      48.447   1.965   6.114  0.00  0.00    +0.000 HD
ENDBRANCH  26  27
ENDBRANCH  24  26
ENDBRANCH  23  24
ENDBRANCH   4  23
TORSDOF 7
ENDMDL
MODEL 3
REMARK VINA RESULT:    -7.114      3.690      8.709
REMARK INTER + INTRA:         -11.033
REMARK INTER:                  -9.596
REMARK INTRA:                  -1.436
REMARK UNBOUND:                -1.008
REMARK  Name = 
REMARK  7 active torsions:
REMARK  status: ('A' for Active; 'I' for Inactive)
REMARK    1  A    between atoms: C_2  and  C_20
REMARK    2  A    between atoms: N_3  and  C_4
REMARK    3  A    between atoms: C_4  and  C_5
REMARK    4  A    between atoms: C_8  and  C_9
REMARK    5  A    between atoms: C_9  and  N_10
REMARK    6  A    between atoms: N_10  and  C_11
REMARK    7  A    between atoms: C_11  and  C_12
REMARK                            x       y       z     vdW  Elec       q    Type
REMARK                         _______ _______ _______ _____ _____    ______ ____
ROOT
ATOM      1  C   UNL     1      48.142   7.833  13.349  0.00  0.00    +0.000 A 
ATOM      2  C   UNL     1      47.724   8.715  14.345  0.00  0.00    +0.000 A 
ATOM      3  C   UNL     1      48.331   8.680  15.598  0.00  0.00    +0.000 A 
ATOM      4  C   UNL     1      49.306   7.717  15.857  0.00  0.00    +0.000 A 
ATOM      5  N   UNL     1      49.728   6.857  14.897  0.00  0.00    +0.000 NA
ATOM      6  C   UNL     1      49.142   6.930  13.678  0.00  0.00    +0.000 A 
ENDROOT
BRANCH   1   7
ATOM      7  C   UNL     1      47.517   7.827  11.987  0.00  0.00    +0.000 C 
BRANCH   7  10
ATOM      8  O   UNL     1      44.738   7.451  12.136  0.00  0.00    +0.000 OA
ATOM      9  C   UNL     1      45.445   6.503  11.803  0.00  0.00    +0.000 C 
ATOM     10  N   UNL     1      46.810   6.598  11.736  0.00  0.00    +0.000 N 
ATOM     11  H   UNL     1      47.338   5.855  11.288  0.00  0.00    +0.000 HD
BRANCH   9  12
ATOM     12  C   UNL     1      44.870   5.181  11.511  0.00  0.00    +0.000 A 
ATOM     13  C   UNL     1      44.122   4.529  12.482  0.00  0.00    +0.000 A 
ATOM     14  S   UNL     1      43.562   2.994  11.997  0.00  0.00    +0.000 S 
ATOM     15  C   UNL     1      44.253   3.169  10.453  0.00  0.00    +0.000 A 
ATOM     16  N   UNL     1      44.115   2.195   9.511  0.00  0.00    +0.000 NA
ATOM     17  C   UNL     1      44.647   2.479   8.369  0.00  0.00    +0.000 A 
ATOM     18  N   UNL     1      45.316   3.640   8.086  0.00  0.00    +0.000 N 
ATOM     19  C   UNL     1      45.548   4.616   9.028  0.00  0.00    +0.000 A 
ATOM     20  O   UNL     1      46.263   5.581   8.781  0.00  0.00    +0.000 OA
ATOM     21  C   UNL     1      44.926   4.370  10.317  0.00  0.00    +0.000 A 
ATOM     22  H   UNL     1      45.734   3.788   7.179  0.00  0.00    +0.000 HD
ENDBRANCH   9  12
ENDBRANCH   7  10
ENDBRANCH   1   7
BRANCH   4  23
ATOM     23  C   UNL     1      49.986   7.584  17.210  0.00  0.00    +0.000 C 
BRANCH  23  24
ATOM     24  N   UNL     1      49.321   6.767  18.239  0.00  0.00    +0.000 NA
ATOM     25  H   UNL     1      48.319   6.897  18.154  0.00  0.00    +0.000 HD
BRANCH  24  26
ATOM     26  C   UNL     1      49.683   5.352  18.197  0.00  0.00    +0.000 C 
BRANCH  26  27
ATOM     27  C   UNL     1      48.439   4.446  18.367  0.00  0.00    +0.000 C 
ATOM     28  C   UNL     1      48.801   2.969  18.123  0.00  0.00    +0.000 C 
ATOM     29  C   UNL     1      48.973   2.651  16.635  0.00  0.00    +0.000 C 
ATOM     30  N   UNL     1      47.767   2.981  15.876  0.00  0.00    +0.000 NA
ATOM     31  C   UNL     1      47.436   4.400  16.007  0.00  0.00    +0.000 C 
ATOM     32  C   UNL     1      47.246   4.820  17.464  0.00  0.00    +0.000 C 
ATOM     33  H   UNL     1      46.988   2.429  16.240  0.00  0.00    +0.000 HD
ENDBRANCH  26  27
ENDBRANCH  24  26
ENDBRANCH  23  24
ENDBRANCH   4  23
TORSDOF 7
ENDMDL
MODEL 4
REMARK VINA RESULT:    -7.054      2.842      3.939
REMARK INTER + INTRA:         -10.948
REMARK INTER:                 -10.121
REMARK INTRA:                  -0.827
REMARK UNBOUND:                -1.008
REMARK  Name = 
REMARK  7 active torsions:
REMARK  status: ('A' for Active; 'I' for Inactive)
REMARK    1  A    between atoms: C_2  and  C_20
REMARK    2  A    between atoms: N_3  and  C_4
REMARK    3  A    between atoms: C_4  and  C_5
REMARK    4  A    between atoms: C_8  and  C_9
REMARK    5  A    between atoms: C_9  and  N_10
REMARK    6  A    between atoms: N_10  and  C_11
REMARK    7  A    between atoms: C_11  and  C_12
REMARK                            x       y       z     vdW  Elec       q    Type
REMARK                         _______ _______ _______ _____ _____    ______ ____
ROOT
ATOM      1  C   UNL     1      46.747   5.913  12.649  0.00  0.00    +0.000 A 
ATOM      2  C   UNL     1      46.125   4.735  13.060  0.00  0.00    +0.000 A 
ATOM      3  C   UNL     1      45.228   4.093  12.210  0.00  0.00    +0.000 A 
ATOM      4  C   UNL     1      44.917   4.676  10.982  0.00  0.00    +0.000 A 
ATOM      5  N   UNL     1      45.518   5.819  10.565  0.00  0.00    +0.000 NA
ATOM      6  C   UNL     1      46.408   6.407  11.398  0.00  0.00    +0.000 A 
ENDROOT
BRANCH   1   7
ATOM      7  C   UNL     1      47.716   6.643  13.528  0.00  0.00    +0.000 C 
BRANCH   7  10
ATOM      8  O   UNL     1      49.877   6.677  15.321  0.00  0.00    +0.000 OA
ATOM      9  C   UNL     1      48.811   6.189  15.690  0.00  0.00    +0.000 C 
ATOM     10  N   UNL     1      47.722   6.107  14.865  0.00  0.00    +0.000 N 
ATOM     11  H   UNL     1      46.817   5.866  15.260  0.00  0.00    +0.000 HD
BRANCH   9  12
ATOM     12  C   UNL     1      48.659   5.603  17.030  0.00  0.00    +0.000 A 
ATOM     13  C   UNL     1      48.857   4.240  17.210  0.00  0.00    +0.000 A 
ATOM     14  S   UNL     1      48.603   3.718  18.813  0.00  0.00    +0.000 S 
ATOM     15  C   UNL     1      48.273   5.303  19.334  0.00  0.00    +0.000 A 
ATOM     16  N   UNL     1      47.995   5.564  20.642  0.00  0.00    +0.000 NA
ATOM     17  C   UNL     1      47.812   6.814  20.908  0.00  0.00    +0.000 A 
ATOM     18  N   UNL     1      47.865   7.825  19.985  0.00  0.00    +0.000 N 
ATOM     19  C   UNL     1      48.063   7.600  18.642  0.00  0.00    +0.000 A 
ATOM     20  O   UNL     1      47.974   8.510  17.826  0.00  0.00    +0.000 OA
ATOM     21  C   UNL     1      48.327   6.215  18.296  0.00  0.00    +0.000 A 
ATOM     22  H   UNL     1      47.684   8.781  20.255  0.00  0.00    +0.000 HD
ENDBRANCH   9  12
ENDBRANCH   7  10
ENDBRANCH   1   7
BRANCH   4  23
ATOM     23  C   UNL     1      43.916   4.064  10.015  0.00  0.00    +0.000 C 
BRANCH  23  24
ATOM     24  N   UNL     1      44.075   4.356   8.580  0.00  0.00    +0.000 NA
ATOM     25  H   UNL     1      44.634   5.197   8.483  0.00  0.00    +0.000 HD
BRANCH  24  26
ATOM     26  C   UNL     1      44.635   3.247   7.810  0.00  0.00    +0.000 C 
BRANCH  26  27
ATOM     27  C   UNL     1      46.138   3.046   8.122  0.00  0.00    +0.000 C 
ATOM     28  C   UNL     1      47.013   3.728   7.054  0.00  0.00    +0.000 C 
ATOM     29  C   UNL     1      47.060   2.934   5.746  0.00  0.00    +0.000 C 
ATOM     30  N   UNL     1      47.545   1.572   5.965  0.00  0.00    +0.000 NA
ATOM     31  C   UNL     1      46.687   0.853   6.908  0.00  0.00    +0.000 C 
ATOM     32  C   UNL     1      46.573   1.572   8.253  0.00  0.00    +0.000 C 
ATOM     33  H   UNL     1      48.490   1.617   6.353  0.00  0.00    +0.000 HD
ENDBRANCH  26  27
ENDBRANCH  24  26
ENDBRANCH  23  24
ENDBRANCH   4  23
TORSDOF 7
ENDMDL
MODEL 5
REMARK VINA RESULT:    -6.994      2.382      3.214
REMARK INTER + INTRA:         -10.864
REMARK INTER:                  -9.926
REMARK INTRA:                  -0.938
REMARK UNBOUND:                -1.008
REMARK  Name = 
REMARK  7 active torsions:
REMARK  status: ('A' for Active; 'I' for Inactive)
REMARK    1  A    between atoms: C_2  and  C_20
REMARK    2  A    between atoms: N_3  and  C_4
REMARK    3  A    between atoms: C_4  and  C_5
REMARK    4  A    between atoms: C_8  and  C_9
REMARK    5  A    between atoms: C_9  and  N_10
REMARK    6  A    between atoms: N_10  and  C_11
REMARK    7  A    between atoms: C_11  and  C_12
REMARK                            x       y       z     vdW  Elec       q    Type
REMARK                         _______ _______ _______ _____ _____    ______ ____
ROOT
ATOM      1  C   UNL     1      47.032   6.126  13.407  0.00  0.00    +0.000 A 
ATOM      2  C   UNL     1      46.276   6.630  12.349  0.00  0.00    +0.000 A 
ATOM      3  C   UNL     1      45.127   5.958  11.938  0.00  0.00    +0.000 A 
ATOM      4  C   UNL     1      44.786   4.753  12.551  0.00  0.00    +0.000 A 
ATOM      5  N   UNL     1      45.508   4.253  13.585  0.00  0.00    +0.000 NA
ATOM      6  C   UNL     1      46.604   4.940  13.985  0.00  0.00    +0.000 A 
ENDROOT
BRANCH   1   7
ATOM      7  C   UNL     1      48.278   6.809  13.882  0.00  0.00    +0.000 C 
BRANCH   7  10
ATOM      8  O   UNL     1      50.559   7.432  15.397  0.00  0.00    +0.000 OA
ATOM      9  C   UNL     1      49.524   7.127  15.986  0.00  0.00    +0.000 C 
ATOM     10  N   UNL     1      48.380   6.780  15.319  0.00  0.00    +0.000 N 
ATOM     11  H   UNL     1      47.507   6.711  15.833  0.00  0.00    +0.000 HD
BRANCH   9  12
ATOM     12  C   UNL     1      49.468   7.055  17.453  0.00  0.00    +0.000 A 
ATOM     13  C   UNL     1      49.588   8.219  18.202  0.00  0.00    +0.000 A 
ATOM     14  S   UNL     1      49.541   7.956  19.886  0.00  0.00    +0.000 S 
ATOM     15  C   UNL     1      49.305   6.285  19.673  0.00  0.00    +0.000 A 
ATOM     16  N   UNL     1      49.155   5.459  20.747  0.00  0.00    +0.000 NA
ATOM     17  C   UNL     1      48.935   4.224  20.441  0.00  0.00    +0.000 A 
ATOM     18  N   UNL     1      48.865   3.736  19.163  0.00  0.00    +0.000 N 
ATOM     19  C   UNL     1      49.089   4.517  18.052  0.00  0.00    +0.000 A 
ATOM     20  O   UNL     1      49.149   4.025  16.931  0.00  0.00    +0.000 OA
ATOM     21  C   UNL     1      49.290   5.927  18.338  0.00  0.00    +0.000 A 
ATOM     22  H   UNL     1      48.718   2.752  18.993  0.00  0.00    +0.000 HD
ENDBRANCH   9  12
ENDBRANCH   7  10
ENDBRANCH   1   7
BRANCH   4  23
ATOM     23  C   UNL     1      43.575   3.936  12.133  0.00  0.00    +0.000 C 
BRANCH  23  24
ATOM     24  N   UNL     1      43.809   2.673  11.412  0.00  0.00    +0.000 NA
ATOM     25  H   UNL     1      42.952   2.409  10.939  0.00  0.00    +0.000 HD
BRANCH  24  26
ATOM     26  C   UNL     1      44.941   2.721  10.488  0.00  0.00    +0.000 C 
BRANCH  26  27
ATOM     27  C   UNL     1      44.476   2.556   9.020  0.00  0.00    +0.000 C 
ATOM     28  C   UNL     1      45.100   1.298   8.388  0.00  0.00    +0.000 C 
ATOM     29  C   UNL     1      46.573   1.501   8.021  0.00  0.00    +0.000 C 
ATOM     30  N   UNL     1      46.745   2.631   7.109  0.00  0.00    +0.000 NA
ATOM     31  C   UNL     1      46.246   3.870   7.707  0.00  0.00    +0.000 C 
ATOM     32  C   UNL     1      44.776   3.767   8.113  0.00  0.00    +0.000 C 
ATOM     33  H   UNL     1      46.218   2.447   6.253  0.00  0.00    +0.000 HD
ENDBRANCH  26  27
ENDBRANCH  24  26
ENDBRANCH  23  24
ENDBRANCH   4  23
TORSDOF 7
ENDMDL
MODEL 6
REMARK VINA RESULT:    -6.887      2.866      4.218
REMARK INTER + INTRA:         -10.714
REMARK INTER:                  -9.728
REMARK INTRA:                  -0.985
REMARK UNBOUND:                -1.008
REMARK  Name = 
REMARK  7 active torsions:
REMARK  status: ('A' for Active; 'I' for Inactive)
REMARK    1  A    between atoms: C_2  and  C_20
REMARK    2  A    between atoms: N_3  and  C_4
REMARK    3  A    between atoms: C_4  and  C_5
REMARK    4  A    between atoms: C_8  and  C_9
REMARK    5  A    between atoms: C_9  and  N_10
REMARK    6  A    between atoms: N_10  and  C_11
REMARK    7  A    between atoms: C_11  and  C_12
REMARK                            x       y       z     vdW  Elec       q    Type
REMARK                         _______ _______ _______ _____ _____    ______ ____
ROOT
ATOM      1  C   UNL     1      46.667   4.317  13.804  0.00  0.00    +0.000 A 
ATOM      2  C   UNL     1      46.688   5.583  13.219  0.00  0.00    +0.000 A 
ATOM      3  C   UNL     1      45.992   5.808  12.034  0.00  0.00    +0.000 A 
ATOM      4  C   UNL     1      45.336   4.744  11.415  0.00  0.00    +0.000 A 
ATOM      5  N   UNL     1      45.302   3.509  11.975  0.00  0.00    +0.000 NA
ATOM      6  C   UNL     1      45.962   3.323  13.142  0.00  0.00    +0.000 A 
ENDROOT
BRANCH   1   7
ATOM      7  C   UNL     1      47.403   4.024  15.075  0.00  0.00    +0.000 C 
BRANCH   7  10
ATOM      8  O   UNL     1      49.577   4.720  16.711  0.00  0.00    +0.000 OA
ATOM      9  C   UNL     1      48.610   5.476  16.661  0.00  0.00    +0.000 C 
ATOM     10  N   UNL     1      47.500   5.193  15.911  0.00  0.00    +0.000 N 
ATOM     11  H   UNL     1      46.807   5.919  15.755  0.00  0.00    +0.000 HD
BRANCH   9  12
ATOM     12  C   UNL     1      48.560   6.713  17.455  0.00  0.00    +0.000 A 
ATOM     13  C   UNL     1      48.569   6.638  18.842  0.00  0.00    +0.000 A 
ATOM     14  S   UNL     1      48.467   8.157  19.609  0.00  0.00    +0.000 S 
ATOM     15  C   UNL     1      48.462   8.971  18.116  0.00  0.00    +0.000 A 
ATOM     16  N   UNL     1      48.416  10.332  18.063  0.00  0.00    +0.000 NA
ATOM     17  C   UNL     1      48.467  10.820  16.869  0.00  0.00    +0.000 A 
ATOM     18  N   UNL     1      48.545  10.074  15.723  0.00  0.00    +0.000 N 
ATOM     19  C   UNL     1      48.514   8.699  15.724  0.00  0.00    +0.000 A 
ATOM     20  O   UNL     1      48.452   8.063  14.677  0.00  0.00    +0.000 OA
ATOM     21  C   UNL     1      48.509   8.097  17.046  0.00  0.00    +0.000 A 
ATOM     22  H   UNL     1      48.553  10.519  14.816  0.00  0.00    +0.000 HD
ENDBRANCH   9  12
ENDBRANCH   7  10
ENDBRANCH   1   7
BRANCH   4  23
ATOM     23  C   UNL     1      44.591   4.894  10.098  0.00  0.00    +0.000 C 
BRANCH  23  24
ATOM     24  N   UNL     1      45.353   5.349   8.923  0.00  0.00    +0.000 NA
ATOM     25  H   UNL     1      45.792   6.235   9.147  0.00  0.00    +0.000 HD
BRANCH  24  26
ATOM     26  C   UNL     1      46.328   4.374   8.437  0.00  0.00    +0.000 C 
BRANCH  26  27
ATOM     27  C   UNL     1      45.733   3.494   7.311  0.00  0.00    +0.000 C 
ATOM     28  C   UNL     1      45.188   2.172   7.882  0.00  0.00    +0.000 C 
ATOM     29  C   UNL     1      46.305   1.182   8.224  0.00  0.00    +0.000 C 
ATOM     30  N   UNL     1      47.138   0.893   7.057  0.00  0.00    +0.000 NA
ATOM     31  C   UNL     1      47.751   2.114   6.533  0.00  0.00    +0.000 C 
ATOM     32  C   UNL     1      46.712   3.172   6.163  0.00  0.00    +0.000 C 
ATOM     33  H   UNL     1      46.551   0.484   6.327  0.00  0.00    +0.000 HD
ENDBRANCH  26  27
ENDBRANCH  24  26
ENDBRANCH  23  24
ENDBRANCH   4  23
TORSDOF 7
ENDMDL
MODEL 7
REMARK VINA RESULT:    -6.863      3.248      4.128
REMARK INTER + INTRA:         -10.679
REMARK INTER:                  -9.164
REMARK INTRA:                  -1.515
REMARK UNBOUND:                -1.008
REMARK  Name = 
REMARK  7 active torsions:
REMARK  status: ('A' for Active; 'I' for Inactive)
REMARK    1  A    between atoms: C_2  and  C_20
REMARK    2  A    between atoms: N_3  and  C_4
REMARK    3  A    between atoms: C_4  and  C_5
REMARK    4  A    between atoms: C_8  and  C_9
REMARK    5  A    between atoms: C_9  and  N_10
REMARK    6  A    between atoms: N_10  and  C_11
REMARK    7  A    between atoms: C_11  and  C_12
REMARK                            x       y       z     vdW  Elec       q    Type
REMARK                         _______ _______ _______ _____ _____    ______ ____
ROOT
ATOM      1  C   UNL     1      47.964   7.950  12.883  0.00  0.00    +0.000 A 
ATOM      2  C   UNL     1      47.646   6.977  11.936  0.00  0.00    +0.000 A 
ATOM      3  C   UNL     1      46.400   6.999  11.313  0.00  0.00    +0.000 A 
ATOM      4  C   UNL     1      45.464   7.960  11.695  0.00  0.00    +0.000 A 
ATOM      5  N   UNL     1      45.761   8.917  12.610  0.00  0.00    +0.000 NA
ATOM      6  C   UNL     1      46.989   8.891  13.179  0.00  0.00    +0.000 A 
ENDROOT
BRANCH   1   7
ATOM      7  C   UNL     1      49.288   7.966  13.584  0.00  0.00    +0.000 C 
BRANCH   7  10
ATOM      8  O   UNL     1      48.804   8.695  16.252  0.00  0.00    +0.000 OA
ATOM      9  C   UNL     1      49.019   7.513  15.992  0.00  0.00    +0.000 C 
ATOM     10  N   UNL     1      49.293   7.083  14.722  0.00  0.00    +0.000 N 
ATOM     11  H   UNL     1      49.286   6.087  14.522  0.00  0.00    +0.000 HD
BRANCH   9  12
ATOM     12  C   UNL     1      49.054   6.489  17.047  0.00  0.00    +0.000 A 
ATOM     13  C   UNL     1      49.692   6.764  18.250  0.00  0.00    +0.000 A 
ATOM     14  S   UNL     1      49.675   5.459  19.347  0.00  0.00    +0.000 S 
ATOM     15  C   UNL     1      48.767   4.500  18.276  0.00  0.00    +0.000 A 
ATOM     16  N   UNL     1      48.381   3.240  18.623  0.00  0.00    +0.000 NA
ATOM     17  C   UNL     1      47.657   2.642  17.737  0.00  0.00    +0.000 A 
ATOM     18  N   UNL     1      47.295   3.181  16.530  0.00  0.00    +0.000 N 
ATOM     19  C   UNL     1      47.729   4.416  16.104  0.00  0.00    +0.000 A 
ATOM     20  O   UNL     1      47.497   4.813  14.968  0.00  0.00    +0.000 OA
ATOM     21  C   UNL     1      48.504   5.153  17.086  0.00  0.00    +0.000 A 
ATOM     22  H   UNL     1      46.750   2.647  15.869  0.00  0.00    +0.000 HD
ENDBRANCH   9  12
ENDBRANCH   7  10
ENDBRANCH   1   7
BRANCH   4  23
ATOM     23  C   UNL     1      44.068   8.027  11.097  0.00  0.00    +0.000 C 
BRANCH  23  24
ATOM     24  N   UNL     1      43.099   6.991  11.491  0.00  0.00    +0.000 NA
ATOM     25  H   UNL     1      42.164   7.372  11.396  0.00  0.00    +0.000 HD
BRANCH  24  26
ATOM     26  C   UNL     1      43.243   5.735  10.757  0.00  0.00    +0.000 C 
BRANCH  26  27
ATOM     27  C   UNL     1      42.894   4.518  11.647  0.00  0.00    +0.000 C 
ATOM     28  C   UNL     1      43.206   4.814  13.125  0.00  0.00    +0.000 C 
ATOM     29  C   UNL     1      44.706   4.751  13.427  0.00  0.00    +0.000 C 
ATOM     30  N   UNL     1      45.268   3.449  13.071  0.00  0.00    +0.000 NA
ATOM     31  C   UNL     1      45.073   3.164  11.649  0.00  0.00    +0.000 C 
ATOM     32  C   UNL     1      43.599   3.206  11.245  0.00  0.00    +0.000 C 
ATOM     33  H   UNL     1      44.795   2.726  13.616  0.00  0.00    +0.000 HD
ENDBRANCH  26  27
ENDBRANCH  24  26
ENDBRANCH  23  24
ENDBRANCH   4  23
TORSDOF 7
ENDMDL
MODEL 8
REMARK VINA RESULT:    -6.841      2.506      3.676
REMARK INTER + INTRA:         -10.649
REMARK INTER:                  -9.747
REMARK INTRA:                  -0.902
REMARK UNBOUND:                -1.008
REMARK  Name = 
REMARK  7 active torsions:
REMARK  status: ('A' for Active; 'I' for Inactive)
REMARK    1  A    between atoms: C_2  and  C_20
REMARK    2  A    between atoms: N_3  and  C_4
REMARK    3  A    between atoms: C_4  and  C_5
REMARK    4  A    between atoms: C_8  and  C_9
REMARK    5  A    between atoms: C_9  and  N_10
REMARK    6  A    between atoms: N_10  and  C_11
REMARK    7  A    between atoms: C_11  and  C_12
REMARK                            x       y       z     vdW  Elec       q    Type
REMARK                         _______ _______ _______ _____ _____    ______ ____
ROOT
ATOM      1  C   UNL     1      47.989   4.110  16.698  0.00  0.00    +0.000 A 
ATOM      2  C   UNL     1      48.519   5.394  16.566  0.00  0.00    +0.000 A 
ATOM      3  C   UNL     1      48.266   6.131  15.413  0.00  0.00    +0.000 A 
ATOM      4  C   UNL     1      47.538   5.548  14.376  0.00  0.00    +0.000 A 
ATOM      5  N   UNL     1      47.011   4.303  14.491  0.00  0.00    +0.000 NA
ATOM      6  C   UNL     1      47.247   3.618  15.635  0.00  0.00    +0.000 A 
ENDROOT
BRANCH   1   7
ATOM      7  C   UNL     1      48.237   3.275  17.916  0.00  0.00    +0.000 C 
BRANCH   7  10
ATOM      8  O   UNL     1      49.859   1.660  16.290  0.00  0.00    +0.000 OA
ATOM      9  C   UNL     1      50.371   2.238  17.246  0.00  0.00    +0.000 C 
ATOM     10  N   UNL     1      49.642   3.018  18.103  0.00  0.00    +0.000 N 
ATOM     11  H   UNL     1      50.128   3.616  18.765  0.00  0.00    +0.000 HD
BRANCH   9  12
ATOM     12  C   UNL     1      51.797   2.078  17.566  0.00  0.00    +0.000 A 
ATOM     13  C   UNL     1      52.336   0.802  17.683  0.00  0.00    +0.000 A 
ATOM     14  S   UNL     1      53.990   0.794  18.096  0.00  0.00    +0.000 S 
ATOM     15  C   UNL     1      54.059   2.493  18.079  0.00  0.00    +0.000 A 
ATOM     16  N   UNL     1      55.227   3.147  18.330  0.00  0.00    +0.000 NA
ATOM     17  C   UNL     1      55.148   4.432  18.238  0.00  0.00    +0.000 A 
ATOM     18  N   UNL     1      54.007   5.125  17.932  0.00  0.00    +0.000 N 
ATOM     19  C   UNL     1      52.788   4.512  17.749  0.00  0.00    +0.000 A 
ATOM     20  O   UNL     1      51.762   5.168  17.607  0.00  0.00    +0.000 OA
ATOM     21  C   UNL     1      52.831   3.062  17.791  0.00  0.00    +0.000 A 
ATOM     22  H   UNL     1      54.007   6.135  17.903  0.00  0.00    +0.000 HD
ENDBRANCH   9  12
ENDBRANCH   7  10
ENDBRANCH   1   7
BRANCH   4  23
ATOM     23  C   UNL     1      47.255   6.268  13.068  0.00  0.00    +0.000 C 
BRANCH  23  24
ATOM     24  N   UNL     1      45.871   6.266  12.564  0.00  0.00    +0.000 NA
ATOM     25  H   UNL     1      45.555   7.226  12.488  0.00  0.00    +0.000 HD
BRANCH  24  26
ATOM     26  C   UNL     1      45.701   5.543  11.304  0.00  0.00    +0.000 C 
BRANCH  26  27
ATOM     27  C   UNL     1      44.204   5.303  10.990  0.00  0.00    +0.000 C 
ATOM     28  C   UNL     1      43.465   4.767  12.229  0.00  0.00    +0.000 C 
ATOM     29  C   UNL     1      43.766   3.289  12.492  0.00  0.00    +0.000 C 
ATOM     30  N   UNL     1      43.425   2.461  11.336  0.00  0.00    +0.000 NA
ATOM     31  C   UNL     1      44.176   2.879  10.151  0.00  0.00    +0.000 C 
ATOM     32  C   UNL     1      43.943   4.350   9.806  0.00  0.00    +0.000 C 
ATOM     33  H   UNL     1      42.427   2.561  11.141  0.00  0.00    +0.000 HD
ENDBRANCH  26  27
ENDBRANCH  24  26
ENDBRANCH  23  24
ENDBRANCH   4  23
TORSDOF 7
ENDMDL
MODEL 9
REMARK VINA RESULT:    -6.714      3.779      8.600
REMARK INTER + INTRA:         -10.469
REMARK INTER:                  -9.140
REMARK INTRA:                  -1.328
REMARK UNBOUND:                -1.008
REMARK  Name = 
REMARK  7 active torsions:
REMARK  status: ('A' for Active; 'I' for Inactive)
REMARK    1  A    between atoms: C_2  and  C_20
REMARK    2  A    between atoms: N_3  and  C_4
REMARK    3  A    between atoms: C_4  and  C_5
REMARK    4  A    between atoms: C_8  and  C_9
REMARK    5  A    between atoms: C_9  and  N_10
REMARK    6  A    between atoms: N_10  and  C_11
REMARK    7  A    between atoms: C_11  and  C_12
REMARK                            x       y       z     vdW  Elec       q    Type
REMARK                         _______ _______ _______ _____ _____    ______ ____
ROOT
ATOM      1  C   UNL     1      48.494   8.089  13.513  0.00  0.00    +0.000 A 
ATOM      2  C   UNL     1      49.411   7.135  13.952  0.00  0.00    +0.000 A 
ATOM      3  C   UNL     1      49.672   7.002  15.313  0.00  0.00    +0.000 A 
ATOM      4  C   UNL     1      49.058   7.873  16.213  0.00  0.00    +0.000 A 
ATOM      5  N   UNL     1      48.160   8.802  15.802  0.00  0.00    +0.000 NA
ATOM      6  C   UNL     1      47.901   8.891  14.477  0.00  0.00    +0.000 A 
ENDROOT
BRANCH   1   7
ATOM      7  C   UNL     1      48.182   8.274  12.059  0.00  0.00    +0.000 C 
BRANCH   7  10
ATOM      8  O   UNL     1      45.407   7.989  11.735  0.00  0.00    +0.000 OA
ATOM      9  C   UNL     1      46.142   7.076  11.363  0.00  0.00    +0.000 C 
ATOM     10  N   UNL     1      47.502   7.126  11.515  0.00  0.00    +0.000 N 
ATOM     11  H   UNL     1      48.081   6.442  11.037  0.00  0.00    +0.000 HD
BRANCH   9  12
ATOM     12  C   UNL     1      45.598   5.839  10.784  0.00  0.00    +0.000 A 
ATOM     13  C   UNL     1      45.856   5.532   9.454  0.00  0.00    +0.000 A 
ATOM     14  S   UNL     1      45.120   4.085   8.932  0.00  0.00    +0.000 S 
ATOM     15  C   UNL     1      44.476   3.790  10.478  0.00  0.00    +0.000 A 
ATOM     16  N   UNL     1      43.743   2.669  10.727  0.00  0.00    +0.000 NA
ATOM     17  C   UNL     1      43.357   2.547  11.953  0.00  0.00    +0.000 A 
ATOM     18  N   UNL     1      43.624   3.448  12.950  0.00  0.00    +0.000 N 
ATOM     19  C   UNL     1      44.291   4.630  12.728  0.00  0.00    +0.000 A 
ATOM     20  O   UNL     1      44.399   5.475  13.610  0.00  0.00    +0.000 OA
ATOM     21  C   UNL     1      44.793   4.794  11.375  0.00  0.00    +0.000 A 
ATOM     22  H   UNL     1      43.267   3.305  13.884  0.00  0.00    +0.000 HD
ENDBRANCH   9  12
ENDBRANCH   7  10
ENDBRANCH   1   7
BRANCH   4  23
ATOM     23  C   UNL     1      49.323   7.824  17.710  0.00  0.00    +0.000 C 
BRANCH  23  24
ATOM     24  N   UNL     1      48.572   6.843  18.511  0.00  0.00    +0.000 NA
ATOM     25  H   UNL     1      47.635   6.767  18.131  0.00  0.00    +0.000 HD
BRANCH  24  26
ATOM     26  C   UNL     1      49.220   5.537  18.607  0.00  0.00    +0.000 C 
BRANCH  26  27
ATOM     27  C   UNL     1      48.181   4.390  18.604  0.00  0.00    +0.000 C 
ATOM     28  C   UNL     1      48.874   3.025  18.438  0.00  0.00    +0.000 C 
ATOM     29  C   UNL     1      49.325   2.774  16.996  0.00  0.00    +0.000 C 
ATOM     30  N   UNL     1      48.203   2.859  16.063  0.00  0.00    +0.000 NA
ATOM     31  C   UNL     1      47.568   4.176  16.122  0.00  0.00    +0.000 C 
ATOM     32  C   UNL     1      47.082   4.522  17.530  0.00  0.00    +0.000 C 
ATOM     33  H   UNL     1      47.510   2.151  16.315  0.00  0.00    +0.000 HD
ENDBRANCH  26  27
ENDBRANCH  24  26
ENDBRANCH  23  24
ENDBRANCH   4  23
TORSDOF 7
ENDMDL
