MODEL 1
REMARK VINA RESULT:    -7.872      0.000      0.000
REMARK INTER + INTRA:         -11.105
REMARK INTER:                 -10.633
REMARK INTRA:                  -0.472
REMARK UNBOUND:                -0.472
REMARK  Name = 
REMARK  7 active torsions:
REMARK  status: ('A' for Active; 'I' for Inactive)
REMARK    1  A    between atoms: N_1  and  C_2
REMARK    2  A    between atoms: C_2  and  C_3
REMARK    3  A    between atoms: C_6  and  C_7
REMARK    4  A    between atoms: C_7  and  O_8
REMARK    5  A    between atoms: O_8  and  C_9
REMARK    6  A    between atoms: CA_12  and  C_13
REMARK    7  A    between atoms: C_13  and  OXT_15
REMARK                            x       y       z     vdW  Elec       q    Type
REMARK                         _______ _______ _______ _____ _____    ______ ____
ROOT
ATOM      1  C   UNL     1      43.790   4.350  10.116  0.00  0.00    +0.000 C 
ENDROOT
BRANCH   1   5
ATOM      2  C   UNL     1      46.620   2.310   7.544  0.00  0.00    +0.000 A 
ATOM      3  C   UNL     1      45.831   1.579   8.440  0.00  0.00    +0.000 A 
ATOM      4  C   UNL     1      44.911   2.228   9.269  0.00  0.00    +0.000 A 
ATOM      5  C   UNL     1      44.767   3.622   9.220  0.00  0.00    +0.000 A 
ATOM      6  C   UNL     1      45.536   4.345   8.299  0.00  0.00    +0.000 A 
ATOM      7  C   UNL     1      46.451   3.698   7.469  0.00  0.00    +0.000 A 
BRANCH   2   8
ATOM      8  C   UNL     1      47.671   1.625   6.709  0.00  0.00    +0.000 C 
BRANCH   8   9
ATOM      9  N   UNL     1      48.721   2.559   6.324  0.00  0.00    +0.000 NA
ATOM     10  H   UNL     1      48.810   2.559   5.311  0.00  0.00    +0.000 HD
ATOM     11  H   UNL     1      49.607   2.224   6.700  0.00  0.00    +0.000 HD
ENDBRANCH   8   9
ENDBRANCH   2   8
ENDBRANCH   1   5
BRANCH   1  12
ATOM     12  O   UNL     1      44.422   5.502  10.674  0.00  0.00    +0.000 OA
BRANCH  12  13
ATOM     13  C   UNL     1      45.252   5.313  11.744  0.00  0.00    +0.000 A 
ATOM     14  C   UNL     1      46.405   6.024  12.047  0.00  0.00    +0.000 A 
ATOM     15  C   UNL     1      47.113   5.727  13.230  0.00  0.00    +0.000 A 
ATOM     16  CA  UNL     1      46.635   4.715  14.076  0.00  0.00    +0.000 A 
ATOM     17  N   UNL     1      45.515   3.996  13.794  0.00  0.00    +0.000 NA
ATOM     18  C   UNL     1      44.866   4.318  12.640  0.00  0.00    +0.000 A 
BRANCH  16  19
ATOM     19  C   UNL     1      47.320   4.351  15.378  0.00  0.00    +0.000 C 
ATOM     20  O   UNL     1      47.657   3.223  15.642  0.00  0.00    +0.000 OA
BRANCH  19  21
ATOM     21  OXT UNL     1      47.532   5.390  16.227  0.00  0.00    +0.000 OA
ATOM     22  HXT UNL     1      47.150   5.290  17.120  0.00  0.00    +0.000 HD
ENDBRANCH  19  21
ENDBRANCH  16  19
ENDBRANCH  12  13
ENDBRANCH   1  12
TORSDOF 7
ENDMDL
MODEL 2
REMARK VINA RESULT:    -7.768      2.909      6.253
REMARK INTER + INTRA:         -10.965
REMARK INTER:                 -10.387
REMARK INTRA:                  -0.577
REMARK UNBOUND:                -0.472
REMARK  Name = 
REMARK  7 active torsions:
REMARK  status: ('A' for Active; 'I' for Inactive)
REMARK    1  A    between atoms: N_1  and  C_2
REMARK    2  A    between atoms: C_2  and  C_3
REMARK    3  A    between atoms: C_6  and  C_7
REMARK    4  A    between atoms: C_7  and  O_8
REMARK    5  A    between atoms: O_8  and  C_9
REMARK    6  A    between atoms: CA_12  and  C_13
REMARK    7  A    between atoms: C_13  and  OXT_15
REMARK                            x       y       z     vdW  Elec       q    Type
REMARK                         _______ _______ _______ _____ _____    ______ ____
ROOT
ATOM      1  C   UNL     1      43.612   4.289  11.291  0.00  0.00    +0.000 C 
ENDROOT
BRANCH   1   5
ATOM      2  C   UNL     1      47.068   6.093  13.186  0.00  0.00    +0.000 A 
ATOM      3  C   UNL     1      46.329   6.812  12.239  0.00  0.00    +0.000 A 
ATOM      4  C   UNL     1      45.209   6.242  11.628  0.00  0.00    +0.000 A 
ATOM      5  C   UNL     1      44.810   4.935  11.948  0.00  0.00    +0.000 A 
ATOM      6  C   UNL     1      45.534   4.232  12.920  0.00  0.00    +0.000 A 
ATOM      7  C   UNL     1      46.648   4.803  13.534  0.00  0.00    +0.000 A 
BRANCH   2   8
ATOM      8  C   UNL     1      48.322   6.673  13.786  0.00  0.00    +0.000 C 
BRANCH   8   9
ATOM      9  N   UNL     1      49.418   6.646  12.827  0.00  0.00    +0.000 NA
ATOM     10  H   UNL     1      49.065   6.913  11.911  0.00  0.00    +0.000 HD
ATOM     11  H   UNL     1      49.755   5.687  12.746  0.00  0.00    +0.000 HD
ENDBRANCH   8   9
ENDBRANCH   2   8
ENDBRANCH   1   5
BRANCH   1  12
ATOM     12  O   UNL     1      43.659   4.518   9.882  0.00  0.00    +0.000 OA
BRANCH  12  13
ATOM     13  C   UNL     1      44.546   3.779   9.151  0.00  0.00    +0.000 A 
ATOM     14  C   UNL     1      45.454   4.248   8.210  0.00  0.00    +0.000 A 
ATOM     15  C   UNL     1      46.337   3.344   7.586  0.00  0.00    +0.000 A 
ATOM     16  CA  UNL     1      46.279   1.985   7.931  0.00  0.00    +0.000 A 
ATOM     17  N   UNL     1      45.390   1.500   8.840  0.00  0.00    +0.000 NA
ATOM     18  C   UNL     1      44.556   2.411   9.414  0.00  0.00    +0.000 A 
BRANCH  16  19
ATOM     19  C   UNL     1      47.209   0.951   7.328  0.00  0.00    +0.000 C 
ATOM     20  O   UNL     1      48.078   1.239   6.541  0.00  0.00    +0.000 OA
BRANCH  19  21
ATOM     21  OXT UNL     1      46.995  -0.325   7.740  0.00  0.00    +0.000 OA
ATOM     22  HXT UNL     1      47.781  -0.905   7.744  0.00  0.00    +0.000 HD
ENDBRANCH  19  21
ENDBRANCH  16  19
ENDBRANCH  12  13
ENDBRANCH   1  12
TORSDOF 7
ENDMDL
MODEL 3
REMARK VINA RESULT:    -7.419      1.175      1.572
REMARK INTER + INTRA:         -10.493
REMARK INTER:                  -9.901
REMARK INTRA:                  -0.592
REMARK UNBOUND:                -0.472
REMARK  Name = 
REMARK  7 active torsions:
REMARK  status: ('A' for Active; 'I' for Inactive)
REMARK    1  A    between atoms: N_1  and  C_2
REMARK    2  A    between atoms: C_2  and  C_3
REMARK    3  A    between atoms: C_6  and  C_7
REMARK    4  A    between atoms: C_7  and  O_8
REMARK    5  A    between atoms: O_8  and  C_9
REMARK    6  A    between atoms: CA_12  and  C_13
REMARK    7  A    between atoms: C_13  and  OXT_15
REMARK                            x       y       z     vdW  Elec       q    Type
REMARK                         _______ _______ _______ _____ _____    ______ ____
ROOT
ATOM      1  C   UNL     1      43.725   4.450  10.124  0.00  0.00    +0.000 C 
ENDROOT
BRANCH   1   5
ATOM      2  C   UNL     1      46.564   2.351   7.610  0.00  0.00    +0.000 A 
ATOM      3  C   UNL     1      45.750   1.638   8.500  0.00  0.00    +0.000 A 
ATOM      4  C   UNL     1      44.828   2.306   9.310  0.00  0.00    +0.000 A 
ATOM      5  C   UNL     1      44.705   3.702   9.249  0.00  0.00    +0.000 A 
ATOM      6  C   UNL     1      45.498   4.407   8.334  0.00  0.00    +0.000 A 
ATOM      7  C   UNL     1      46.416   3.740   7.523  0.00  0.00    +0.000 A 
BRANCH   2   8
ATOM      8  C   UNL     1      47.616   1.645   6.796  0.00  0.00    +0.000 C 
BRANCH   8   9
ATOM      9  N   UNL     1      48.615   2.587   6.308  0.00  0.00    +0.000 NA
ATOM     10  H   UNL     1      48.651   3.387   6.935  0.00  0.00    +0.000 HD
ATOM     11  H   UNL     1      48.314   2.937   5.398  0.00  0.00    +0.000 HD
ENDBRANCH   8   9
ENDBRANCH   2   8
ENDBRANCH   1   5
BRANCH   1  12
ATOM     12  O   UNL     1      43.784   3.934  11.455  0.00  0.00    +0.000 OA
BRANCH  12  13
ATOM     13  C   UNL     1      44.844   4.307  12.232  0.00  0.00    +0.000 A 
ATOM     14  C   UNL     1      45.760   3.473  12.859  0.00  0.00    +0.000 A 
ATOM     15  C   UNL     1      46.832   4.035  13.582  0.00  0.00    +0.000 A 
ATOM     16  CA  UNL     1      46.948   5.432  13.653  0.00  0.00    +0.000 A 
ATOM     17  N   UNL     1      46.057   6.270  13.058  0.00  0.00    +0.000 NA
ATOM     18  C   UNL     1      45.038   5.680  12.373  0.00  0.00    +0.000 A 
BRANCH  16  19
ATOM     19  C   UNL     1      48.083   6.117  14.386  0.00  0.00    +0.000 C 
ATOM     20  O   UNL     1      48.997   6.658  13.812  0.00  0.00    +0.000 OA
BRANCH  19  21
ATOM     21  OXT UNL     1      47.996   6.082  15.742  0.00  0.00    +0.000 OA
ATOM     22  HXT UNL     1      47.678   6.902  16.166  0.00  0.00    +0.000 HD
ENDBRANCH  19  21
ENDBRANCH  16  19
ENDBRANCH  12  13
ENDBRANCH   1  12
TORSDOF 7
ENDMDL
MODEL 4
REMARK VINA RESULT:    -7.169      2.868      6.815
REMARK INTER + INTRA:         -10.155
REMARK INTER:                  -9.634
REMARK INTRA:                  -0.521
REMARK UNBOUND:                -0.472
REMARK  Name = 
REMARK  7 active torsions:
REMARK  status: ('A' for Active; 'I' for Inactive)
REMARK    1  A    between atoms: N_1  and  C_2
REMARK    2  A    between atoms: C_2  and  C_3
REMARK    3  A    between atoms: C_6  and  C_7
REMARK    4  A    between atoms: C_7  and  O_8
REMARK    5  A    between atoms: O_8  and  C_9
REMARK    6  A    between atoms: CA_12  and  C_13
REMARK    7  A    between atoms: C_13  and  OXT_15
REMARK                            x       y       z     vdW  Elec       q    Type
REMARK                         _______ _______ _______ _____ _____    ______ ____
ROOT
ATOM      1  C   UNL     1      43.927   4.086  11.590  0.00  0.00    +0.000 C 
ENDROOT
BRANCH   1   5
ATOM      2  C   UNL     1      46.373   7.422  12.883  0.00  0.00    +0.000 A 
ATOM      3  C   UNL     1      45.236   7.646  12.097  0.00  0.00    +0.000 A 
ATOM      4  C   UNL     1      44.437   6.577  11.681  0.00  0.00    +0.000 A 
ATOM      5  C   UNL     1      44.765   5.261  12.039  0.00  0.00    +0.000 A 
ATOM      6  C   UNL     1      45.885   5.045  12.852  0.00  0.00    +0.000 A 
ATOM      7  C   UNL     1      46.680   6.112  13.271  0.00  0.00    +0.000 A 
BRANCH   2   8
ATOM      8  C   UNL     1      47.282   8.561  13.264  0.00  0.00    +0.000 C 
BRANCH   8   9
ATOM      9  N   UNL     1      47.191   8.845  14.690  0.00  0.00    +0.000 NA
ATOM     10  H   UNL     1      47.960   9.455  14.957  0.00  0.00    +0.000 HD
ATOM     11  H   UNL     1      47.313   7.972  15.203  0.00  0.00    +0.000 HD
ENDBRANCH   8   9
ENDBRANCH   2   8
ENDBRANCH   1   5
BRANCH   1  12
ATOM     12  O   UNL     1      43.709   4.165  10.181  0.00  0.00    +0.000 OA
BRANCH  12  13
ATOM     13  C   UNL     1      44.640   3.589   9.363  0.00  0.00    +0.000 A 
ATOM     14  C   UNL     1      44.996   2.249   9.310  0.00  0.00    +0.000 A 
ATOM     15  C   UNL     1      45.944   1.818   8.360  0.00  0.00    +0.000 A 
ATOM     16  CA  UNL     1      46.509   2.759   7.485  0.00  0.00    +0.000 A 
ATOM     17  N   UNL     1      46.186   4.080   7.526  0.00  0.00    +0.000 NA
ATOM     18  C   UNL     1      45.268   4.448   8.462  0.00  0.00    +0.000 A 
BRANCH  16  19
ATOM     19  C   UNL     1      47.515   2.377   6.418  0.00  0.00    +0.000 C 
ATOM     20  O   UNL     1      48.305   1.476   6.562  0.00  0.00    +0.000 OA
BRANCH  19  21
ATOM     21  OXT UNL     1      47.461   3.121   5.283  0.00  0.00    +0.000 OA
ATOM     22  HXT UNL     1      46.624   3.599   5.131  0.00  0.00    +0.000 HD
ENDBRANCH  19  21
ENDBRANCH  16  19
ENDBRANCH  12  13
ENDBRANCH   1  12
TORSDOF 7
ENDMDL
MODEL 5
REMARK VINA RESULT:    -5.788      2.866      6.551
REMARK INTER + INTRA:          -8.290
REMARK INTER:                  -7.908
REMARK INTRA:                  -0.382
REMARK UNBOUND:                -0.472
REMARK  Name = 
REMARK  7 active torsions:
REMARK  status: ('A' for Active; 'I' for Inactive)
REMARK    1  A    between atoms: N_1  and  C_2
REMARK    2  A    between atoms: C_2  and  C_3
REMARK    3  A    between atoms: C_6  and  C_7
REMARK    4  A    between atoms: C_7  and  O_8
REMARK    5  A    between atoms: O_8  and  C_9
REMARK    6  A    between atoms: CA_12  and  C_13
REMARK    7  A    between atoms: C_13  and  OXT_15
REMARK                            x       y       z     vdW  Elec       q    Type
REMARK                         _______ _______ _______ _____ _____    ______ ____
ROOT
ATOM      1  C   UNL     1      44.447   5.378  12.687  0.00  0.00    +0.000 C 
ENDROOT
BRANCH   1   5
ATOM      2  C   UNL     1      48.112   7.682  12.912  0.00  0.00    +0.000 A 
ATOM      3  C   UNL     1      46.885   8.328  12.718  0.00  0.00    +0.000 A 
ATOM      4  C   UNL     1      45.697   7.594  12.650  0.00  0.00    +0.000 A 
ATOM      5  C   UNL     1      45.715   6.197  12.771  0.00  0.00    +0.000 A 
ATOM      6  C   UNL     1      46.941   5.558  12.997  0.00  0.00    +0.000 A 
ATOM      7  C   UNL     1      48.126   6.291  13.068  0.00  0.00    +0.000 A 
BRANCH   2   8
ATOM      8  C   UNL     1      49.401   8.460  12.902  0.00  0.00    +0.000 C 
BRANCH   8   9
ATOM      9  N   UNL     1      50.507   7.641  13.383  0.00  0.00    +0.000 NA
ATOM     10  H   UNL     1      50.415   6.702  13.002  0.00  0.00    +0.000 HD
ATOM     11  H   UNL     1      50.432   7.558  14.396  0.00  0.00    +0.000 HD
ENDBRANCH   8   9
ENDBRANCH   2   8
ENDBRANCH   1   5
BRANCH   1  12
ATOM     12  O   UNL     1      43.886   5.499  11.380  0.00  0.00    +0.000 OA
BRANCH  12  13
ATOM     13  C   UNL     1      44.457   4.768  10.376  0.00  0.00    +0.000 A 
ATOM     14  C   UNL     1      44.217   3.436  10.066  0.00  0.00    +0.000 A 
ATOM     15  C   UNL     1      44.858   2.854   8.954  0.00  0.00    +0.000 A 
ATOM     16  CA  UNL     1      45.730   3.638   8.182  0.00  0.00    +0.000 A 
ATOM     17  N   UNL     1      45.992   4.941   8.473  0.00  0.00    +0.000 NA
ATOM     18  C   UNL     1      45.350   5.458   9.558  0.00  0.00    +0.000 A 
BRANCH  16  19
ATOM     19  C   UNL     1      46.440   3.099   6.957  0.00  0.00    +0.000 C 
ATOM     20  O   UNL     1      46.711   1.931   6.824  0.00  0.00    +0.000 OA
BRANCH  19  21
ATOM     21  OXT UNL     1      46.746   4.028   6.014  0.00  0.00    +0.000 OA
ATOM     22  HXT UNL     1      47.695   4.119   5.804  0.00  0.00    +0.000 HD
ENDBRANCH  19  21
ENDBRANCH  16  19
ENDBRANCH  12  13
ENDBRANCH   1  12
TORSDOF 7
ENDMDL
MODEL 6
REMARK VINA RESULT:    -5.750      3.326      7.720
REMARK INTER + INTRA:          -8.238
REMARK INTER:                  -7.769
REMARK INTRA:                  -0.469
REMARK UNBOUND:                -0.472
REMARK  Name = 
REMARK  7 active torsions:
REMARK  status: ('A' for Active; 'I' for Inactive)
REMARK    1  A    between atoms: N_1  and  C_2
REMARK    2  A    between atoms: C_2  and  C_3
REMARK    3  A    between atoms: C_6  and  C_7
REMARK    4  A    between atoms: C_7  and  O_8
REMARK    5  A    between atoms: O_8  and  C_9
REMARK    6  A    between atoms: CA_12  and  C_13
REMARK    7  A    between atoms: C_13  and  OXT_15
REMARK                            x       y       z     vdW  Elec       q    Type
REMARK                         _______ _______ _______ _____ _____    ______ ____
ROOT
ATOM      1  C   UNL     1      47.578   4.963  16.158  0.00  0.00    +0.000 C 
ENDROOT
BRANCH   1   5
ATOM      2  C   UNL     1      50.925   2.533  17.453  0.00  0.00    +0.000 A 
ATOM      3  C   UNL     1      50.972   3.926  17.589  0.00  0.00    +0.000 A 
ATOM      4  C   UNL     1      49.895   4.717  17.181  0.00  0.00    +0.000 A 
ATOM      5  C   UNL     1      48.750   4.129  16.621  0.00  0.00    +0.000 A 
ATOM      6  C   UNL     1      48.695   2.733  16.517  0.00  0.00    +0.000 A 
ATOM      7  C   UNL     1      49.768   1.943  16.929  0.00  0.00    +0.000 A 
BRANCH   2   8
ATOM      8  C   UNL     1      52.115   1.683  17.815  0.00  0.00    +0.000 C 
BRANCH   8   9
ATOM      9  N   UNL     1      51.714   0.306  18.067  0.00  0.00    +0.000 NA
ATOM     10  H   UNL     1      52.447  -0.162  18.595  0.00  0.00    +0.000 HD
ATOM     11  H   UNL     1      51.638  -0.179  17.174  0.00  0.00    +0.000 HD
ENDBRANCH   8   9
ENDBRANCH   2   8
ENDBRANCH   1   5
BRANCH   1  12
ATOM     12  O   UNL     1      47.780   5.358  14.801  0.00  0.00    +0.000 OA
BRANCH  12  13
ATOM     13  C   UNL     1      46.858   4.951  13.878  0.00  0.00    +0.000 A 
ATOM     14  C   UNL     1      46.531   3.645  13.539  0.00  0.00    +0.000 A 
ATOM     15  C   UNL     1      45.508   3.407  12.598  0.00  0.00    +0.000 A 
ATOM     16  CA  UNL     1      44.841   4.501  12.023  0.00  0.00    +0.000 A 
ATOM     17  N   UNL     1      45.153   5.789  12.330  0.00  0.00    +0.000 NA
ATOM     18  C   UNL     1      46.149   5.968  13.242  0.00  0.00    +0.000 A 
BRANCH  16  19
ATOM     19  C   UNL     1      43.714   4.333  11.024  0.00  0.00    +0.000 C 
ATOM     20  O   UNL     1      42.983   5.240  10.711  0.00  0.00    +0.000 OA
BRANCH  19  21
ATOM     21  OXT UNL     1      43.588   3.084  10.503  0.00  0.00    +0.000 OA
ATOM     22  HXT UNL     1      42.801   2.938   9.945  0.00  0.00    +0.000 HD
ENDBRANCH  19  21
ENDBRANCH  16  19
ENDBRANCH  12  13
ENDBRANCH   1  12
TORSDOF 7
ENDMDL
MODEL 7
REMARK VINA RESULT:    -5.358      2.990      8.144
REMARK INTER + INTRA:          -7.709
REMARK INTER:                  -7.373
REMARK INTRA:                  -0.336
REMARK UNBOUND:                -0.472
REMARK  Name = 
REMARK  7 active torsions:
REMARK  status: ('A' for Active; 'I' for Inactive)
REMARK    1  A    between atoms: N_1  and  C_2
REMARK    2  A    between atoms: C_2  and  C_3
REMARK    3  A    between atoms: C_6  and  C_7
REMARK    4  A    between atoms: C_7  and  O_8
REMARK    5  A    between atoms: O_8  and  C_9
REMARK    6  A    between atoms: CA_12  and  C_13
REMARK    7  A    between atoms: C_13  and  OXT_15
REMARK                            x       y       z     vdW  Elec       q    Type
REMARK                         _______ _______ _______ _____ _____    ______ ____
ROOT
ATOM      1  C   UNL     1      47.446   5.549  14.612  0.00  0.00    +0.000 C 
ENDROOT
BRANCH   1   5
ATOM      2  C   UNL     1      48.930   4.748  18.605  0.00  0.00    +0.000 A 
ATOM      3  C   UNL     1      48.046   3.853  17.990  0.00  0.00    +0.000 A 
ATOM      4  C   UNL     1      47.567   4.100  16.700  0.00  0.00    +0.000 A 
ATOM      5  C   UNL     1      47.960   5.251  16.002  0.00  0.00    +0.000 A 
ATOM      6  C   UNL     1      48.870   6.127  16.609  0.00  0.00    +0.000 A 
ATOM      7  C   UNL     1      49.350   5.879  17.895  0.00  0.00    +0.000 A 
BRANCH   2   8
ATOM      8  C   UNL     1      49.382   4.530  20.025  0.00  0.00    +0.000 C 
BRANCH   8   9
ATOM      9  N   UNL     1      48.342   3.877  20.808  0.00  0.00    +0.000 NA
ATOM     10  H   UNL     1      48.184   4.410  21.660  0.00  0.00    +0.000 HD
ATOM     11  H   UNL     1      48.679   2.957  21.093  0.00  0.00    +0.000 HD
ENDBRANCH   8   9
ENDBRANCH   2   8
ENDBRANCH   1   5
BRANCH   1  12
ATOM     12  O   UNL     1      46.270   4.779  14.363  0.00  0.00    +0.000 OA
BRANCH  12  13
ATOM     13  C   UNL     1      45.921   4.559  13.060  0.00  0.00    +0.000 A 
ATOM     14  C   UNL     1      45.271   3.448  12.541  0.00  0.00    +0.000 A 
ATOM     15  C   UNL     1      44.940   3.413  11.171  0.00  0.00    +0.000 A 
ATOM     16  CA  UNL     1      45.276   4.508  10.359  0.00  0.00    +0.000 A 
ATOM     17  N   UNL     1      45.925   5.602  10.842  0.00  0.00    +0.000 NA
ATOM     18  C   UNL     1      46.226   5.588  12.171  0.00  0.00    +0.000 A 
BRANCH  16  19
ATOM     19  C   UNL     1      44.934   4.563   8.884  0.00  0.00    +0.000 C 
ATOM     20  O   UNL     1      45.763   4.763   8.031  0.00  0.00    +0.000 OA
BRANCH  19  21
ATOM     21  OXT UNL     1      43.622   4.368   8.591  0.00  0.00    +0.000 OA
ATOM     22  HXT UNL     1      43.323   4.724   7.732  0.00  0.00    +0.000 HD
ENDBRANCH  19  21
ENDBRANCH  16  19
ENDBRANCH  12  13
ENDBRANCH   1  12
TORSDOF 7
ENDMDL
MODEL 8
REMARK VINA RESULT:    -5.336      3.199      5.270
REMARK INTER + INTRA:          -7.680
REMARK INTER:                  -7.292
REMARK INTRA:                  -0.388
REMARK UNBOUND:                -0.472
REMARK  Name = 
REMARK  7 active torsions:
REMARK  status: ('A' for Active; 'I' for Inactive)
REMARK    1  A    between atoms: N_1  and  C_2
REMARK    2  A    between atoms: C_2  and  C_3
REMARK    3  A    between atoms: C_6  and  C_7
REMARK    4  A    between atoms: C_7  and  O_8
REMARK    5  A    between atoms: O_8  and  C_9
REMARK    6  A    between atoms: CA_12  and  C_13
REMARK    7  A    between atoms: C_13  and  OXT_15
REMARK                            x       y       z     vdW  Elec       q    Type
REMARK                         _______ _______ _______ _____ _____    ______ ____
ROOT
ATOM      1  C   UNL     1      47.470   6.478  14.019  0.00  0.00    +0.000 C 
ENDROOT
BRANCH   1   5
ATOM      2  C   UNL     1      44.797   4.755  11.074  0.00  0.00    +0.000 A 
ATOM      3  C   UNL     1      45.272   6.062  10.914  0.00  0.00    +0.000 A 
ATOM      4  C   UNL     1      46.139   6.624  11.855  0.00  0.00    +0.000 A 
ATOM      5  C   UNL     1      46.544   5.890  12.979  0.00  0.00    +0.000 A 
ATOM      6  C   UNL     1      46.092   4.570  13.118  0.00  0.00    +0.000 A 
ATOM      7  C   UNL     1      45.230   4.008  12.177  0.00  0.00    +0.000 A 
BRANCH   2   8
ATOM      8  C   UNL     1      43.798   4.175  10.108  0.00  0.00    +0.000 C 
BRANCH   8   9
ATOM      9  N   UNL     1      44.243   4.352   8.731  0.00  0.00    +0.000 NA
ATOM     10  H   UNL     1      43.697   5.094   8.299  0.00  0.00    +0.000 HD
ATOM     11  H   UNL     1      44.042   3.496   8.213  0.00  0.00    +0.000 HD
ENDBRANCH   8   9
ENDBRANCH   2   8
ENDBRANCH   1   5
BRANCH   1  12
ATOM     12  O   UNL     1      48.290   5.446  14.568  0.00  0.00    +0.000 OA
BRANCH  12  13
ATOM     13  C   UNL     1      48.214   5.226  15.915  0.00  0.00    +0.000 A 
ATOM     14  C   UNL     1      47.435   4.281  16.569  0.00  0.00    +0.000 A 
ATOM     15  C   UNL     1      47.523   4.157  17.970  0.00  0.00    +0.000 A 
ATOM     16  CA  UNL     1      48.401   4.994  18.676  0.00  0.00    +0.000 A 
ATOM     17  N   UNL     1      49.165   5.936  18.059  0.00  0.00    +0.000 NA
ATOM     18  C   UNL     1      49.043   6.021  16.705  0.00  0.00    +0.000 A 
BRANCH  16  19
ATOM     19  C   UNL     1      48.576   4.909  20.178  0.00  0.00    +0.000 C 
ATOM     20  O   UNL     1      48.912   5.854  20.849  0.00  0.00    +0.000 OA
BRANCH  19  21
ATOM     21  OXT UNL     1      48.324   3.688  20.718  0.00  0.00    +0.000 OA
ATOM     22  HXT UNL     1      47.454   3.588  21.149  0.00  0.00    +0.000 HD
ENDBRANCH  19  21
ENDBRANCH  16  19
ENDBRANCH  12  13
ENDBRANCH   1  12
TORSDOF 7
ENDMDL
MODEL 9
REMARK VINA RESULT:    -5.223      4.556      6.018
REMARK INTER + INTRA:          -7.527
REMARK INTER:                  -7.124
REMARK INTRA:                  -0.403
REMARK UNBOUND:                -0.472
REMARK  Name = 
REMARK  7 active torsions:
REMARK  status: ('A' for Active; 'I' for Inactive)
REMARK    1  A    between atoms: N_1  and  C_2
REMARK    2  A    between atoms: C_2  and  C_3
REMARK    3  A    between atoms: C_6  and  C_7
REMARK    4  A    between atoms: C_7  and  O_8
REMARK    5  A    between atoms: O_8  and  C_9
REMARK    6  A    between atoms: CA_12  and  C_13
REMARK    7  A    between atoms: C_13  and  OXT_15
REMARK                            x       y       z     vdW  Elec       q    Type
REMARK                         _______ _______ _______ _____ _____    ______ ____
ROOT
ATOM      1  C   UNL     1      46.926   3.617  14.051  0.00  0.00    +0.000 C 
ENDROOT
BRANCH   1   5
ATOM      2  C   UNL     1      45.248   7.148  12.179  0.00  0.00    +0.000 A 
ATOM      3  C   UNL     1      44.415   6.088  12.557  0.00  0.00    +0.000 A 
ATOM      4  C   UNL     1      44.946   4.949  13.167  0.00  0.00    +0.000 A 
ATOM      5  C   UNL     1      46.324   4.845  13.406  0.00  0.00    +0.000 A 
ATOM      6  C   UNL     1      47.150   5.921  13.056  0.00  0.00    +0.000 A 
ATOM      7  C   UNL     1      46.619   7.060  12.451  0.00  0.00    +0.000 A 
BRANCH   2   8
ATOM      8  C   UNL     1      44.693   8.342  11.447  0.00  0.00    +0.000 C 
BRANCH   8   9
ATOM      9  N   UNL     1      43.308   8.113  11.055  0.00  0.00    +0.000 NA
ATOM     10  H   UNL     1      43.282   7.398  10.332  0.00  0.00    +0.000 HD
ATOM     11  H   UNL     1      42.944   8.969  10.637  0.00  0.00    +0.000 HD
ENDBRANCH   8   9
ENDBRANCH   2   8
ENDBRANCH   1   5
BRANCH   1  12
ATOM     12  O   UNL     1      46.742   3.682  15.466  0.00  0.00    +0.000 OA
BRANCH  12  13
ATOM     13  C   UNL     1      47.861   3.676  16.250  0.00  0.00    +0.000 A 
ATOM     14  C   UNL     1      48.595   2.571  16.656  0.00  0.00    +0.000 A 
ATOM     15  C   UNL     1      49.763   2.755  17.425  0.00  0.00    +0.000 A 
ATOM     16  CA  UNL     1      50.157   4.059  17.764  0.00  0.00    +0.000 A 
ATOM     17  N   UNL     1      49.447   5.157  17.390  0.00  0.00    +0.000 NA
ATOM     18  C   UNL     1      48.326   4.928  16.650  0.00  0.00    +0.000 A 
BRANCH  16  19
ATOM     19  C   UNL     1      51.411   4.348  18.565  0.00  0.00    +0.000 C 
ATOM     20  O   UNL     1      51.792   5.469  18.794  0.00  0.00    +0.000 OA
BRANCH  19  21
ATOM     21  OXT UNL     1      52.075   3.249  19.009  0.00  0.00    +0.000 OA
ATOM     22  HXT UNL     1      51.688   2.808  19.789  0.00  0.00    +0.000 HD
ENDBRANCH  19  21
ENDBRANCH  16  19
ENDBRANCH  12  13
ENDBRANCH   1  12
TORSDOF 7
ENDMDL
