MODEL 1
REMARK VINA RESULT:    -7.766      0.000      0.000
REMARK INTER + INTRA:         -11.222
REMARK INTER:                 -10.490
REMARK INTRA:                  -0.733
REMARK UNBOUND:                -0.733
REMARK  Name = 
REMARK  7 active torsions:
REMARK  status: ('A' for Active; 'I' for Inactive)
REMARK    1  A    between atoms: C_1  and  O_2
REMARK    2  A    between atoms: O_2  and  C_3
REMARK    3  A    between atoms: C_5  and  N_6
REMARK    4  A    between atoms: N_6  and  C_7
REMARK    5  A    between atoms: C_7  and  C_8
REMARK    6  A    between atoms: C_12  and  N_13
REMARK    7  A    between atoms: C_21  and  C_22
REMARK                            x       y       z     vdW  Elec       q    Type
REMARK                         _______ _______ _______ _____ _____    ______ ____
ROOT
ATOM      1  N   UNL     1      46.548   4.527  15.137  0.00  0.00    +0.000 N 
ATOM      2  H   UNL     1      45.784   5.174  15.268  0.00  0.00    +0.000 HD
ENDROOT
BRANCH   1   5
ATOM      3  C   UNL     1      47.951   4.659  18.549  0.00  0.00    +0.000 A 
ATOM      4  C   UNL     1      47.124   4.910  17.460  0.00  0.00    +0.000 A 
ATOM      5  C   UNL     1      47.344   4.278  16.235  0.00  0.00    +0.000 A 
ATOM      6  N   UNL     1      48.346   3.390  16.082  0.00  0.00    +0.000 NA
ATOM      7  C   UNL     1      49.135   3.136  17.174  0.00  0.00    +0.000 A 
ATOM      8  C   UNL     1      48.977   3.743  18.409  0.00  0.00    +0.000 A 
BRANCH   7   9
ATOM      9  C   UNL     1      50.232   2.127  17.005  0.00  0.00    +0.000 C 
ATOM     10  N   UNL     1      51.125   2.037  18.037  0.00  0.00    +0.000 N 
ATOM     11  O   UNL     1      50.338   1.423  16.006  0.00  0.00    +0.000 OA
ATOM     12  H   UNL     1      51.011   2.635  18.849  0.00  0.00    +0.000 HD
ATOM     13  H   UNL     1      51.886   1.382  17.978  0.00  0.00    +0.000 HD
ENDBRANCH   7   9
BRANCH   3  15
ATOM     14  C   UNL     1      49.028   5.283  20.574  0.00  0.00    +0.000 C 
ATOM     15  O   UNL     1      47.845   5.250  19.779  0.00  0.00    +0.000 OA
ENDBRANCH   3  15
ENDBRANCH   1   5
BRANCH   1  16
ATOM     16  C   UNL     1      46.705   3.824  13.885  0.00  0.00    +0.000 C 
BRANCH  16  17
ATOM     17  C   UNL     1      45.533   3.990  12.954  0.00  0.00    +0.000 A 
ATOM     18  C   UNL     1      44.444   4.784  13.327  0.00  0.00    +0.000 A 
ATOM     19  C   UNL     1      43.430   5.048  12.411  0.00  0.00    +0.000 A 
ATOM     20  C   UNL     1      43.509   4.535  11.115  0.00  0.00    +0.000 A 
ATOM     21  C   UNL     1      44.582   3.737  10.698  0.00  0.00    +0.000 A 
ATOM     22  C   UNL     1      45.568   3.446  11.655  0.00  0.00    +0.000 A 
BRANCH  21  23
ATOM     23  N   UNL     1      44.690   3.295   9.392  0.00  0.00    +0.000 N 
ATOM     24  C   UNL     1      44.740   1.869   9.060  0.00  0.00    +0.000 C 
ATOM     25  C   UNL     1      46.068   1.527   8.391  0.00  0.00    +0.000 C 
ATOM     26  C   UNL     1      46.354   2.459   7.213  0.00  0.00    +0.000 C 
ATOM     27  C   UNL     1      46.255   3.924   7.636  0.00  0.00    +0.000 C 
ATOM     28  C   UNL     1      44.906   4.229   8.289  0.00  0.00    +0.000 C 
ENDBRANCH  21  23
ENDBRANCH  16  17
ENDBRANCH   1  16
TORSDOF 6
ENDMDL
MODEL 2
REMARK VINA RESULT:    -7.703      2.860      4.306
REMARK INTER + INTRA:         -11.138
REMARK INTER:                 -10.184
REMARK INTRA:                  -0.954
REMARK UNBOUND:                -0.733
REMARK  Name = 
REMARK  7 active torsions:
REMARK  status: ('A' for Active; 'I' for Inactive)
REMARK    1  A    between atoms: C_1  and  O_2
REMARK    2  A    between atoms: O_2  and  C_3
REMARK    3  A    between atoms: C_5  and  N_6
REMARK    4  A    between atoms: N_6  and  C_7
REMARK    5  A    between atoms: C_7  and  C_8
REMARK    6  A    between atoms: C_12  and  N_13
REMARK    7  A    between atoms: C_21  and  C_22
REMARK                            x       y       z     vdW  Elec       q    Type
REMARK                         _______ _______ _______ _____ _____    ______ ____
ROOT
ATOM      1  N   UNL     1      44.166   6.849  12.402  0.00  0.00    +0.000 N 
ATOM      2  H   UNL     1      43.648   7.400  13.070  0.00  0.00    +0.000 HD
ENDROOT
BRANCH   1   5
ATOM      3  C   UNL     1      47.855   6.931  12.512  0.00  0.00    +0.000 A 
ATOM      4  C   UNL     1      46.545   7.263  12.187  0.00  0.00    +0.000 A 
ATOM      5  C   UNL     1      45.473   6.550  12.726  0.00  0.00    +0.000 A 
ATOM      6  N   UNL     1      45.677   5.539  13.594  0.00  0.00    +0.000 NA
ATOM      7  C   UNL     1      46.975   5.244  13.922  0.00  0.00    +0.000 A 
ATOM      8  C   UNL     1      48.080   5.903  13.408  0.00  0.00    +0.000 A 
BRANCH   7   9
ATOM      9  C   UNL     1      47.195   4.135  14.909  0.00  0.00    +0.000 C 
ATOM     10  N   UNL     1      46.931   4.439  16.216  0.00  0.00    +0.000 N 
ATOM     11  O   UNL     1      47.593   3.023  14.580  0.00  0.00    +0.000 OA
ATOM     12  H   UNL     1      46.606   5.369  16.458  0.00  0.00    +0.000 HD
ATOM     13  H   UNL     1      47.068   3.738  16.925  0.00  0.00    +0.000 HD
ENDBRANCH   7   9
BRANCH   3  15
ATOM     14  C   UNL     1      48.850   8.919  11.671  0.00  0.00    +0.000 C 
ATOM     15  O   UNL     1      48.975   7.541  12.014  0.00  0.00    +0.000 OA
ENDBRANCH   3  15
ENDBRANCH   1   5
BRANCH   1  16
ATOM     16  C   UNL     1      43.511   6.314  11.231  0.00  0.00    +0.000 C 
BRANCH  16  17
ATOM     17  C   UNL     1      43.766   4.844  11.021  0.00  0.00    +0.000 A 
ATOM     18  C   UNL     1      43.226   3.903  11.904  0.00  0.00    +0.000 A 
ATOM     19  C   UNL     1      43.345   2.545  11.629  0.00  0.00    +0.000 A 
ATOM     20  C   UNL     1      43.986   2.121  10.463  0.00  0.00    +0.000 A 
ATOM     21  C   UNL     1      44.539   3.029   9.550  0.00  0.00    +0.000 A 
ATOM     22  C   UNL     1      44.448   4.393   9.874  0.00  0.00    +0.000 A 
BRANCH  21  23
ATOM     23  N   UNL     1      45.106   2.605   8.362  0.00  0.00    +0.000 N 
ATOM     24  C   UNL     1      45.487   1.207   8.143  0.00  0.00    +0.000 C 
ATOM     25  C   UNL     1      46.993   1.098   7.917  0.00  0.00    +0.000 C 
ATOM     26  C   UNL     1      47.462   2.059   6.825  0.00  0.00    +0.000 C 
ATOM     27  C   UNL     1      47.002   3.487   7.114  0.00  0.00    +0.000 C 
ATOM     28  C   UNL     1      45.488   3.555   7.321  0.00  0.00    +0.000 C 
ENDBRANCH  21  23
ENDBRANCH  16  17
ENDBRANCH   1  16
TORSDOF 6
ENDMDL
MODEL 3
REMARK VINA RESULT:    -7.635      2.157      2.605
REMARK INTER + INTRA:         -11.045
REMARK INTER:                 -10.221
REMARK INTRA:                  -0.824
REMARK UNBOUND:                -0.733
REMARK  Name = 
REMARK  7 active torsions:
REMARK  status: ('A' for Active; 'I' for Inactive)
REMARK    1  A    between atoms: C_1  and  O_2
REMARK    2  A    between atoms: O_2  and  C_3
REMARK    3  A    between atoms: C_5  and  N_6
REMARK    4  A    between atoms: N_6  and  C_7
REMARK    5  A    between atoms: C_7  and  C_8
REMARK    6  A    between atoms: C_12  and  N_13
REMARK    7  A    between atoms: C_21  and  C_22
REMARK                            x       y       z     vdW  Elec       q    Type
REMARK                         _______ _______ _______ _____ _____    ______ ____
ROOT
ATOM      1  N   UNL     1      47.102   6.217  12.920  0.00  0.00    +0.000 N 
ATOM      2  H   UNL     1      47.730   6.367  12.143  0.00  0.00    +0.000 HD
ENDROOT
BRANCH   1   5
ATOM      3  C   UNL     1      49.107   6.778  15.968  0.00  0.00    +0.000 A 
ATOM      4  C   UNL     1      48.518   6.994  14.728  0.00  0.00    +0.000 A 
ATOM      5  C   UNL     1      47.681   6.032  14.157  0.00  0.00    +0.000 A 
ATOM      6  N   UNL     1      47.402   4.883  14.804  0.00  0.00    +0.000 NA
ATOM      7  C   UNL     1      47.972   4.700  16.037  0.00  0.00    +0.000 A 
ATOM      8  C   UNL     1      48.823   5.608  16.647  0.00  0.00    +0.000 A 
BRANCH   7   9
ATOM      9  C   UNL     1      47.637   3.431  16.764  0.00  0.00    +0.000 C 
ATOM     10  N   UNL     1      48.640   2.506  16.845  0.00  0.00    +0.000 N 
ATOM     11  O   UNL     1      46.533   3.220  17.256  0.00  0.00    +0.000 OA
ATOM     12  H   UNL     1      49.542   2.709  16.425  0.00  0.00    +0.000 HD
ATOM     13  H   UNL     1      48.472   1.632  17.314  0.00  0.00    +0.000 HD
ENDBRANCH   7   9
BRANCH   3  15
ATOM     14  C   UNL     1      50.253   8.860  15.924  0.00  0.00    +0.000 C 
ATOM     15  O   UNL     1      49.968   7.636  16.598  0.00  0.00    +0.000 OA
ENDBRANCH   3  15
ENDBRANCH   1   5
BRANCH   1  16
ATOM     16  C   UNL     1      45.673   6.313  12.734  0.00  0.00    +0.000 C 
BRANCH  16  17
ATOM     17  C   UNL     1      45.041   5.028  12.269  0.00  0.00    +0.000 A 
ATOM     18  C   UNL     1      44.092   4.380  13.067  0.00  0.00    +0.000 A 
ATOM     19  C   UNL     1      43.410   3.273  12.574  0.00  0.00    +0.000 A 
ATOM     20  C   UNL     1      43.658   2.819  11.277  0.00  0.00    +0.000 A 
ATOM     21  C   UNL     1      44.598   3.439  10.442  0.00  0.00    +0.000 A 
ATOM     22  C   UNL     1      45.308   4.525  10.980  0.00  0.00    +0.000 A 
BRANCH  21  23
ATOM     23  N   UNL     1      44.784   3.030   9.134  0.00  0.00    +0.000 N 
ATOM     24  C   UNL     1      44.974   1.620   8.784  0.00  0.00    +0.000 C 
ATOM     25  C   UNL     1      46.348   1.412   8.152  0.00  0.00    +0.000 C 
ATOM     26  C   UNL     1      46.582   2.386   6.997  0.00  0.00    +0.000 C 
ATOM     27  C   UNL     1      46.337   3.829   7.437  0.00  0.00    +0.000 C 
ATOM     28  C   UNL     1      44.947   3.998   8.052  0.00  0.00    +0.000 C 
ENDBRANCH  21  23
ENDBRANCH  16  17
ENDBRANCH   1  16
TORSDOF 6
ENDMDL
MODEL 4
REMARK VINA RESULT:    -7.154      3.733      8.394
REMARK INTER + INTRA:         -10.396
REMARK INTER:                  -9.421
REMARK INTRA:                  -0.976
REMARK UNBOUND:                -0.733
REMARK  Name = 
REMARK  7 active torsions:
REMARK  status: ('A' for Active; 'I' for Inactive)
REMARK    1  A    between atoms: C_1  and  O_2
REMARK    2  A    between atoms: O_2  and  C_3
REMARK    3  A    between atoms: C_5  and  N_6
REMARK    4  A    between atoms: N_6  and  C_7
REMARK    5  A    between atoms: C_7  and  C_8
REMARK    6  A    between atoms: C_12  and  N_13
REMARK    7  A    between atoms: C_21  and  C_22
REMARK                            x       y       z     vdW  Elec       q    Type
REMARK                         _______ _______ _______ _____ _____    ______ ____
ROOT
ATOM      1  N   UNL     1      46.283   6.988  11.961  0.00  0.00    +0.000 N 
ATOM      2  H   UNL     1      45.654   7.554  12.511  0.00  0.00    +0.000 HD
ENDROOT
BRANCH   1   5
ATOM      3  C   UNL     1      45.368   4.687   9.222  0.00  0.00    +0.000 A 
ATOM      4  C   UNL     1      45.959   5.745   9.905  0.00  0.00    +0.000 A 
ATOM      5  C   UNL     1      45.724   5.935  11.268  0.00  0.00    +0.000 A 
ATOM      6  N   UNL     1      44.942   5.086  11.963  0.00  0.00    +0.000 NA
ATOM      7  C   UNL     1      44.390   4.034  11.279  0.00  0.00    +0.000 A 
ATOM      8  C   UNL     1      44.572   3.803   9.924  0.00  0.00    +0.000 A 
BRANCH   7   9
ATOM      9  C   UNL     1      43.542   3.077  12.063  0.00  0.00    +0.000 C 
ATOM     10  N   UNL     1      43.454   3.318  13.406  0.00  0.00    +0.000 N 
ATOM     11  O   UNL     1      42.962   2.128  11.546  0.00  0.00    +0.000 OA
ATOM     12  H   UNL     1      43.948   4.110  13.804  0.00  0.00    +0.000 HD
ATOM     13  H   UNL     1      42.905   2.706  13.985  0.00  0.00    +0.000 HD
ENDBRANCH   7   9
BRANCH   3  15
ATOM     14  C   UNL     1      45.879   3.106   7.523  0.00  0.00    +0.000 C 
ATOM     15  O   UNL     1      45.503   4.433   7.884  0.00  0.00    +0.000 OA
ENDBRANCH   3  15
ENDBRANCH   1   5
BRANCH   1  16
ATOM     16  C   UNL     1      47.674   7.357  11.830  0.00  0.00    +0.000 C 
BRANCH  16  17
ATOM     17  C   UNL     1      48.476   7.125  13.083  0.00  0.00    +0.000 A 
ATOM     18  C   UNL     1      49.645   7.856  13.317  0.00  0.00    +0.000 A 
ATOM     19  C   UNL     1      50.304   7.740  14.537  0.00  0.00    +0.000 A 
ATOM     20  C   UNL     1      49.789   6.908  15.533  0.00  0.00    +0.000 A 
ATOM     21  C   UNL     1      48.621   6.159  15.342  0.00  0.00    +0.000 A 
ATOM     22  C   UNL     1      48.000   6.257  14.086  0.00  0.00    +0.000 A 
BRANCH  21  23
ATOM     23  N   UNL     1      48.077   5.395  16.359  0.00  0.00    +0.000 N 
ATOM     24  C   UNL     1      48.359   5.672  17.770  0.00  0.00    +0.000 C 
ATOM     25  C   UNL     1      49.075   4.486  18.410  0.00  0.00    +0.000 C 
ATOM     26  C   UNL     1      48.318   3.181  18.163  0.00  0.00    +0.000 C 
ATOM     27  C   UNL     1      48.040   2.980  16.674  0.00  0.00    +0.000 C 
ATOM     28  C   UNL     1      47.312   4.184  16.074  0.00  0.00    +0.000 C 
ENDBRANCH  21  23
ENDBRANCH  16  17
ENDBRANCH   1  16
TORSDOF 6
ENDMDL
MODEL 5
REMARK VINA RESULT:    -7.040      1.769      2.190
REMARK INTER + INTRA:         -10.242
REMARK INTER:                  -9.537
REMARK INTRA:                  -0.705
REMARK UNBOUND:                -0.733
REMARK  Name = 
REMARK  7 active torsions:
REMARK  status: ('A' for Active; 'I' for Inactive)
REMARK    1  A    between atoms: C_1  and  O_2
REMARK    2  A    between atoms: O_2  and  C_3
REMARK    3  A    between atoms: C_5  and  N_6
REMARK    4  A    between atoms: N_6  and  C_7
REMARK    5  A    between atoms: C_7  and  C_8
REMARK    6  A    between atoms: C_12  and  N_13
REMARK    7  A    between atoms: C_21  and  C_22
REMARK                            x       y       z     vdW  Elec       q    Type
REMARK                         _______ _______ _______ _____ _____    ______ ____
ROOT
ATOM      1  N   UNL     1      46.705   4.062  14.801  0.00  0.00    +0.000 N 
ATOM      2  H   UNL     1      46.228   3.176  14.890  0.00  0.00    +0.000 HD
ENDROOT
BRANCH   1   5
ATOM      3  C   UNL     1      48.343   4.171  18.108  0.00  0.00    +0.000 A 
ATOM      4  C   UNL     1      47.500   3.780  17.074  0.00  0.00    +0.000 A 
ATOM      5  C   UNL     1      47.546   4.420  15.833  0.00  0.00    +0.000 A 
ATOM      6  N   UNL     1      48.425   5.414  15.597  0.00  0.00    +0.000 NA
ATOM      7  C   UNL     1      49.265   5.768  16.621  0.00  0.00    +0.000 A 
ATOM      8  C   UNL     1      49.256   5.182  17.877  0.00  0.00    +0.000 A 
BRANCH   7   9
ATOM      9  C   UNL     1      50.260   6.857  16.344  0.00  0.00    +0.000 C 
ATOM     10  N   UNL     1      50.164   7.455  15.118  0.00  0.00    +0.000 N 
ATOM     11  O   UNL     1      51.114   7.196  17.155  0.00  0.00    +0.000 OA
ATOM     12  H   UNL     1      49.448   7.150  14.467  0.00  0.00    +0.000 HD
ATOM     13  H   UNL     1      50.809   8.187  14.873  0.00  0.00    +0.000 HD
ENDBRANCH   7   9
BRANCH   3  15
ATOM     14  C   UNL     1      48.745   4.508  20.425  0.00  0.00    +0.000 C 
ATOM     15  O   UNL     1      48.354   3.636  19.367  0.00  0.00    +0.000 OA
ENDBRANCH   3  15
ENDBRANCH   1   5
BRANCH   1  16
ATOM     16  C   UNL     1      46.586   4.838  13.588  0.00  0.00    +0.000 C 
BRANCH  16  17
ATOM     17  C   UNL     1      45.376   4.481  12.765  0.00  0.00    +0.000 A 
ATOM     18  C   UNL     1      44.097   4.835  13.204  0.00  0.00    +0.000 A 
ATOM     19  C   UNL     1      42.997   4.629  12.377  0.00  0.00    +0.000 A 
ATOM     20  C   UNL     1      43.173   4.088  11.102  0.00  0.00    +0.000 A 
ATOM     21  C   UNL     1      44.437   3.721  10.621  0.00  0.00    +0.000 A 
ATOM     22  C   UNL     1      45.525   3.895  11.493  0.00  0.00    +0.000 A 
BRANCH  21  23
ATOM     23  N   UNL     1      44.612   3.256   9.331  0.00  0.00    +0.000 N 
ATOM     24  C   UNL     1      44.711   1.825   9.032  0.00  0.00    +0.000 C 
ATOM     25  C   UNL     1      46.076   1.503   8.428  0.00  0.00    +0.000 C 
ATOM     26  C   UNL     1      46.389   2.418   7.244  0.00  0.00    +0.000 C 
ATOM     27  C   UNL     1      46.237   3.889   7.630  0.00  0.00    +0.000 C 
ATOM     28  C   UNL     1      44.853   4.172   8.218  0.00  0.00    +0.000 C 
ENDBRANCH  21  23
ENDBRANCH  16  17
ENDBRANCH   1  16
TORSDOF 6
ENDMDL
MODEL 6
REMARK VINA RESULT:    -7.024      1.359      2.718
REMARK INTER + INTRA:         -10.220
REMARK INTER:                  -9.526
REMARK INTRA:                  -0.694
REMARK UNBOUND:                -0.733
REMARK  Name = 
REMARK  7 active torsions:
REMARK  status: ('A' for Active; 'I' for Inactive)
REMARK    1  A    between atoms: C_1  and  O_2
REMARK    2  A    between atoms: O_2  and  C_3
REMARK    3  A    between atoms: C_5  and  N_6
REMARK    4  A    between atoms: N_6  and  C_7
REMARK    5  A    between atoms: C_7  and  C_8
REMARK    6  A    between atoms: C_12  and  N_13
REMARK    7  A    between atoms: C_21  and  C_22
REMARK                            x       y       z     vdW  Elec       q    Type
REMARK                         _______ _______ _______ _____ _____    ______ ____
ROOT
ATOM      1  N   UNL     1      46.805   3.556  14.728  0.00  0.00    +0.000 N 
ATOM      2  H   UNL     1      46.464   2.631  14.510  0.00  0.00    +0.000 HD
ENDROOT
BRANCH   1   5
ATOM      3  C   UNL     1      49.146   2.953  17.518  0.00  0.00    +0.000 A 
ATOM      4  C   UNL     1      48.484   2.801  16.305  0.00  0.00    +0.000 A 
ATOM      5  C   UNL     1      47.488   3.699  15.917  0.00  0.00    +0.000 A 
ATOM      6  N   UNL     1      47.160   4.750  16.695  0.00  0.00    +0.000 NA
ATOM      7  C   UNL     1      47.842   4.898  17.875  0.00  0.00    +0.000 A 
ATOM      8  C   UNL     1      48.827   4.031  18.321  0.00  0.00    +0.000 A 
BRANCH   7   9
ATOM      9  C   UNL     1      47.491   6.084  18.724  0.00  0.00    +0.000 C 
ATOM     10  N   UNL     1      47.600   7.305  18.118  0.00  0.00    +0.000 N 
ATOM     11  O   UNL     1      47.132   5.981  19.891  0.00  0.00    +0.000 OA
ATOM     12  H   UNL     1      47.903   7.357  17.150  0.00  0.00    +0.000 HD
ATOM     13  H   UNL     1      47.385   8.138  18.639  0.00  0.00    +0.000 HD
ENDBRANCH   7   9
BRANCH   3  15
ATOM     14  C   UNL     1      51.167   1.769  17.116  0.00  0.00    +0.000 C 
ATOM     15  O   UNL     1      50.109   2.112  18.007  0.00  0.00    +0.000 OA
ENDBRANCH   3  15
ENDBRANCH   1   5
BRANCH   1  16
ATOM     16  C   UNL     1      46.673   4.629  13.771  0.00  0.00    +0.000 C 
BRANCH  16  17
ATOM     17  C   UNL     1      45.458   4.500  12.890  0.00  0.00    +0.000 A 
ATOM     18  C   UNL     1      44.246   5.085  13.271  0.00  0.00    +0.000 A 
ATOM     19  C   UNL     1      43.168   5.084  12.393  0.00  0.00    +0.000 A 
ATOM     20  C   UNL     1      43.301   4.516  11.124  0.00  0.00    +0.000 A 
ATOM     21  C   UNL     1      44.496   3.922  10.700  0.00  0.00    +0.000 A 
ATOM     22  C   UNL     1      45.555   3.893  11.623  0.00  0.00    +0.000 A 
BRANCH  21  23
ATOM     23  N   UNL     1      44.643   3.428   9.416  0.00  0.00    +0.000 N 
ATOM     24  C   UNL     1      44.635   1.990   9.135  0.00  0.00    +0.000 C 
ATOM     25  C   UNL     1      45.975   1.559   8.544  0.00  0.00    +0.000 C 
ATOM     26  C   UNL     1      46.363   2.433   7.352  0.00  0.00    +0.000 C 
ATOM     27  C   UNL     1      46.321   3.915   7.720  0.00  0.00    +0.000 C 
ATOM     28  C   UNL     1      44.959   4.310   8.295  0.00  0.00    +0.000 C 
ENDBRANCH  21  23
ENDBRANCH  16  17
ENDBRANCH   1  16
TORSDOF 6
ENDMDL
MODEL 7
REMARK VINA RESULT:    -6.867      2.696      3.532
REMARK INTER + INTRA:         -10.009
REMARK INTER:                  -8.892
REMARK INTRA:                  -1.117
REMARK UNBOUND:                -0.733
REMARK  Name = 
REMARK  7 active torsions:
REMARK  status: ('A' for Active; 'I' for Inactive)
REMARK    1  A    between atoms: C_1  and  O_2
REMARK    2  A    between atoms: O_2  and  C_3
REMARK    3  A    between atoms: C_5  and  N_6
REMARK    4  A    between atoms: N_6  and  C_7
REMARK    5  A    between atoms: C_7  and  C_8
REMARK    6  A    between atoms: C_12  and  N_13
REMARK    7  A    between atoms: C_21  and  C_22
REMARK                            x       y       z     vdW  Elec       q    Type
REMARK                         _______ _______ _______ _____ _____    ______ ____
ROOT
ATOM      1  N   UNL     1      49.315   7.377  14.282  0.00  0.00    +0.000 N 
ATOM      2  H   UNL     1      49.847   8.232  14.353  0.00  0.00    +0.000 HD
ENDROOT
BRANCH   1   5
ATOM      3  C   UNL     1      48.481   6.893  17.846  0.00  0.00    +0.000 A 
ATOM      4  C   UNL     1      48.855   7.512  16.658  0.00  0.00    +0.000 A 
ATOM      5  C   UNL     1      48.927   6.788  15.466  0.00  0.00    +0.000 A 
ATOM      6  N   UNL     1      48.611   5.478  15.430  0.00  0.00    +0.000 NA
ATOM      7  C   UNL     1      48.219   4.891  16.605  0.00  0.00    +0.000 A 
ATOM      8  C   UNL     1      48.145   5.552  17.821  0.00  0.00    +0.000 A 
BRANCH   7   9
ATOM      9  C   UNL     1      47.843   3.440  16.553  0.00  0.00    +0.000 C 
ATOM     10  N   UNL     1      46.850   3.049  17.408  0.00  0.00    +0.000 N 
ATOM     11  O   UNL     1      48.387   2.640  15.799  0.00  0.00    +0.000 OA
ATOM     12  H   UNL     1      46.421   3.735  18.022  0.00  0.00    +0.000 HD
ATOM     13  H   UNL     1      46.559   2.086  17.424  0.00  0.00    +0.000 HD
ENDBRANCH   7   9
BRANCH   3  15
ATOM     14  C   UNL     1      47.740   6.782  20.101  0.00  0.00    +0.000 C 
ATOM     15  O   UNL     1      48.414   7.500  19.070  0.00  0.00    +0.000 OA
ENDBRANCH   3  15
ENDBRANCH   1   5
BRANCH   1  16
ATOM     16  C   UNL     1      48.895   6.882  12.991  0.00  0.00    +0.000 C 
BRANCH  16  17
ATOM     17  C   UNL     1      47.481   7.259  12.636  0.00  0.00    +0.000 A 
ATOM     18  C   UNL     1      47.134   8.602  12.456  0.00  0.00    +0.000 A 
ATOM     19  C   UNL     1      45.865   8.935  11.993  0.00  0.00    +0.000 A 
ATOM     20  C   UNL     1      44.945   7.929  11.689  0.00  0.00    +0.000 A 
ATOM     21  C   UNL     1      45.251   6.572  11.853  0.00  0.00    +0.000 A 
ATOM     22  C   UNL     1      46.522   6.263  12.367  0.00  0.00    +0.000 A 
BRANCH  21  23
ATOM     23  N   UNL     1      44.362   5.580  11.481  0.00  0.00    +0.000 N 
ATOM     24  C   UNL     1      43.243   5.183  12.338  0.00  0.00    +0.000 C 
ATOM     25  C   UNL     1      43.386   3.721  12.753  0.00  0.00    +0.000 C 
ATOM     26  C   UNL     1      43.602   2.818  11.539  0.00  0.00    +0.000 C 
ATOM     27  C   UNL     1      44.766   3.315  10.683  0.00  0.00    +0.000 C 
ATOM     28  C   UNL     1      44.578   4.778  10.279  0.00  0.00    +0.000 C 
ENDBRANCH  21  23
ENDBRANCH  16  17
ENDBRANCH   1  16
TORSDOF 6
ENDMDL
MODEL 8
REMARK VINA RESULT:    -6.821      4.439      5.281
REMARK INTER + INTRA:          -9.947
REMARK INTER:                  -9.110
REMARK INTRA:                  -0.836
REMARK UNBOUND:                -0.733
REMARK  Name = 
REMARK  7 active torsions:
REMARK  status: ('A' for Active; 'I' for Inactive)
REMARK    1  A    between atoms: C_1  and  O_2
REMARK    2  A    between atoms: O_2  and  C_3
REMARK    3  A    between atoms: C_5  and  N_6
REMARK    4  A    between atoms: N_6  and  C_7
REMARK    5  A    between atoms: C_7  and  C_8
REMARK    6  A    between atoms: C_12  and  N_13
REMARK    7  A    between atoms: C_21  and  C_22
REMARK                            x       y       z     vdW  Elec       q    Type
REMARK                         _______ _______ _______ _____ _____    ______ ____
ROOT
ATOM      1  N   UNL     1      46.684   6.798  11.828  0.00  0.00    +0.000 N 
ATOM      2  H   UNL     1      46.535   6.764  10.829  0.00  0.00    +0.000 HD
ENDROOT
BRANCH   1   5
ATOM      3  C   UNL     1      50.049   8.314  11.921  0.00  0.00    +0.000 A 
ATOM      4  C   UNL     1      48.925   7.642  11.453  0.00  0.00    +0.000 A 
ATOM      5  C   UNL     1      47.801   7.478  12.264  0.00  0.00    +0.000 A 
ATOM      6  N   UNL     1      47.764   7.988  13.512  0.00  0.00    +0.000 NA
ATOM      7  C   UNL     1      48.872   8.669  13.946  0.00  0.00    +0.000 A 
ATOM      8  C   UNL     1      50.022   8.850  13.195  0.00  0.00    +0.000 A 
BRANCH   7   9
ATOM      9  C   UNL     1      48.815   9.258  15.325  0.00  0.00    +0.000 C 
ATOM     10  N   UNL     1      47.598   9.207  15.947  0.00  0.00    +0.000 N 
ATOM     11  O   UNL     1      49.791   9.761  15.872  0.00  0.00    +0.000 OA
ATOM     12  H   UNL     1      46.810   8.785  15.467  0.00  0.00    +0.000 HD
ATOM     13  H   UNL     1      47.498   9.592  16.871  0.00  0.00    +0.000 HD
ENDBRANCH   7   9
BRANCH   3  15
ATOM     14  C   UNL     1      51.655   7.403  10.425  0.00  0.00    +0.000 C 
ATOM     15  O   UNL     1      51.212   8.497  11.223  0.00  0.00    +0.000 OA
ENDBRANCH   3  15
ENDBRANCH   1   5
BRANCH   1  16
ATOM     16  C   UNL     1      45.697   6.256  12.733  0.00  0.00    +0.000 C 
BRANCH  16  17
ATOM     17  C   UNL     1      45.065   4.982  12.238  0.00  0.00    +0.000 A 
ATOM     18  C   UNL     1      44.093   4.333  13.006  0.00  0.00    +0.000 A 
ATOM     19  C   UNL     1      43.413   3.238  12.483  0.00  0.00    +0.000 A 
ATOM     20  C   UNL     1      43.687   2.799  11.186  0.00  0.00    +0.000 A 
ATOM     21  C   UNL     1      44.651   3.420  10.382  0.00  0.00    +0.000 A 
ATOM     22  C   UNL     1      45.357   4.494  10.949  0.00  0.00    +0.000 A 
BRANCH  21  23
ATOM     23  N   UNL     1      44.863   3.026   9.073  0.00  0.00    +0.000 N 
ATOM     24  C   UNL     1      45.050   1.619   8.710  0.00  0.00    +0.000 C 
ATOM     25  C   UNL     1      46.436   1.407   8.107  0.00  0.00    +0.000 C 
ATOM     26  C   UNL     1      46.704   2.393   6.970  0.00  0.00    +0.000 C 
ATOM     27  C   UNL     1      46.461   3.832   7.421  0.00  0.00    +0.000 C 
ATOM     28  C   UNL     1      45.059   4.005   8.007  0.00  0.00    +0.000 C 
ENDBRANCH  21  23
ENDBRANCH  16  17
ENDBRANCH   1  16
TORSDOF 6
ENDMDL
MODEL 9
REMARK VINA RESULT:    -6.786      2.279      3.159
REMARK INTER + INTRA:          -9.899
REMARK INTER:                  -9.009
REMARK INTRA:                  -0.891
REMARK UNBOUND:                -0.733
REMARK  Name = 
REMARK  7 active torsions:
REMARK  status: ('A' for Active; 'I' for Inactive)
REMARK    1  A    between atoms: C_1  and  O_2
REMARK    2  A    between atoms: O_2  and  C_3
REMARK    3  A    between atoms: C_5  and  N_6
REMARK    4  A    between atoms: N_6  and  C_7
REMARK    5  A    between atoms: C_7  and  C_8
REMARK    6  A    between atoms: C_12  and  N_13
REMARK    7  A    between atoms: C_21  and  C_22
REMARK                            x       y       z     vdW  Elec       q    Type
REMARK                         _______ _______ _______ _____ _____    ______ ____
ROOT
ATOM      1  N   UNL     1      48.639   6.928  15.789  0.00  0.00    +0.000 N 
ATOM      2  H   UNL     1      48.574   7.885  16.107  0.00  0.00    +0.000 HD
ENDROOT
BRANCH   1   5
ATOM      3  C   UNL     1      48.256   5.195  19.026  0.00  0.00    +0.000 A 
ATOM      4  C   UNL     1      48.196   6.188  18.054  0.00  0.00    +0.000 A 
ATOM      5  C   UNL     1      48.671   5.953  16.762  0.00  0.00    +0.000 A 
ATOM      6  N   UNL     1      49.176   4.752  16.416  0.00  0.00    +0.000 NA
ATOM      7  C   UNL     1      49.203   3.778  17.380  0.00  0.00    +0.000 A 
ATOM      8  C   UNL     1      48.763   3.956  18.682  0.00  0.00    +0.000 A 
BRANCH   7   9
ATOM      9  C   UNL     1      49.742   2.436  16.982  0.00  0.00    +0.000 C 
ATOM     10  N   UNL     1      50.770   1.955  17.744  0.00  0.00    +0.000 N 
ATOM     11  O   UNL     1      49.301   1.800  16.031  0.00  0.00    +0.000 OA
ATOM     12  H   UNL     1      51.115   2.506  18.523  0.00  0.00    +0.000 HD
ATOM     13  H   UNL     1      51.177   1.062  17.520  0.00  0.00    +0.000 HD
ENDBRANCH   7   9
BRANCH   3  15
ATOM     14  C   UNL     1      47.792   6.662  20.836  0.00  0.00    +0.000 C 
ATOM     15  O   UNL     1      47.853   5.333  20.326  0.00  0.00    +0.000 OA
ENDBRANCH   3  15
ENDBRANCH   1   5
BRANCH   1  16
ATOM     16  C   UNL     1      48.582   6.621  14.378  0.00  0.00    +0.000 C 
BRANCH  16  17
ATOM     17  C   UNL     1      47.324   7.111  13.710  0.00  0.00    +0.000 A 
ATOM     18  C   UNL     1      47.162   8.471  13.426  0.00  0.00    +0.000 A 
ATOM     19  C   UNL     1      46.065   8.900  12.685  0.00  0.00    +0.000 A 
ATOM     20  C   UNL     1      45.138   7.971  12.208  0.00  0.00    +0.000 A 
ATOM     21  C   UNL     1      45.263   6.600  12.466  0.00  0.00    +0.000 A 
ATOM     22  C   UNL     1      46.353   6.198  13.257  0.00  0.00    +0.000 A 
BRANCH  21  23
ATOM     23  N   UNL     1      44.383   5.679  11.927  0.00  0.00    +0.000 N 
ATOM     24  C   UNL     1      43.245   5.159  12.691  0.00  0.00    +0.000 C 
ATOM     25  C   UNL     1      43.380   3.651  12.881  0.00  0.00    +0.000 C 
ATOM     26  C   UNL     1      43.622   2.942  11.548  0.00  0.00    +0.000 C 
ATOM     27  C   UNL     1      44.805   3.560  10.803  0.00  0.00    +0.000 C 
ATOM     28  C   UNL     1      44.625   5.069  10.622  0.00  0.00    +0.000 C 
ENDBRANCH  21  23
ENDBRANCH  16  17
ENDBRANCH   1  16
TORSDOF 6
ENDMDL
