MODEL 1
REMARK VINA RESULT:    -7.959      0.000      0.000
REMARK INTER + INTRA:         -11.880
REMARK INTER:                 -10.984
REMARK INTRA:                  -0.896
REMARK UNBOUND:                -0.896
REMARK  Name = 
REMARK  7 active torsions:
REMARK  status: ('A' for Active; 'I' for Inactive)
REMARK    1  A    between atoms: N_1  and  C_2
REMARK    2  A    between atoms: C_2  and  C_3
REMARK    3  A    between atoms: C_7  and  O_8
REMARK    4  A    between atoms: O_8  and  C_9
REMARK    5  A    between atoms: C_9  and  C_10
REMARK    6  A    between atoms: C_10  and  C_11
REMARK    7  A    between atoms: C_14  and  C_15
REMARK                            x       y       z     vdW  Elec       q    Type
REMARK                         _______ _______ _______ _____ _____    ______ ____
ROOT
ATOM      1  C   UNL     1      43.313   5.125  10.685  0.00  0.00    +0.000 C 
ENDROOT
BRANCH   1   2
ATOM      2  O   UNL     1      43.604   5.665  11.979  0.00  0.00    +0.000 OA
BRANCH   2   7
ATOM      3  C   UNL     1      46.712   5.232  13.848  0.00  0.00    +0.000 A 
ATOM      4  C   UNL     1      47.611   5.991  13.089  0.00  0.00    +0.000 A 
ATOM      5  C   UNL     1      47.179   6.667  11.949  0.00  0.00    +0.000 A 
ATOM      6  C   UNL     1      45.845   6.586  11.550  0.00  0.00    +0.000 A 
ATOM      7  C   UNL     1      44.932   5.827  12.284  0.00  0.00    +0.000 A 
ATOM      8  C   UNL     1      45.370   5.156  13.433  0.00  0.00    +0.000 A 
BRANCH   3   9
ATOM      9  C   UNL     1      47.191   4.491  15.071  0.00  0.00    +0.000 C 
BRANCH   9  10
ATOM     10  N   UNL     1      47.565   3.116  14.757  0.00  0.00    +0.000 NA
ATOM     11  H   UNL     1      47.174   2.862  13.853  0.00  0.00    +0.000 HD
ATOM     12  H   UNL     1      47.135   2.496  15.443  0.00  0.00    +0.000 HD
ENDBRANCH   9  10
ENDBRANCH   3   9
ENDBRANCH   2   7
ENDBRANCH   1   2
BRANCH   1  13
ATOM     13  C   UNL     1      43.672   3.637  10.663  0.00  0.00    +0.000 C 
BRANCH  13  14
ATOM     14  C   UNL     1      44.625   3.305   9.539  0.00  0.00    +0.000 A 
ATOM     15  C   UNL     1      45.025   1.984   9.307  0.00  0.00    +0.000 A 
ATOM     16  C   UNL     1      45.950   1.688   8.301  0.00  0.00    +0.000 A 
ATOM     17  C   UNL     1      46.483   2.710   7.507  0.00  0.00    +0.000 A 
ATOM     18  C   UNL     1      46.088   4.033   7.732  0.00  0.00    +0.000 A 
ATOM     19  C   UNL     1      45.166   4.326   8.744  0.00  0.00    +0.000 A 
BRANCH  17  20
ATOM     20  C   UNL     1      47.495   2.351   6.478  0.00  0.00    +0.000 C 
ATOM     21  N   UNL     1      47.514   3.081   5.322  0.00  0.00    +0.000 N 
ATOM     22  O   UNL     1      48.272   1.418   6.640  0.00  0.00    +0.000 OA
ATOM     23  H   UNL     1      46.767   3.703   5.051  0.00  0.00    +0.000 HD
ATOM     24  H   UNL     1      48.148   2.761   4.600  0.00  0.00    +0.000 HD
ENDBRANCH  17  20
ENDBRANCH  13  14
ENDBRANCH   1  13
TORSDOF 7
ENDMDL
MODEL 2
REMARK VINA RESULT:    -7.618      1.953      2.631
REMARK INTER + INTRA:         -11.409
REMARK INTER:                 -10.692
REMARK INTRA:                  -0.716
REMARK UNBOUND:                -0.896
REMARK  Name = 
REMARK  7 active torsions:
REMARK  status: ('A' for Active; 'I' for Inactive)
REMARK    1  A    between atoms: N_1  and  C_2
REMARK    2  A    between atoms: C_2  and  C_3
REMARK    3  A    between atoms: C_7  and  O_8
REMARK    4  A    between atoms: O_8  and  C_9
REMARK    5  A    between atoms: C_9  and  C_10
REMARK    6  A    between atoms: C_10  and  C_11
REMARK    7  A    between atoms: C_14  and  C_15
REMARK                            x       y       z     vdW  Elec       q    Type
REMARK                         _______ _______ _______ _____ _____    ______ ____
ROOT
ATOM      1  C   UNL     1      43.395   3.825  11.779  0.00  0.00    +0.000 C 
ENDROOT
BRANCH   1   2
ATOM      2  O   UNL     1      43.520   4.855  12.768  0.00  0.00    +0.000 OA
BRANCH   2   7
ATOM      3  C   UNL     1      46.008   7.528  12.707  0.00  0.00    +0.000 A 
ATOM      4  C   UNL     1      47.171   6.845  13.086  0.00  0.00    +0.000 A 
ATOM      5  C   UNL     1      47.133   5.478  13.352  0.00  0.00    +0.000 A 
ATOM      6  C   UNL     1      45.932   4.777  13.251  0.00  0.00    +0.000 A 
ATOM      7  C   UNL     1      44.757   5.437  12.885  0.00  0.00    +0.000 A 
ATOM      8  C   UNL     1      44.802   6.810  12.612  0.00  0.00    +0.000 A 
BRANCH   3   9
ATOM      9  C   UNL     1      46.055   9.010  12.436  0.00  0.00    +0.000 C 
BRANCH   9  10
ATOM     10  N   UNL     1      44.797   9.662  12.783  0.00  0.00    +0.000 NA
ATOM     11  H   UNL     1      44.046   9.253  12.234  0.00  0.00    +0.000 HD
ATOM     12  H   UNL     1      44.852  10.644  12.511  0.00  0.00    +0.000 HD
ENDBRANCH   9  10
ENDBRANCH   3   9
ENDBRANCH   2   7
ENDBRANCH   1   2
BRANCH   1  13
ATOM     13  C   UNL     1      43.487   4.448  10.384  0.00  0.00    +0.000 C 
BRANCH  13  14
ATOM     14  C   UNL     1      44.516   3.752   9.524  0.00  0.00    +0.000 A 
ATOM     15  C   UNL     1      45.312   4.479   8.631  0.00  0.00    +0.000 A 
ATOM     16  C   UNL     1      46.224   3.824   7.798  0.00  0.00    +0.000 A 
ATOM     17  C   UNL     1      46.359   2.432   7.851  0.00  0.00    +0.000 A 
ATOM     18  C   UNL     1      45.567   1.699   8.741  0.00  0.00    +0.000 A 
ATOM     19  C   UNL     1      44.651   2.357   9.570  0.00  0.00    +0.000 A 
BRANCH  17  20
ATOM     20  C   UNL     1      47.312   1.778   6.915  0.00  0.00    +0.000 C 
ATOM     21  N   UNL     1      48.391   2.506   6.496  0.00  0.00    +0.000 N 
ATOM     22  O   UNL     1      47.131   0.638   6.508  0.00  0.00    +0.000 OA
ATOM     23  H   UNL     1      48.466   3.503   6.624  0.00  0.00    +0.000 HD
ATOM     24  H   UNL     1      48.975   2.074   5.790  0.00  0.00    +0.000 HD
ENDBRANCH  17  20
ENDBRANCH  13  14
ENDBRANCH   1  13
TORSDOF 7
ENDMDL
MODEL 3
REMARK VINA RESULT:    -7.301      2.231      6.326
REMARK INTER + INTRA:         -10.971
REMARK INTER:                 -10.140
REMARK INTRA:                  -0.831
REMARK UNBOUND:                -0.896
REMARK  Name = 
REMARK  7 active torsions:
REMARK  status: ('A' for Active; 'I' for Inactive)
REMARK    1  A    between atoms: N_1  and  C_2
REMARK    2  A    between atoms: C_2  and  C_3
REMARK    3  A    between atoms: C_7  and  O_8
REMARK    4  A    between atoms: O_8  and  C_9
REMARK    5  A    between atoms: C_9  and  C_10
REMARK    6  A    between atoms: C_10  and  C_11
REMARK    7  A    between atoms: C_14  and  C_15
REMARK                            x       y       z     vdW  Elec       q    Type
REMARK                         _______ _______ _______ _____ _____    ______ ____
ROOT
ATOM      1  C   UNL     1      43.342   3.478  11.118  0.00  0.00    +0.000 C 
ENDROOT
BRANCH   1   2
ATOM      2  O   UNL     1      44.089   2.483  10.408  0.00  0.00    +0.000 OA
BRANCH   2   7
ATOM      3  C   UNL     1      46.507   2.286   7.679  0.00  0.00    +0.000 A 
ATOM      4  C   UNL     1      46.688   3.638   7.358  0.00  0.00    +0.000 A 
ATOM      5  C   UNL     1      46.009   4.629   8.065  0.00  0.00    +0.000 A 
ATOM      6  C   UNL     1      45.136   4.281   9.095  0.00  0.00    +0.000 A 
ATOM      7  C   UNL     1      44.932   2.941   9.427  0.00  0.00    +0.000 A 
ATOM      8  C   UNL     1      45.622   1.950   8.718  0.00  0.00    +0.000 A 
BRANCH   3   9
ATOM      9  C   UNL     1      47.234   1.220   6.899  0.00  0.00    +0.000 C 
BRANCH   9  10
ATOM     10  N   UNL     1      48.383   1.765   6.183  0.00  0.00    +0.000 NA
ATOM     11  H   UNL     1      49.237   1.494   6.666  0.00  0.00    +0.000 HD
ATOM     12  H   UNL     1      48.339   2.782   6.222  0.00  0.00    +0.000 HD
ENDBRANCH   9  10
ENDBRANCH   3   9
ENDBRANCH   2   7
ENDBRANCH   1   2
BRANCH   1  13
ATOM     13  C   UNL     1      43.836   3.547  12.565  0.00  0.00    +0.000 C 
BRANCH  13  14
ATOM     14  C   UNL     1      44.821   4.675  12.770  0.00  0.00    +0.000 A 
ATOM     15  C   UNL     1      46.116   4.418  13.236  0.00  0.00    +0.000 A 
ATOM     16  C   UNL     1      47.005   5.470  13.477  0.00  0.00    +0.000 A 
ATOM     17  C   UNL     1      46.614   6.794  13.248  0.00  0.00    +0.000 A 
ATOM     18  C   UNL     1      45.322   7.058  12.782  0.00  0.00    +0.000 A 
ATOM     19  C   UNL     1      44.432   6.003  12.547  0.00  0.00    +0.000 A 
BRANCH  17  20
ATOM     20  C   UNL     1      47.581   7.880  13.559  0.00  0.00    +0.000 C 
ATOM     21  N   UNL     1      47.163   8.888  14.383  0.00  0.00    +0.000 N 
ATOM     22  O   UNL     1      48.707   7.894  13.077  0.00  0.00    +0.000 OA
ATOM     23  H   UNL     1      46.194   9.036  14.623  0.00  0.00    +0.000 HD
ATOM     24  H   UNL     1      47.805   9.661  14.506  0.00  0.00    +0.000 HD
ENDBRANCH  17  20
ENDBRANCH  13  14
ENDBRANCH   1  13
TORSDOF 7
ENDMDL
MODEL 4
REMARK VINA RESULT:    -6.964      1.963      6.788
REMARK INTER + INTRA:         -10.507
REMARK INTER:                  -9.835
REMARK INTRA:                  -0.671
REMARK UNBOUND:                -0.896
REMARK  Name = 
REMARK  7 active torsions:
REMARK  status: ('A' for Active; 'I' for Inactive)
REMARK    1  A    between atoms: N_1  and  C_2
REMARK    2  A    between atoms: C_2  and  C_3
REMARK    3  A    between atoms: C_7  and  O_8
REMARK    4  A    between atoms: O_8  and  C_9
REMARK    5  A    between atoms: C_9  and  C_10
REMARK    6  A    between atoms: C_10  and  C_11
REMARK    7  A    between atoms: C_14  and  C_15
REMARK                            x       y       z     vdW  Elec       q    Type
REMARK                         _______ _______ _______ _____ _____    ______ ____
ROOT
ATOM      1  C   UNL     1      44.183   4.920  10.396  0.00  0.00    +0.000 C 
ENDROOT
BRANCH   1   2
ATOM      2  O   UNL     1      44.174   4.593   9.001  0.00  0.00    +0.000 OA
BRANCH   2   7
ATOM      3  C   UNL     1      46.779   2.678   7.304  0.00  0.00    +0.000 A 
ATOM      4  C   UNL     1      46.525   1.379   7.762  0.00  0.00    +0.000 A 
ATOM      5  C   UNL     1      45.467   1.132   8.635  0.00  0.00    +0.000 A 
ATOM      6  C   UNL     1      44.656   2.180   9.067  0.00  0.00    +0.000 A 
ATOM      7  C   UNL     1      44.895   3.485   8.632  0.00  0.00    +0.000 A 
ATOM      8  C   UNL     1      45.956   3.727   7.750  0.00  0.00    +0.000 A 
BRANCH   3   9
ATOM      9  C   UNL     1      47.936   2.938   6.371  0.00  0.00    +0.000 C 
BRANCH   9  10
ATOM     10  N   UNL     1      48.470   1.700   5.816  0.00  0.00    +0.000 NA
ATOM     11  H   UNL     1      48.366   0.954   6.501  0.00  0.00    +0.000 HD
ATOM     12  H   UNL     1      49.472   1.815   5.665  0.00  0.00    +0.000 HD
ENDBRANCH   9  10
ENDBRANCH   3   9
ENDBRANCH   2   7
ENDBRANCH   1   2
BRANCH   1  13
ATOM     13  C   UNL     1      45.390   5.811  10.699  0.00  0.00    +0.000 C 
BRANCH  13  14
ATOM     14  C   UNL     1      46.029   5.461  12.023  0.00  0.00    +0.000 A 
ATOM     15  C   UNL     1      45.799   4.216  12.621  0.00  0.00    +0.000 A 
ATOM     16  C   UNL     1      46.348   3.917  13.872  0.00  0.00    +0.000 A 
ATOM     17  C   UNL     1      47.141   4.857  14.540  0.00  0.00    +0.000 A 
ATOM     18  C   UNL     1      47.375   6.103  13.949  0.00  0.00    +0.000 A 
ATOM     19  C   UNL     1      46.820   6.401  12.699  0.00  0.00    +0.000 A 
BRANCH  17  20
ATOM     20  C   UNL     1      47.666   4.508  15.887  0.00  0.00    +0.000 C 
ATOM     21  N   UNL     1      46.877   3.740  16.698  0.00  0.00    +0.000 N 
ATOM     22  O   UNL     1      48.755   4.911  16.275  0.00  0.00    +0.000 OA
ATOM     23  H   UNL     1      45.900   3.571  16.515  0.00  0.00    +0.000 HD
ATOM     24  H   UNL     1      47.215   3.592  17.641  0.00  0.00    +0.000 HD
ENDBRANCH  17  20
ENDBRANCH  13  14
ENDBRANCH   1  13
TORSDOF 7
ENDMDL
MODEL 5
REMARK VINA RESULT:    -6.870      1.498      1.956
REMARK INTER + INTRA:         -10.376
REMARK INTER:                  -9.788
REMARK INTRA:                  -0.588
REMARK UNBOUND:                -0.896
REMARK  Name = 
REMARK  7 active torsions:
REMARK  status: ('A' for Active; 'I' for Inactive)
REMARK    1  A    between atoms: N_1  and  C_2
REMARK    2  A    between atoms: C_2  and  C_3
REMARK    3  A    between atoms: C_7  and  O_8
REMARK    4  A    between atoms: O_8  and  C_9
REMARK    5  A    between atoms: C_9  and  C_10
REMARK    6  A    between atoms: C_10  and  C_11
REMARK    7  A    between atoms: C_14  and  C_15
REMARK                            x       y       z     vdW  Elec       q    Type
REMARK                         _______ _______ _______ _____ _____    ______ ____
ROOT
ATOM      1  C   UNL     1      43.721   5.253  10.993  0.00  0.00    +0.000 C 
ENDROOT
BRANCH   1   2
ATOM      2  O   UNL     1      44.751   5.407  11.977  0.00  0.00    +0.000 OA
BRANCH   2   7
ATOM      3  C   UNL     1      47.355   7.878  12.647  0.00  0.00    +0.000 A 
ATOM      4  C   UNL     1      46.709   9.074  12.305  0.00  0.00    +0.000 A 
ATOM      5  C   UNL     1      45.389   9.062  11.859  0.00  0.00    +0.000 A 
ATOM      6  C   UNL     1      44.700   7.856  11.741  0.00  0.00    +0.000 A 
ATOM      7  C   UNL     1      45.324   6.650  12.066  0.00  0.00    +0.000 A 
ATOM      8  C   UNL     1      46.649   6.668  12.520  0.00  0.00    +0.000 A 
BRANCH   3   9
ATOM      9  C   UNL     1      48.789   7.899  13.113  0.00  0.00    +0.000 C 
BRANCH   9  10
ATOM     10  N   UNL     1      49.452   6.622  12.873  0.00  0.00    +0.000 NA
ATOM     11  H   UNL     1      49.290   6.337  11.910  0.00  0.00    +0.000 HD
ATOM     12  H   UNL     1      49.018   5.912  13.462  0.00  0.00    +0.000 HD
ENDBRANCH   9  10
ENDBRANCH   3   9
ENDBRANCH   2   7
ENDBRANCH   1   2
BRANCH   1  13
ATOM     13  C   UNL     1      43.607   3.776  10.605  0.00  0.00    +0.000 C 
BRANCH  13  14
ATOM     14  C   UNL     1      44.583   3.405   9.513  0.00  0.00    +0.000 A 
ATOM     15  C   UNL     1      44.933   2.068   9.291  0.00  0.00    +0.000 A 
ATOM     16  C   UNL     1      45.879   1.734   8.316  0.00  0.00    +0.000 A 
ATOM     17  C   UNL     1      46.483   2.734   7.545  0.00  0.00    +0.000 A 
ATOM     18  C   UNL     1      46.139   4.072   7.761  0.00  0.00    +0.000 A 
ATOM     19  C   UNL     1      45.195   4.403   8.741  0.00  0.00    +0.000 A 
BRANCH  17  20
ATOM     20  C   UNL     1      47.514   2.332   6.550  0.00  0.00    +0.000 C 
ATOM     21  N   UNL     1      47.509   2.966   5.338  0.00  0.00    +0.000 N 
ATOM     22  O   UNL     1      48.326   1.447   6.789  0.00  0.00    +0.000 OA
ATOM     23  H   UNL     1      46.740   3.533   5.017  0.00  0.00    +0.000 HD
ATOM     24  H   UNL     1      48.159   2.613   4.647  0.00  0.00    +0.000 HD
ENDBRANCH  17  20
ENDBRANCH  13  14
ENDBRANCH   1  13
TORSDOF 7
ENDMDL
MODEL 6
REMARK VINA RESULT:    -6.600      2.143      6.299
REMARK INTER + INTRA:         -10.003
REMARK INTER:                  -9.302
REMARK INTRA:                  -0.701
REMARK UNBOUND:                -0.896
REMARK  Name = 
REMARK  7 active torsions:
REMARK  status: ('A' for Active; 'I' for Inactive)
REMARK    1  A    between atoms: N_1  and  C_2
REMARK    2  A    between atoms: C_2  and  C_3
REMARK    3  A    between atoms: C_7  and  O_8
REMARK    4  A    between atoms: O_8  and  C_9
REMARK    5  A    between atoms: C_9  and  C_10
REMARK    6  A    between atoms: C_10  and  C_11
REMARK    7  A    between atoms: C_14  and  C_15
REMARK                            x       y       z     vdW  Elec       q    Type
REMARK                         _______ _______ _______ _____ _____    ______ ____
ROOT
ATOM      1  C   UNL     1      43.456   4.618  10.812  0.00  0.00    +0.000 C 
ENDROOT
BRANCH   1   2
ATOM      2  O   UNL     1      43.728   4.618   9.405  0.00  0.00    +0.000 OA
BRANCH   2   7
ATOM      3  C   UNL     1      46.476   3.085   7.551  0.00  0.00    +0.000 A 
ATOM      4  C   UNL     1      46.336   1.734   7.896  0.00  0.00    +0.000 A 
ATOM      5  C   UNL     1      45.309   1.324   8.744  0.00  0.00    +0.000 A 
ATOM      6  C   UNL     1      44.415   2.259   9.264  0.00  0.00    +0.000 A 
ATOM      7  C   UNL     1      44.539   3.612   8.943  0.00  0.00    +0.000 A 
ATOM      8  C   UNL     1      45.569   4.017   8.085  0.00  0.00    +0.000 A 
BRANCH   3   9
ATOM      9  C   UNL     1      47.600   3.522   6.645  0.00  0.00    +0.000 C 
BRANCH   9  10
ATOM     10  N   UNL     1      48.531   2.432   6.377  0.00  0.00    +0.000 NA
ATOM     11  H   UNL     1      49.201   2.731   5.672  0.00  0.00    +0.000 HD
ATOM     12  H   UNL     1      48.013   1.652   5.972  0.00  0.00    +0.000 HD
ENDBRANCH   9  10
ENDBRANCH   3   9
ENDBRANCH   2   7
ENDBRANCH   1   2
BRANCH   1  13
ATOM     13  C   UNL     1      43.621   6.038  11.360  0.00  0.00    +0.000 C 
BRANCH  13  14
ATOM     14  C   UNL     1      45.005   6.266  11.923  0.00  0.00    +0.000 A 
ATOM     15  C   UNL     1      45.682   7.470  11.692  0.00  0.00    +0.000 A 
ATOM     16  C   UNL     1      46.983   7.655  12.167  0.00  0.00    +0.000 A 
ATOM     17  C   UNL     1      47.625   6.641  12.888  0.00  0.00    +0.000 A 
ATOM     18  C   UNL     1      46.955   5.435  13.123  0.00  0.00    +0.000 A 
ATOM     19  C   UNL     1      45.654   5.251  12.641  0.00  0.00    +0.000 A 
BRANCH  17  20
ATOM     20  C   UNL     1      49.024   6.870  13.336  0.00  0.00    +0.000 C 
ATOM     21  N   UNL     1      49.930   7.293  12.403  0.00  0.00    +0.000 N 
ATOM     22  O   UNL     1      49.370   6.664  14.493  0.00  0.00    +0.000 OA
ATOM     23  H   UNL     1      49.751   7.266  11.410  0.00  0.00    +0.000 HD
ATOM     24  H   UNL     1      50.893   7.354  12.709  0.00  0.00    +0.000 HD
ENDBRANCH  17  20
ENDBRANCH  13  14
ENDBRANCH   1  13
TORSDOF 7
ENDMDL
MODEL 7
REMARK VINA RESULT:    -6.043      4.618      8.293
REMARK INTER + INTRA:          -9.236
REMARK INTER:                  -8.849
REMARK INTRA:                  -0.387
REMARK UNBOUND:                -0.896
REMARK  Name = 
REMARK  7 active torsions:
REMARK  status: ('A' for Active; 'I' for Inactive)
REMARK    1  A    between atoms: N_1  and  C_2
REMARK    2  A    between atoms: C_2  and  C_3
REMARK    3  A    between atoms: C_7  and  O_8
REMARK    4  A    between atoms: O_8  and  C_9
REMARK    5  A    between atoms: C_9  and  C_10
REMARK    6  A    between atoms: C_10  and  C_11
REMARK    7  A    between atoms: C_14  and  C_15
REMARK                            x       y       z     vdW  Elec       q    Type
REMARK                         _______ _______ _______ _____ _____    ______ ____
ROOT
ATOM      1  C   UNL     1      47.206   4.390  15.590  0.00  0.00    +0.000 C 
ENDROOT
BRANCH   1   2
ATOM      2  O   UNL     1      47.106   3.582  14.411  0.00  0.00    +0.000 OA
BRANCH   2   7
ATOM      3  C   UNL     1      44.924   3.852  11.496  0.00  0.00    +0.000 A 
ATOM      4  C   UNL     1      45.168   5.166  11.075  0.00  0.00    +0.000 A 
ATOM      5  C   UNL     1      46.078   5.969  11.760  0.00  0.00    +0.000 A 
ATOM      6  C   UNL     1      46.750   5.472  12.877  0.00  0.00    +0.000 A 
ATOM      7  C   UNL     1      46.516   4.170  13.321  0.00  0.00    +0.000 A 
ATOM      8  C   UNL     1      45.605   3.365  12.625  0.00  0.00    +0.000 A 
BRANCH   3   9
ATOM      9  C   UNL     1      43.926   2.995  10.758  0.00  0.00    +0.000 C 
BRANCH   9  10
ATOM     10  N   UNL     1      43.062   2.262  11.677  0.00  0.00    +0.000 NA
ATOM     11  H   UNL     1      43.574   1.469  12.057  0.00  0.00    +0.000 HD
ATOM     12  H   UNL     1      42.279   1.875  11.151  0.00  0.00    +0.000 HD
ENDBRANCH   9  10
ENDBRANCH   3   9
ENDBRANCH   2   7
ENDBRANCH   1   2
BRANCH   1  13
ATOM     13  C   UNL     1      47.430   3.486  16.806  0.00  0.00    +0.000 C 
BRANCH  13  14
ATOM     14  C   UNL     1      48.900   3.295  17.100  0.00  0.00    +0.000 A 
ATOM     15  C   UNL     1      49.512   2.050  16.905  0.00  0.00    +0.000 A 
ATOM     16  C   UNL     1      50.859   1.864  17.231  0.00  0.00    +0.000 A 
ATOM     17  C   UNL     1      51.615   2.921  17.751  0.00  0.00    +0.000 A 
ATOM     18  C   UNL     1      51.010   4.166  17.949  0.00  0.00    +0.000 A 
ATOM     19  C   UNL     1      49.660   4.349  17.626  0.00  0.00    +0.000 A 
BRANCH  17  20
ATOM     20  C   UNL     1      53.032   2.660  18.121  0.00  0.00    +0.000 C 
ATOM     21  N   UNL     1      53.308   1.509  18.805  0.00  0.00    +0.000 N 
ATOM     22  O   UNL     1      53.922   3.456  17.851  0.00  0.00    +0.000 OA
ATOM     23  H   UNL     1      52.596   0.940  19.237  0.00  0.00    +0.000 HD
ATOM     24  H   UNL     1      54.262   1.397  19.126  0.00  0.00    +0.000 HD
ENDBRANCH  17  20
ENDBRANCH  13  14
ENDBRANCH   1  13
TORSDOF 7
ENDMDL
MODEL 8
REMARK VINA RESULT:    -5.981      2.446      7.209
REMARK INTER + INTRA:          -9.150
REMARK INTER:                  -8.406
REMARK INTRA:                  -0.744
REMARK UNBOUND:                -0.896
REMARK  Name = 
REMARK  7 active torsions:
REMARK  status: ('A' for Active; 'I' for Inactive)
REMARK    1  A    between atoms: N_1  and  C_2
REMARK    2  A    between atoms: C_2  and  C_3
REMARK    3  A    between atoms: C_7  and  O_8
REMARK    4  A    between atoms: O_8  and  C_9
REMARK    5  A    between atoms: C_9  and  C_10
REMARK    6  A    between atoms: C_10  and  C_11
REMARK    7  A    between atoms: C_14  and  C_15
REMARK                            x       y       z     vdW  Elec       q    Type
REMARK                         _______ _______ _______ _____ _____    ______ ____
ROOT
ATOM      1  C   UNL     1      45.762   6.916  12.355  0.00  0.00    +0.000 C 
ENDROOT
BRANCH   1   2
ATOM      2  O   UNL     1      45.362   6.736  10.991  0.00  0.00    +0.000 OA
BRANCH   2   7
ATOM      3  C   UNL     1      45.296   3.805   8.813  0.00  0.00    +0.000 A 
ATOM      4  C   UNL     1      44.633   2.867   9.615  0.00  0.00    +0.000 A 
ATOM      5  C   UNL     1      44.191   3.214  10.890  0.00  0.00    +0.000 A 
ATOM      6  C   UNL     1      44.412   4.500  11.382  0.00  0.00    +0.000 A 
ATOM      7  C   UNL     1      45.078   5.450  10.606  0.00  0.00    +0.000 A 
ATOM      8  C   UNL     1      45.515   5.097   9.323  0.00  0.00    +0.000 A 
BRANCH   3   9
ATOM      9  C   UNL     1      45.785   3.416   7.440  0.00  0.00    +0.000 C 
BRANCH   9  10
ATOM     10  N   UNL     1      46.957   4.190   7.046  0.00  0.00    +0.000 NA
ATOM     11  H   UNL     1      46.935   4.341   6.040  0.00  0.00    +0.000 HD
ATOM     12  H   UNL     1      47.793   3.638   7.238  0.00  0.00    +0.000 HD
ENDBRANCH   9  10
ENDBRANCH   3   9
ENDBRANCH   2   7
ENDBRANCH   1   2
BRANCH   1  13
ATOM     13  C   UNL     1      47.235   6.528  12.506  0.00  0.00    +0.000 C 
BRANCH  13  14
ATOM     14  C   UNL     1      47.499   5.826  13.818  0.00  0.00    +0.000 A 
ATOM     15  C   UNL     1      46.921   4.580  14.093  0.00  0.00    +0.000 A 
ATOM     16  C   UNL     1      47.123   3.961  15.329  0.00  0.00    +0.000 A 
ATOM     17  C   UNL     1      47.914   4.575  16.308  0.00  0.00    +0.000 A 
ATOM     18  C   UNL     1      48.496   5.819  16.041  0.00  0.00    +0.000 A 
ATOM     19  C   UNL     1      48.287   6.439  14.804  0.00  0.00    +0.000 A 
BRANCH  17  20
ATOM     20  C   UNL     1      48.065   3.895  17.622  0.00  0.00    +0.000 C 
ATOM     21  N   UNL     1      47.147   2.936  17.951  0.00  0.00    +0.000 N 
ATOM     22  O   UNL     1      48.961   4.196  18.401  0.00  0.00    +0.000 OA
ATOM     23  H   UNL     1      46.280   2.810  17.453  0.00  0.00    +0.000 HD
ATOM     24  H   UNL     1      47.215   2.554  18.886  0.00  0.00    +0.000 HD
ENDBRANCH  17  20
ENDBRANCH  13  14
ENDBRANCH   1  13
TORSDOF 7
ENDMDL
MODEL 9
REMARK VINA RESULT:    -5.815      3.064      7.015
REMARK INTER + INTRA:          -8.921
REMARK INTER:                  -8.350
REMARK INTRA:                  -0.571
REMARK UNBOUND:                -0.896
REMARK  Name = 
REMARK  7 active torsions:
REMARK  status: ('A' for Active; 'I' for Inactive)
REMARK    1  A    between atoms: N_1  and  C_2
REMARK    2  A    between atoms: C_2  and  C_3
REMARK    3  A    between atoms: C_7  and  O_8
REMARK    4  A    between atoms: O_8  and  C_9
REMARK    5  A    between atoms: C_9  and  C_10
REMARK    6  A    between atoms: C_10  and  C_11
REMARK    7  A    between atoms: C_14  and  C_15
REMARK                            x       y       z     vdW  Elec       q    Type
REMARK                         _______ _______ _______ _____ _____    ______ ____
ROOT
ATOM      1  C   UNL     1      47.667   6.689  11.890  0.00  0.00    +0.000 C 
ENDROOT
BRANCH   1   2
ATOM      2  O   UNL     1      46.320   6.875  11.442  0.00  0.00    +0.000 OA
BRANCH   2   7
ATOM      3  C   UNL     1      44.281   3.853  11.226  0.00  0.00    +0.000 A 
ATOM      4  C   UNL     1      44.381   3.536   9.865  0.00  0.00    +0.000 A 
ATOM      5  C   UNL     1      45.146   4.328   9.009  0.00  0.00    +0.000 A 
ATOM      6  C   UNL     1      45.812   5.449   9.501  0.00  0.00    +0.000 A 
ATOM      7  C   UNL     1      45.720   5.791  10.852  0.00  0.00    +0.000 A 
ATOM      8  C   UNL     1      44.956   4.988  11.708  0.00  0.00    +0.000 A 
BRANCH   3   9
ATOM      9  C   UNL     1      43.439   3.000  12.141  0.00  0.00    +0.000 C 
BRANCH   9  10
ATOM     10  N   UNL     1      43.102   1.720  11.526  0.00  0.00    +0.000 NA
ATOM     11  H   UNL     1      42.227   1.815  11.017  0.00  0.00    +0.000 HD
ATOM     12  H   UNL     1      42.935   1.037  12.265  0.00  0.00    +0.000 HD
ENDBRANCH   9  10
ENDBRANCH   3   9
ENDBRANCH   2   7
ENDBRANCH   1   2
BRANCH   1  13
ATOM     13  C   UNL     1      47.828   7.302  13.283  0.00  0.00    +0.000 C 
BRANCH  13  14
ATOM     14  C   UNL     1      47.852   6.245  14.363  0.00  0.00    +0.000 A 
ATOM     15  C   UNL     1      47.148   5.045  14.205  0.00  0.00    +0.000 A 
ATOM     16  C   UNL     1      47.128   4.094  15.230  0.00  0.00    +0.000 A 
ATOM     17  C   UNL     1      47.819   4.326  16.425  0.00  0.00    +0.000 A 
ATOM     18  C   UNL     1      48.525   5.522  16.590  0.00  0.00    +0.000 A 
ATOM     19  C   UNL     1      48.539   6.475  15.564  0.00  0.00    +0.000 A 
BRANCH  17  20
ATOM     20  C   UNL     1      47.733   3.302  17.501  0.00  0.00    +0.000 C 
ATOM     21  N   UNL     1      48.839   3.106  18.282  0.00  0.00    +0.000 N 
ATOM     22  O   UNL     1      46.721   2.635  17.672  0.00  0.00    +0.000 OA
ATOM     23  H   UNL     1      49.751   3.465  18.045  0.00  0.00    +0.000 HD
ATOM     24  H   UNL     1      48.788   2.344  18.946  0.00  0.00    +0.000 HD
ENDBRANCH  17  20
ENDBRANCH  13  14
ENDBRANCH   1  13
TORSDOF 7
ENDMDL
