MODEL 1
REMARK VINA RESULT:    -6.278      0.000      0.000
REMARK INTER + INTRA:          -8.091
REMARK INTER:                  -7.562
REMARK INTRA:                  -0.529
REMARK UNBOUND:                -0.529
REMARK  Name = 
REMARK  4 active torsions:
REMARK  status: ('A' for Active; 'I' for Inactive)
REMARK    1  A    between atoms: N_1  and  C_2
REMARK    2  A    between atoms: C_2  and  C_3
REMARK    3  A    between atoms: C_6  and  C_7
REMARK    4  A    between atoms: C_7  and  N_8
REMARK                            x       y       z     vdW  Elec       q    Type
REMARK                         _______ _______ _______ _____ _____    ______ ____
ROOT
ATOM      1  C   UNL     1      48.177   7.947  12.464  0.00  0.00    +0.000 C 
ATOM      2  C   UNL     1      47.832   6.485  12.128  0.00  0.00    +0.000 C 
ATOM      3  C   UNL     1      46.600   5.979  12.878  0.00  0.00    +0.000 C 
ATOM      4  C   UNL     1      45.358   6.873  12.693  0.00  0.00    +0.000 C 
ATOM      5  C   UNL     1      45.699   8.351  12.948  0.00  0.00    +0.000 C 
ATOM      6  C   UNL     1      46.947   8.832  12.208  0.00  0.00    +0.000 C 
ENDROOT
BRANCH   1   7
ATOM      7  C   UNL     1      48.758   8.055  13.891  0.00  0.00    +0.000 C 
BRANCH   7   8
ATOM      8  N   UNL     1      49.757   7.028  14.173  0.00  0.00    +0.000 NA
ATOM      9  H   UNL     1      50.624   7.261  13.691  0.00  0.00    +0.000 HD
ATOM     10  H   UNL     1      49.453   6.138  13.779  0.00  0.00    +0.000 HD
ENDBRANCH   7   8
ENDBRANCH   1   7
BRANCH   4  11
ATOM     11  C   UNL     1      44.672   6.673  11.323  0.00  0.00    +0.000 C 
BRANCH  11  12
ATOM     12  N   UNL     1      44.332   5.281  11.055  0.00  0.00    +0.000 N 
ATOM     13  C   UNL     1      43.512   4.505  11.841  0.00  0.00    +0.000 A 
ATOM     14  C   UNL     1      43.538   3.219  11.343  0.00  0.00    +0.000 A 
ATOM     15  C   UNL     1      44.351   3.228  10.180  0.00  0.00    +0.000 A 
ATOM     16  C   UNL     1      44.756   2.265   9.239  0.00  0.00    +0.000 A 
ATOM     17  C   UNL     1      45.569   2.689   8.189  0.00  0.00    +0.000 A 
ATOM     18  C   UNL     1      45.942   4.024   8.124  0.00  0.00    +0.000 A 
ATOM     19  N   UNL     1      45.602   4.985   9.013  0.00  0.00    +0.000 NA
ATOM     20  C   UNL     1      44.811   4.533  10.007  0.00  0.00    +0.000 A 
ENDBRANCH  11  12
ENDBRANCH   4  11
TORSDOF 4
ENDMDL
MODEL 2
REMARK VINA RESULT:    -6.179      1.836      5.928
REMARK INTER + INTRA:          -7.972
REMARK INTER:                  -7.444
REMARK INTRA:                  -0.528
REMARK UNBOUND:                -0.529
REMARK  Name = 
REMARK  4 active torsions:
REMARK  status: ('A' for Active; 'I' for Inactive)
REMARK    1  A    between atoms: N_1  and  C_2
REMARK    2  A    between atoms: C_2  and  C_3
REMARK    3  A    between atoms: C_6  and  C_7
REMARK    4  A    between atoms: C_7  and  N_8
REMARK                            x       y       z     vdW  Elec       q    Type
REMARK                         _______ _______ _______ _____ _____    ______ ____
ROOT
ATOM      1  C   UNL     1      47.166   2.756   7.236  0.00  0.00    +0.000 C 
ATOM      2  C   UNL     1      46.644   4.085   7.811  0.00  0.00    +0.000 C 
ATOM      3  C   UNL     1      45.128   4.094   8.002  0.00  0.00    +0.000 C 
ATOM      4  C   UNL     1      44.607   2.912   8.841  0.00  0.00    +0.000 C 
ATOM      5  C   UNL     1      45.178   1.578   8.331  0.00  0.00    +0.000 C 
ATOM      6  C   UNL     1      46.692   1.595   8.126  0.00  0.00    +0.000 C 
ENDROOT
BRANCH   1   7
ATOM      7  C   UNL     1      46.781   2.620   5.747  0.00  0.00    +0.000 C 
BRANCH   7   8
ATOM      8  N   UNL     1      47.944   2.504   4.871  0.00  0.00    +0.000 NA
ATOM      9  H   UNL     1      48.776   2.343   5.437  0.00  0.00    +0.000 HD
ATOM     10  H   UNL     1      48.103   3.391   4.395  0.00  0.00    +0.000 HD
ENDBRANCH   7   8
ENDBRANCH   1   7
BRANCH   4  11
ATOM     11  C   UNL     1      44.850   3.096  10.356  0.00  0.00    +0.000 C 
BRANCH  11  12
ATOM     12  N   UNL     1      44.300   4.343  10.873  0.00  0.00    +0.000 N 
ATOM     13  C   UNL     1      42.959   4.623  10.992  0.00  0.00    +0.000 A 
ATOM     14  C   UNL     1      42.833   5.938  11.389  0.00  0.00    +0.000 A 
ATOM     15  C   UNL     1      44.141   6.455  11.577  0.00  0.00    +0.000 A 
ATOM     16  C   UNL     1      44.675   7.692  11.975  0.00  0.00    +0.000 A 
ATOM     17  C   UNL     1      46.063   7.799  12.061  0.00  0.00    +0.000 A 
ATOM     18  C   UNL     1      46.843   6.695  11.749  0.00  0.00    +0.000 A 
ATOM     19  N   UNL     1      46.383   5.491  11.338  0.00  0.00    +0.000 NA
ATOM     20  C   UNL     1      45.037   5.431  11.275  0.00  0.00    +0.000 A 
ENDBRANCH  11  12
ENDBRANCH   4  11
TORSDOF 4
ENDMDL
MODEL 3
REMARK VINA RESULT:    -6.060      1.953      3.008
REMARK INTER + INTRA:          -7.829
REMARK INTER:                  -7.308
REMARK INTRA:                  -0.521
REMARK UNBOUND:                -0.529
REMARK  Name = 
REMARK  4 active torsions:
REMARK  status: ('A' for Active; 'I' for Inactive)
REMARK    1  A    between atoms: N_1  and  C_2
REMARK    2  A    between atoms: C_2  and  C_3
REMARK    3  A    between atoms: C_6  and  C_7
REMARK    4  A    between atoms: C_7  and  N_8
REMARK                            x       y       z     vdW  Elec       q    Type
REMARK                         _______ _______ _______ _____ _____    ______ ____
ROOT
ATOM      1  C   UNL     1      45.446   7.426  11.597  0.00  0.00    +0.000 C 
ATOM      2  C   UNL     1      46.265   6.250  11.034  0.00  0.00    +0.000 C 
ATOM      3  C   UNL     1      45.651   4.889  11.362  0.00  0.00    +0.000 C 
ATOM      4  C   UNL     1      44.177   4.760  10.935  0.00  0.00    +0.000 C 
ATOM      5  C   UNL     1      43.354   5.966  11.420  0.00  0.00    +0.000 C 
ATOM      6  C   UNL     1      43.994   7.316  11.103  0.00  0.00    +0.000 C 
ENDROOT
BRANCH   1   7
ATOM      7  C   UNL     1      45.596   7.509  13.131  0.00  0.00    +0.000 C 
BRANCH   7   8
ATOM      8  N   UNL     1      46.196   8.764  13.573  0.00  0.00    +0.000 NA
ATOM      9  H   UNL     1      46.739   8.597  14.420  0.00  0.00    +0.000 HD
ATOM     10  H   UNL     1      45.461   9.418  13.841  0.00  0.00    +0.000 HD
ENDBRANCH   7   8
ENDBRANCH   1   7
BRANCH   4  11
ATOM     11  C   UNL     1      44.009   4.528   9.416  0.00  0.00    +0.000 C 
BRANCH  11  12
ATOM     12  N   UNL     1      44.630   3.292   8.957  0.00  0.00    +0.000 N 
ATOM     13  C   UNL     1      44.261   2.029   9.360  0.00  0.00    +0.000 A 
ATOM     14  C   UNL     1      45.159   1.132   8.819  0.00  0.00    +0.000 A 
ATOM     15  C   UNL     1      46.065   1.868   8.012  0.00  0.00    +0.000 A 
ATOM     16  C   UNL     1      47.173   1.545   7.209  0.00  0.00    +0.000 A 
ATOM     17  C   UNL     1      47.807   2.587   6.535  0.00  0.00    +0.000 A 
ATOM     18  C   UNL     1      47.326   3.880   6.689  0.00  0.00    +0.000 A 
ATOM     19  N   UNL     1      46.283   4.248   7.466  0.00  0.00    +0.000 NA
ATOM     20  C   UNL     1      45.695   3.210   8.094  0.00  0.00    +0.000 A 
ENDBRANCH  11  12
ENDBRANCH   4  11
TORSDOF 4
ENDMDL
MODEL 4
REMARK VINA RESULT:    -5.494      3.940      5.123
REMARK INTER + INTRA:          -7.147
REMARK INTER:                  -6.952
REMARK INTRA:                  -0.195
REMARK UNBOUND:                -0.529
REMARK  Name = 
REMARK  4 active torsions:
REMARK  status: ('A' for Active; 'I' for Inactive)
REMARK    1  A    between atoms: N_1  and  C_2
REMARK    2  A    between atoms: C_2  and  C_3
REMARK    3  A    between atoms: C_6  and  C_7
REMARK    4  A    between atoms: C_7  and  N_8
REMARK                            x       y       z     vdW  Elec       q    Type
REMARK                         _______ _______ _______ _____ _____    ______ ____
ROOT
ATOM      1  C   UNL     1      49.442   4.025  18.114  0.00  0.00    +0.000 C 
ATOM      2  C   UNL     1      48.492   2.881  17.715  0.00  0.00    +0.000 C 
ATOM      3  C   UNL     1      47.122   3.381  17.255  0.00  0.00    +0.000 C 
ATOM      4  C   UNL     1      47.198   4.426  16.125  0.00  0.00    +0.000 C 
ATOM      5  C   UNL     1      48.202   5.540  16.468  0.00  0.00    +0.000 C 
ATOM      6  C   UNL     1      49.557   5.020  16.948  0.00  0.00    +0.000 C 
ENDROOT
BRANCH   1   7
ATOM      7  C   UNL     1      49.003   4.655  19.453  0.00  0.00    +0.000 C 
BRANCH   7   8
ATOM      8  N   UNL     1      48.633   3.657  20.453  0.00  0.00    +0.000 NA
ATOM      9  H   UNL     1      47.691   3.854  20.791  0.00  0.00    +0.000 HD
ATOM     10  H   UNL     1      49.242   3.745  21.266  0.00  0.00    +0.000 HD
ENDBRANCH   7   8
ENDBRANCH   1   7
BRANCH   4  11
ATOM     11  C   UNL     1      47.491   3.798  14.743  0.00  0.00    +0.000 C 
BRANCH  11  12
ATOM     12  N   UNL     1      46.996   4.605  13.635  0.00  0.00    +0.000 N 
ATOM     13  C   UNL     1      47.524   5.813  13.242  0.00  0.00    +0.000 A 
ATOM     14  C   UNL     1      46.711   6.330  12.256  0.00  0.00    +0.000 A 
ATOM     15  C   UNL     1      45.691   5.378  11.998  0.00  0.00    +0.000 A 
ATOM     16  C   UNL     1      44.593   5.306  11.124  0.00  0.00    +0.000 A 
ATOM     17  C   UNL     1      43.813   4.150  11.159  0.00  0.00    +0.000 A 
ATOM     18  C   UNL     1      44.150   3.139  12.048  0.00  0.00    +0.000 A 
ATOM     19  N   UNL     1      45.179   3.167  12.925  0.00  0.00    +0.000 NA
ATOM     20  C   UNL     1      45.909   4.298  12.853  0.00  0.00    +0.000 A 
ENDBRANCH  11  12
ENDBRANCH   4  11
TORSDOF 4
ENDMDL
MODEL 5
REMARK VINA RESULT:    -5.419      1.712      2.420
REMARK INTER + INTRA:          -7.057
REMARK INTER:                  -7.452
REMARK INTRA:                   0.396
REMARK UNBOUND:                -0.529
REMARK  Name = 
REMARK  4 active torsions:
REMARK  status: ('A' for Active; 'I' for Inactive)
REMARK    1  A    between atoms: N_1  and  C_2
REMARK    2  A    between atoms: C_2  and  C_3
REMARK    3  A    between atoms: C_6  and  C_7
REMARK    4  A    between atoms: C_7  and  N_8
REMARK                            x       y       z     vdW  Elec       q    Type
REMARK                         _______ _______ _______ _____ _____    ______ ____
ROOT
ATOM      1  C   UNL     1      46.965   4.930  13.301  0.00  0.00    +0.000 C 
ATOM      2  C   UNL     1      46.334   3.740  12.557  0.00  0.00    +0.000 C 
ATOM      3  C   UNL     1      44.809   3.719  12.657  0.00  0.00    +0.000 C 
ATOM      4  C   UNL     1      44.145   5.035  12.211  0.00  0.00    +0.000 C 
ATOM      5  C   UNL     1      44.813   6.247  12.884  0.00  0.00    +0.000 C 
ATOM      6  C   UNL     1      46.338   6.239  12.793  0.00  0.00    +0.000 C 
ENDROOT
BRANCH   1   7
ATOM      7  C   UNL     1      46.873   4.727  14.829  0.00  0.00    +0.000 C 
BRANCH   7   8
ATOM      8  N   UNL     1      47.904   5.457  15.560  0.00  0.00    +0.000 NA
ATOM      9  H   UNL     1      48.660   5.701  14.920  0.00  0.00    +0.000 HD
ATOM     10  H   UNL     1      48.323   4.847  16.261  0.00  0.00    +0.000 HD
ENDBRANCH   7   8
ENDBRANCH   1   7
BRANCH   4  11
ATOM     11  C   UNL     1      44.094   5.193  10.674  0.00  0.00    +0.000 C 
BRANCH  11  12
ATOM     12  N   UNL     1      44.391   3.954   9.965  0.00  0.00    +0.000 N 
ATOM     13  C   UNL     1      43.831   2.730  10.250  0.00  0.00    +0.000 A 
ATOM     14  C   UNL     1      44.454   1.785   9.462  0.00  0.00    +0.000 A 
ATOM     15  C   UNL     1      45.379   2.465   8.628  0.00  0.00    +0.000 A 
ATOM     16  C   UNL     1      46.287   2.081   7.627  0.00  0.00    +0.000 A 
ATOM     17  C   UNL     1      47.027   3.086   7.005  0.00  0.00    +0.000 A 
ATOM     18  C   UNL     1      46.838   4.403   7.402  0.00  0.00    +0.000 A 
ATOM     19  N   UNL     1      45.998   4.824   8.374  0.00  0.00    +0.000 NA
ATOM     20  C   UNL     1      45.299   3.821   8.943  0.00  0.00    +0.000 A 
ENDBRANCH  11  12
ENDBRANCH   4  11
TORSDOF 4
ENDMDL
MODEL 6
REMARK VINA RESULT:    -5.413      3.231      6.753
REMARK INTER + INTRA:          -7.049
REMARK INTER:                  -6.835
REMARK INTRA:                  -0.214
REMARK UNBOUND:                -0.529
REMARK  Name = 
REMARK  4 active torsions:
REMARK  status: ('A' for Active; 'I' for Inactive)
REMARK    1  A    between atoms: N_1  and  C_2
REMARK    2  A    between atoms: C_2  and  C_3
REMARK    3  A    between atoms: C_6  and  C_7
REMARK    4  A    between atoms: C_7  and  N_8
REMARK                            x       y       z     vdW  Elec       q    Type
REMARK                         _______ _______ _______ _____ _____    ______ ____
ROOT
ATOM      1  C   UNL     1      44.530   5.200  10.856  0.00  0.00    +0.000 C 
ATOM      2  C   UNL     1      45.303   6.434  11.355  0.00  0.00    +0.000 C 
ATOM      3  C   UNL     1      45.267   6.581  12.876  0.00  0.00    +0.000 C 
ATOM      4  C   UNL     1      45.739   5.321  13.627  0.00  0.00    +0.000 C 
ATOM      5  C   UNL     1      45.035   4.063  13.090  0.00  0.00    +0.000 C 
ATOM      6  C   UNL     1      45.062   3.945  11.567  0.00  0.00    +0.000 C 
ENDROOT
BRANCH   1   7
ATOM      7  C   UNL     1      43.008   5.418  10.996  0.00  0.00    +0.000 C 
BRANCH   7   8
ATOM      8  N   UNL     1      42.635   6.830  10.977  0.00  0.00    +0.000 NA
ATOM      9  H   UNL     1      42.639   7.191  11.931  0.00  0.00    +0.000 HD
ATOM     10  H   UNL     1      41.674   6.925  10.650  0.00  0.00    +0.000 HD
ENDBRANCH   7   8
ENDBRANCH   1   7
BRANCH   4  11
ATOM     11  C   UNL     1      47.276   5.160  13.626  0.00  0.00    +0.000 C 
BRANCH  11  12
ATOM     12  N   UNL     1      47.887   5.531  14.897  0.00  0.00    +0.000 N 
ATOM     13  C   UNL     1      48.579   6.697  15.128  0.00  0.00    +0.000 A 
ATOM     14  C   UNL     1      49.116   6.627  16.396  0.00  0.00    +0.000 A 
ATOM     15  C   UNL     1      48.685   5.406  16.977  0.00  0.00    +0.000 A 
ATOM     16  C   UNL     1      48.876   4.770  18.216  0.00  0.00    +0.000 A 
ATOM     17  C   UNL     1      48.243   3.544  18.416  0.00  0.00    +0.000 A 
ATOM     18  C   UNL     1      47.469   3.011  17.395  0.00  0.00    +0.000 A 
ATOM     19  N   UNL     1      47.273   3.568  16.178  0.00  0.00    +0.000 NA
ATOM     20  C   UNL     1      47.897   4.754  16.030  0.00  0.00    +0.000 A 
ENDBRANCH  11  12
ENDBRANCH   4  11
TORSDOF 4
ENDMDL
MODEL 7
REMARK VINA RESULT:    -5.318      2.067      6.242
REMARK INTER + INTRA:          -6.935
REMARK INTER:                  -6.653
REMARK INTRA:                  -0.281
REMARK UNBOUND:                -0.529
REMARK  Name = 
REMARK  4 active torsions:
REMARK  status: ('A' for Active; 'I' for Inactive)
REMARK    1  A    between atoms: N_1  and  C_2
REMARK    2  A    between atoms: C_2  and  C_3
REMARK    3  A    between atoms: C_6  and  C_7
REMARK    4  A    between atoms: C_7  and  N_8
REMARK                            x       y       z     vdW  Elec       q    Type
REMARK                         _______ _______ _______ _____ _____    ______ ____
ROOT
ATOM      1  C   UNL     1      44.935   3.576  11.120  0.00  0.00    +0.000 C 
ATOM      2  C   UNL     1      45.317   4.865  10.370  0.00  0.00    +0.000 C 
ATOM      3  C   UNL     1      45.025   6.130  11.178  0.00  0.00    +0.000 C 
ATOM      4  C   UNL     1      45.663   6.124  12.580  0.00  0.00    +0.000 C 
ATOM      5  C   UNL     1      45.360   4.809  13.320  0.00  0.00    +0.000 C 
ATOM      6  C   UNL     1      45.637   3.557  12.488  0.00  0.00    +0.000 C 
ENDROOT
BRANCH   1   7
ATOM      7  C   UNL     1      43.401   3.417  11.184  0.00  0.00    +0.000 C 
BRANCH   7   8
ATOM      8  N   UNL     1      42.989   2.107  11.678  0.00  0.00    +0.000 NA
ATOM      9  H   UNL     1      42.041   1.909  11.356  0.00  0.00    +0.000 HD
ATOM     10  H   UNL     1      42.935   2.127  12.696  0.00  0.00    +0.000 HD
ENDBRANCH   7   8
ENDBRANCH   1   7
BRANCH   4  11
ATOM     11  C   UNL     1      47.178   6.428  12.553  0.00  0.00    +0.000 C 
BRANCH  11  12
ATOM     12  N   UNL     1      47.471   7.841  12.349  0.00  0.00    +0.000 N 
ATOM     13  C   UNL     1      46.564   8.863  12.503  0.00  0.00    +0.000 A 
ATOM     14  C   UNL     1      47.170  10.033  12.094  0.00  0.00    +0.000 A 
ATOM     15  C   UNL     1      48.507   9.721  11.738  0.00  0.00    +0.000 A 
ATOM     16  C   UNL     1      49.610  10.454  11.267  0.00  0.00    +0.000 A 
ATOM     17  C   UNL     1      50.801   9.761  11.050  0.00  0.00    +0.000 A 
ATOM     18  C   UNL     1      50.841   8.397  11.301  0.00  0.00    +0.000 A 
ATOM     19  N   UNL     1      49.805   7.641  11.731  0.00  0.00    +0.000 NA
ATOM     20  C   UNL     1      48.677   8.351  11.933  0.00  0.00    +0.000 A 
ENDBRANCH  11  12
ENDBRANCH   4  11
TORSDOF 4
ENDMDL
MODEL 8
REMARK VINA RESULT:    -5.301      2.127      6.820
REMARK INTER + INTRA:          -6.914
REMARK INTER:                  -6.490
REMARK INTRA:                  -0.424
REMARK UNBOUND:                -0.529
REMARK  Name = 
REMARK  4 active torsions:
REMARK  status: ('A' for Active; 'I' for Inactive)
REMARK    1  A    between atoms: N_1  and  C_2
REMARK    2  A    between atoms: C_2  and  C_3
REMARK    3  A    between atoms: C_6  and  C_7
REMARK    4  A    between atoms: C_7  and  N_8
REMARK                            x       y       z     vdW  Elec       q    Type
REMARK                         _______ _______ _______ _____ _____    ______ ____
ROOT
ATOM      1  C   UNL     1      44.916   3.660  11.193  0.00  0.00    +0.000 C 
ATOM      2  C   UNL     1      45.280   4.999  10.530  0.00  0.00    +0.000 C 
ATOM      3  C   UNL     1      45.069   6.197  11.456  0.00  0.00    +0.000 C 
ATOM      4  C   UNL     1      45.792   6.062  12.809  0.00  0.00    +0.000 C 
ATOM      5  C   UNL     1      45.504   4.696  13.456  0.00  0.00    +0.000 C 
ATOM      6  C   UNL     1      45.699   3.513  12.508  0.00  0.00    +0.000 C 
ENDROOT
BRANCH   1   7
ATOM      7  C   UNL     1      43.385   3.525  11.341  0.00  0.00    +0.000 C 
BRANCH   7   8
ATOM      8  N   UNL     1      42.968   2.170  11.691  0.00  0.00    +0.000 NA
ATOM      9  H   UNL     1      42.844   2.107  12.701  0.00  0.00    +0.000 HD
ATOM     10  H   UNL     1      43.714   1.513  11.464  0.00  0.00    +0.000 HD
ENDBRANCH   7   8
ENDBRANCH   1   7
BRANCH   4  11
ATOM     11  C   UNL     1      47.310   6.339  12.711  0.00  0.00    +0.000 C 
BRANCH  11  12
ATOM     12  N   UNL     1      47.789   7.253  13.741  0.00  0.00    +0.000 N 
ATOM     13  C   UNL     1      47.821   8.623  13.625  0.00  0.00    +0.000 A 
ATOM     14  C   UNL     1      48.458   9.129  14.739  0.00  0.00    +0.000 A 
ATOM     15  C   UNL     1      48.768   8.035  15.588  0.00  0.00    +0.000 A 
ATOM     16  C   UNL     1      49.390   7.891  16.840  0.00  0.00    +0.000 A 
ATOM     17  C   UNL     1      49.488   6.604  17.368  0.00  0.00    +0.000 A 
ATOM     18  C   UNL     1      48.979   5.537  16.640  0.00  0.00    +0.000 A 
ATOM     19  N   UNL     1      48.394   5.617  15.423  0.00  0.00    +0.000 NA
ATOM     20  C   UNL     1      48.315   6.879  14.954  0.00  0.00    +0.000 A 
ENDBRANCH  11  12
ENDBRANCH   4  11
TORSDOF 4
ENDMDL
MODEL 9
REMARK VINA RESULT:    -4.903      2.240      6.263
REMARK INTER + INTRA:          -6.435
REMARK INTER:                  -6.019
REMARK INTRA:                  -0.416
REMARK UNBOUND:                -0.529
REMARK  Name = 
REMARK  4 active torsions:
REMARK  status: ('A' for Active; 'I' for Inactive)
REMARK    1  A    between atoms: N_1  and  C_2
REMARK    2  A    between atoms: C_2  and  C_3
REMARK    3  A    between atoms: C_6  and  C_7
REMARK    4  A    between atoms: C_7  and  N_8
REMARK                            x       y       z     vdW  Elec       q    Type
REMARK                         _______ _______ _______ _____ _____    ______ ____
ROOT
ATOM      1  C   UNL     1      43.428   4.643  11.998  0.00  0.00    +0.000 C 
ATOM      2  C   UNL     1      44.324   4.377  13.221  0.00  0.00    +0.000 C 
ATOM      3  C   UNL     1      45.814   4.393  12.879  0.00  0.00    +0.000 C 
ATOM      4  C   UNL     1      46.265   5.679  12.162  0.00  0.00    +0.000 C 
ATOM      5  C   UNL     1      45.336   6.008  10.981  0.00  0.00    +0.000 C 
ATOM      6  C   UNL     1      43.850   5.965  11.337  0.00  0.00    +0.000 C 
ENDROOT
BRANCH   1   7
ATOM      7  C   UNL     1      43.424   3.425  11.051  0.00  0.00    +0.000 C 
BRANCH   7   8
ATOM      8  N   UNL     1      43.058   2.183  11.727  0.00  0.00    +0.000 NA
ATOM      9  H   UNL     1      43.466   1.395  11.225  0.00  0.00    +0.000 HD
ATOM     10  H   UNL     1      42.049   2.051  11.676  0.00  0.00    +0.000 HD
ENDBRANCH   7   8
ENDBRANCH   1   7
BRANCH   4  11
ATOM     11  C   UNL     1      46.419   6.881  13.121  0.00  0.00    +0.000 C 
BRANCH  11  12
ATOM     12  N   UNL     1      47.786   7.058  13.597  0.00  0.00    +0.000 N 
ATOM     13  C   UNL     1      48.284   6.540  14.769  0.00  0.00    +0.000 A 
ATOM     14  C   UNL     1      49.563   7.029  14.939  0.00  0.00    +0.000 A 
ATOM     15  C   UNL     1      49.873   7.821  13.803  0.00  0.00    +0.000 A 
ATOM     16  C   UNL     1      50.989   8.563  13.380  0.00  0.00    +0.000 A 
ATOM     17  C   UNL     1      50.907   9.206  12.146  0.00  0.00    +0.000 A 
ATOM     18  C   UNL     1      49.740   9.089  11.402  0.00  0.00    +0.000 A 
ATOM     19  N   UNL     1      48.631   8.409  11.772  0.00  0.00    +0.000 NA
ATOM     20  C   UNL     1      48.756   7.799  12.968  0.00  0.00    +0.000 A 
ENDBRANCH  11  12
ENDBRANCH   4  11
TORSDOF 4
ENDMDL
