MODEL 1
REMARK VINA RESULT:    -8.024      0.000      0.000
REMARK INTER + INTRA:         -10.965
REMARK INTER:                 -10.369
REMARK INTRA:                  -0.596
REMARK UNBOUND:                -0.596
REMARK  Name = 
REMARK  5 active torsions:
REMARK  status: ('A' for Active; 'I' for Inactive)
REMARK    1  A    between atoms: C_2  and  C_4
REMARK    2  A    between atoms: C_7  and  N_8
REMARK    3  A    between atoms: N_8  and  C_9
REMARK    4  A    between atoms: C_9  and  C_10
REMARK    5  A    between atoms: C_14  and  C_15
REMARK                            x       y       z     vdW  Elec       q    Type
REMARK                         _______ _______ _______ _____ _____    ______ ____
ROOT
ATOM      1  N   UNL     1      43.788   4.750   9.847  0.00  0.00    +0.000 N 
ATOM      2  H   UNL     1      42.897   4.728   9.352  0.00  0.00    +0.000 HD
ENDROOT
BRANCH   1   6
ATOM      3  C   UNL     1      46.457   2.514   7.685  0.00  0.00    +0.000 A 
ATOM      4  C   UNL     1      46.376   3.889   7.557  0.00  0.00    +0.000 A 
ATOM      5  N   UNL     1      45.488   4.633   8.270  0.00  0.00    +0.000 NA
ATOM      6  C   UNL     1      44.699   3.972   9.143  0.00  0.00    +0.000 A 
ATOM      7  C   UNL     1      44.781   2.575   9.233  0.00  0.00    +0.000 A 
ATOM      8  N   UNL     1      45.651   1.812   8.527  0.00  0.00    +0.000 NA
BRANCH   3  10
ATOM      9  N   UNL     1      48.511   2.451   6.418  0.00  0.00    +0.000 N 
ATOM     10  C   UNL     1      47.430   1.740   6.871  0.00  0.00    +0.000 C 
ATOM     11  O   UNL     1      47.287   0.552   6.632  0.00  0.00    +0.000 OA
ATOM     12  H   UNL     1      49.236   1.977   5.898  0.00  0.00    +0.000 HD
ATOM     13  H   UNL     1      48.614   3.427   6.670  0.00  0.00    +0.000 HD
ENDBRANCH   3  10
ENDBRANCH   1   6
BRANCH   1  14
ATOM     14  C   UNL     1      43.596   4.431  11.259  0.00  0.00    +0.000 C 
BRANCH  14  15
ATOM     15  C   UNL     1      44.790   4.886  12.072  0.00  0.00    +0.000 A 
ATOM     16  C   UNL     1      45.574   3.944  12.733  0.00  0.00    +0.000 A 
ATOM     17  C   UNL     1      46.649   4.381  13.497  0.00  0.00    +0.000 A 
ATOM     18  C   UNL     1      46.910   5.744  13.587  0.00  0.00    +0.000 A 
ATOM     19  C   UNL     1      46.086   6.643  12.908  0.00  0.00    +0.000 A 
ATOM     20  N   UNL     1      45.029   6.220  12.153  0.00  0.00    +0.000 NA
BRANCH  19  21
ATOM     21  C   UNL     1      46.359   8.139  13.012  0.00  0.00    +0.000 C 
ATOM     22  F   UNL     1      47.190   8.467  14.047  0.00  0.00    +0.000 F 
ATOM     23  F   UNL     1      46.950   8.656  11.896  0.00  0.00    +0.000 F 
ATOM     24  F   UNL     1      45.227   8.874  13.213  0.00  0.00    +0.000 F 
ENDBRANCH  19  21
ENDBRANCH  14  15
ENDBRANCH   1  14
TORSDOF 5
ENDMDL
MODEL 2
REMARK VINA RESULT:    -7.893      1.987      2.507
REMARK INTER + INTRA:         -10.797
REMARK INTER:                 -10.314
REMARK INTRA:                  -0.482
REMARK UNBOUND:                -0.596
REMARK  Name = 
REMARK  5 active torsions:
REMARK  status: ('A' for Active; 'I' for Inactive)
REMARK    1  A    between atoms: C_2  and  C_4
REMARK    2  A    between atoms: C_7  and  N_8
REMARK    3  A    between atoms: N_8  and  C_9
REMARK    4  A    between atoms: C_9  and  C_10
REMARK    5  A    between atoms: C_14  and  C_15
REMARK                            x       y       z     vdW  Elec       q    Type
REMARK                         _______ _______ _______ _____ _____    ______ ____
ROOT
ATOM      1  N   UNL     1      43.888   4.845   9.824  0.00  0.00    +0.000 N 
ATOM      2  H   UNL     1      42.964   4.771   9.399  0.00  0.00    +0.000 HD
ENDROOT
BRANCH   1   6
ATOM      3  C   UNL     1      46.406   2.350   7.766  0.00  0.00    +0.000 A 
ATOM      4  C   UNL     1      46.387   3.717   7.551  0.00  0.00    +0.000 A 
ATOM      5  N   UNL     1      45.549   4.545   8.229  0.00  0.00    +0.000 NA
ATOM      6  C   UNL     1      44.748   3.980   9.156  0.00  0.00    +0.000 A 
ATOM      7  C   UNL     1      44.766   2.590   9.335  0.00  0.00    +0.000 A 
ATOM      8  N   UNL     1      45.586   1.742   8.666  0.00  0.00    +0.000 NA
BRANCH   3  10
ATOM      9  N   UNL     1      48.461   2.093   6.525  0.00  0.00    +0.000 N 
ATOM     10  C   UNL     1      47.325   1.480   6.988  0.00  0.00    +0.000 C 
ATOM     11  O   UNL     1      47.096   0.299   6.784  0.00  0.00    +0.000 OA
ATOM     12  H   UNL     1      49.152   1.550   6.029  0.00  0.00    +0.000 HD
ATOM     13  H   UNL     1      48.635   3.066   6.748  0.00  0.00    +0.000 HD
ENDBRANCH   3  10
ENDBRANCH   1   6
BRANCH   1  14
ATOM     14  C   UNL     1      43.797   4.699  11.274  0.00  0.00    +0.000 C 
BRANCH  14  15
ATOM     15  C   UNL     1      45.033   5.265  11.942  0.00  0.00    +0.000 A 
ATOM     16  C   UNL     1      45.678   6.365  11.382  0.00  0.00    +0.000 A 
ATOM     17  C   UNL     1      46.825   6.854  11.993  0.00  0.00    +0.000 A 
ATOM     18  C   UNL     1      47.302   6.232  13.142  0.00  0.00    +0.000 A 
ATOM     19  C   UNL     1      46.618   5.130  13.656  0.00  0.00    +0.000 A 
ATOM     20  N   UNL     1      45.488   4.644  13.061  0.00  0.00    +0.000 NA
BRANCH  19  21
ATOM     21  C   UNL     1      47.143   4.435  14.907  0.00  0.00    +0.000 C 
ATOM     22  F   UNL     1      48.249   5.039  15.437  0.00  0.00    +0.000 F 
ATOM     23  F   UNL     1      46.231   4.396  15.921  0.00  0.00    +0.000 F 
ATOM     24  F   UNL     1      47.512   3.141  14.683  0.00  0.00    +0.000 F 
ENDBRANCH  19  21
ENDBRANCH  14  15
ENDBRANCH   1  14
TORSDOF 5
ENDMDL
MODEL 3
REMARK VINA RESULT:    -7.734      0.607      1.347
REMARK INTER + INTRA:         -10.591
REMARK INTER:                  -9.957
REMARK INTRA:                  -0.634
REMARK UNBOUND:                -0.596
REMARK  Name = 
REMARK  5 active torsions:
REMARK  status: ('A' for Active; 'I' for Inactive)
REMARK    1  A    between atoms: C_2  and  C_4
REMARK    2  A    between atoms: C_7  and  N_8
REMARK    3  A    between atoms: N_8  and  C_9
REMARK    4  A    between atoms: C_9  and  C_10
REMARK    5  A    between atoms: C_14  and  C_15
REMARK                            x       y       z     vdW  Elec       q    Type
REMARK                         _______ _______ _______ _____ _____    ______ ____
ROOT
ATOM      1  N   UNL     1      43.752   4.702   9.961  0.00  0.00    +0.000 N 
ATOM      2  H   UNL     1      42.835   4.649   9.517  0.00  0.00    +0.000 HD
ENDROOT
BRANCH   1   6
ATOM      3  C   UNL     1      46.457   2.603   7.709  0.00  0.00    +0.000 A 
ATOM      4  C   UNL     1      45.564   1.976   8.559  0.00  0.00    +0.000 A 
ATOM      5  N   UNL     1      44.669   2.671   9.311  0.00  0.00    +0.000 NA
ATOM      6  C   UNL     1      44.663   4.012   9.169  0.00  0.00    +0.000 A 
ATOM      7  C   UNL     1      45.596   4.625   8.323  0.00  0.00    +0.000 A 
ATOM      8  N   UNL     1      46.503   3.956   7.570  0.00  0.00    +0.000 NA
BRANCH   3  10
ATOM      9  N   UNL     1      48.511   2.502   6.443  0.00  0.00    +0.000 N 
ATOM     10  C   UNL     1      47.431   1.805   6.920  0.00  0.00    +0.000 C 
ATOM     11  O   UNL     1      47.290   0.609   6.720  0.00  0.00    +0.000 OA
ATOM     12  H   UNL     1      49.235   2.013   5.939  0.00  0.00    +0.000 HD
ATOM     13  H   UNL     1      48.611   3.486   6.663  0.00  0.00    +0.000 HD
ENDBRANCH   3  10
ENDBRANCH   1   6
BRANCH   1  14
ATOM     14  C   UNL     1      43.663   4.309  11.364  0.00  0.00    +0.000 C 
BRANCH  14  15
ATOM     15  C   UNL     1      44.851   4.840  12.140  0.00  0.00    +0.000 A 
ATOM     16  C   UNL     1      45.701   3.952  12.794  0.00  0.00    +0.000 A 
ATOM     17  C   UNL     1      46.769   4.458  13.523  0.00  0.00    +0.000 A 
ATOM     18  C   UNL     1      46.960   5.834  13.586  0.00  0.00    +0.000 A 
ATOM     19  C   UNL     1      46.073   6.677  12.915  0.00  0.00    +0.000 A 
ATOM     20  N   UNL     1      45.021   6.186  12.193  0.00  0.00    +0.000 NA
BRANCH  19  21
ATOM     21  C   UNL     1      46.268   8.187  12.989  0.00  0.00    +0.000 C 
ATOM     22  F   UNL     1      45.093   8.883  13.037  0.00  0.00    +0.000 F 
ATOM     23  F   UNL     1      46.969   8.583  14.090  0.00  0.00    +0.000 F 
ATOM     24  F   UNL     1      46.940   8.690  11.913  0.00  0.00    +0.000 F 
ENDBRANCH  19  21
ENDBRANCH  14  15
ENDBRANCH   1  14
TORSDOF 5
ENDMDL
MODEL 4
REMARK VINA RESULT:    -7.290      4.444      6.922
REMARK INTER + INTRA:         -10.017
REMARK INTER:                  -9.882
REMARK INTRA:                  -0.135
REMARK UNBOUND:                -0.596
REMARK  Name = 
REMARK  5 active torsions:
REMARK  status: ('A' for Active; 'I' for Inactive)
REMARK    1  A    between atoms: C_2  and  C_4
REMARK    2  A    between atoms: C_7  and  N_8
REMARK    3  A    between atoms: N_8  and  C_9
REMARK    4  A    between atoms: C_9  and  C_10
REMARK    5  A    between atoms: C_14  and  C_15
REMARK                            x       y       z     vdW  Elec       q    Type
REMARK                         _______ _______ _______ _____ _____    ______ ____
ROOT
ATOM      1  N   UNL     1      43.508   3.561  11.713  0.00  0.00    +0.000 N 
ATOM      2  H   UNL     1      43.053   4.295  11.170  0.00  0.00    +0.000 HD
ENDROOT
BRANCH   1   6
ATOM      3  C   UNL     1      46.654   5.140  13.813  0.00  0.00    +0.000 A 
ATOM      4  C   UNL     1      46.523   3.780  13.595  0.00  0.00    +0.000 A 
ATOM      5  N   UNL     1      45.478   3.254  12.903  0.00  0.00    +0.000 NA
ATOM      6  C   UNL     1      44.577   4.124  12.401  0.00  0.00    +0.000 A 
ATOM      7  C   UNL     1      44.717   5.494  12.659  0.00  0.00    +0.000 A 
ATOM      8  N   UNL     1      45.745   6.042  13.353  0.00  0.00    +0.000 NA
BRANCH   3  10
ATOM      9  N   UNL     1      47.742   5.456  15.945  0.00  0.00    +0.000 N 
ATOM     10  C   UNL     1      47.803   5.669  14.592  0.00  0.00    +0.000 C 
ATOM     11  O   UNL     1      48.744   6.242  14.067  0.00  0.00    +0.000 OA
ATOM     12  H   UNL     1      48.511   5.748  16.530  0.00  0.00    +0.000 HD
ATOM     13  H   UNL     1      46.962   4.942  16.339  0.00  0.00    +0.000 HD
ENDBRANCH   3  10
ENDBRANCH   1   6
BRANCH   1  14
ATOM     14  C   UNL     1      43.800   2.407  10.867  0.00  0.00    +0.000 C 
BRANCH  14  15
ATOM     15  C   UNL     1      44.671   2.813   9.697  0.00  0.00    +0.000 A 
ATOM     16  C   UNL     1      44.666   4.135   9.259  0.00  0.00    +0.000 A 
ATOM     17  C   UNL     1      45.451   4.484   8.167  0.00  0.00    +0.000 A 
ATOM     18  C   UNL     1      46.215   3.508   7.538  0.00  0.00    +0.000 A 
ATOM     19  C   UNL     1      46.176   2.197   8.017  0.00  0.00    +0.000 A 
ATOM     20  N   UNL     1      45.409   1.847   9.092  0.00  0.00    +0.000 NA
BRANCH  19  21
ATOM     21  C   UNL     1      47.002   1.119   7.324  0.00  0.00    +0.000 C 
ATOM     22  F   UNL     1      46.855  -0.119   7.886  0.00  0.00    +0.000 F 
ATOM     23  F   UNL     1      46.680   0.959   6.008  0.00  0.00    +0.000 F 
ATOM     24  F   UNL     1      48.342   1.372   7.356  0.00  0.00    +0.000 F 
ENDBRANCH  19  21
ENDBRANCH  14  15
ENDBRANCH   1  14
TORSDOF 5
ENDMDL
MODEL 5
REMARK VINA RESULT:    -7.146      1.474      2.190
REMARK INTER + INTRA:          -9.831
REMARK INTER:                  -9.301
REMARK INTRA:                  -0.531
REMARK UNBOUND:                -0.596
REMARK  Name = 
REMARK  5 active torsions:
REMARK  status: ('A' for Active; 'I' for Inactive)
REMARK    1  A    between atoms: C_2  and  C_4
REMARK    2  A    between atoms: C_7  and  N_8
REMARK    3  A    between atoms: N_8  and  C_9
REMARK    4  A    between atoms: C_9  and  C_10
REMARK    5  A    between atoms: C_14  and  C_15
REMARK                            x       y       z     vdW  Elec       q    Type
REMARK                         _______ _______ _______ _____ _____    ______ ____
ROOT
ATOM      1  N   UNL     1      43.791   3.697  10.468  0.00  0.00    +0.000 N 
ATOM      2  H   UNL     1      43.088   2.960  10.511  0.00  0.00    +0.000 HD
ENDROOT
BRANCH   1   6
ATOM      3  C   UNL     1      46.457   2.752   7.503  0.00  0.00    +0.000 A 
ATOM      4  C   UNL     1      45.942   1.797   8.361  0.00  0.00    +0.000 A 
ATOM      5  N   UNL     1      45.061   2.109   9.348  0.00  0.00    +0.000 NA
ATOM      6  C   UNL     1      44.678   3.399   9.440  0.00  0.00    +0.000 A 
ATOM      7  C   UNL     1      45.236   4.353   8.577  0.00  0.00    +0.000 A 
ATOM      8  N   UNL     1      46.121   4.068   7.591  0.00  0.00    +0.000 NA
BRANCH   3  10
ATOM      9  N   UNL     1      47.339   3.076   5.278  0.00  0.00    +0.000 N 
ATOM     10  C   UNL     1      47.432   2.368   6.449  0.00  0.00    +0.000 C 
ATOM     11  O   UNL     1      48.268   1.494   6.615  0.00  0.00    +0.000 OA
ATOM     12  H   UNL     1      48.001   2.900   4.537  0.00  0.00    +0.000 HD
ATOM     13  H   UNL     1      46.657   3.820   5.193  0.00  0.00    +0.000 HD
ENDBRANCH   3  10
ENDBRANCH   1   6
BRANCH   1  14
ATOM     14  C   UNL     1      44.365   3.933  11.790  0.00  0.00    +0.000 C 
BRANCH  14  15
ATOM     15  C   UNL     1      44.857   5.361  11.908  0.00  0.00    +0.000 A 
ATOM     16  C   UNL     1      44.045   6.408  11.482  0.00  0.00    +0.000 A 
ATOM     17  C   UNL     1      44.523   7.709  11.572  0.00  0.00    +0.000 A 
ATOM     18  C   UNL     1      45.799   7.932  12.078  0.00  0.00    +0.000 A 
ATOM     19  C   UNL     1      46.572   6.843  12.484  0.00  0.00    +0.000 A 
ATOM     20  N   UNL     1      46.107   5.560  12.401  0.00  0.00    +0.000 NA
BRANCH  19  21
ATOM     21  C   UNL     1      47.976   7.078  13.028  0.00  0.00    +0.000 C 
ATOM     22  F   UNL     1      48.858   6.087  12.697  0.00  0.00    +0.000 F 
ATOM     23  F   UNL     1      48.541   8.233  12.572  0.00  0.00    +0.000 F 
ATOM     24  F   UNL     1      48.014   7.153  14.390  0.00  0.00    +0.000 F 
ENDBRANCH  19  21
ENDBRANCH  14  15
ENDBRANCH   1  14
TORSDOF 5
ENDMDL
MODEL 6
REMARK VINA RESULT:    -6.938      4.247      6.848
REMARK INTER + INTRA:          -9.562
REMARK INTER:                  -9.517
REMARK INTRA:                  -0.045
REMARK UNBOUND:                -0.596
REMARK  Name = 
REMARK  5 active torsions:
REMARK  status: ('A' for Active; 'I' for Inactive)
REMARK    1  A    between atoms: C_2  and  C_4
REMARK    2  A    between atoms: C_7  and  N_8
REMARK    3  A    between atoms: N_8  and  C_9
REMARK    4  A    between atoms: C_9  and  C_10
REMARK    5  A    between atoms: C_14  and  C_15
REMARK                            x       y       z     vdW  Elec       q    Type
REMARK                         _______ _______ _______ _____ _____    ______ ____
ROOT
ATOM      1  N   UNL     1      44.879   6.061  10.810  0.00  0.00    +0.000 N 
ATOM      2  H   UNL     1      44.679   7.056  10.909  0.00  0.00    +0.000 HD
ENDROOT
BRANCH   1   6
ATOM      3  C   UNL     1      46.637   4.707  14.255  0.00  0.00    +0.000 A 
ATOM      4  C   UNL     1      47.300   5.535  13.367  0.00  0.00    +0.000 A 
ATOM      5  N   UNL     1      46.720   5.981  12.221  0.00  0.00    +0.000 NA
ATOM      6  C   UNL     1      45.444   5.607  11.996  0.00  0.00    +0.000 A 
ATOM      7  C   UNL     1      44.803   4.746  12.897  0.00  0.00    +0.000 A 
ATOM      8  N   UNL     1      45.363   4.281  14.041  0.00  0.00    +0.000 NA
BRANCH   3  10
ATOM      9  N   UNL     1      47.382   5.136  16.511  0.00  0.00    +0.000 N 
ATOM     10  C   UNL     1      47.317   4.228  15.487  0.00  0.00    +0.000 C 
ATOM     11  O   UNL     1      47.774   3.101  15.588  0.00  0.00    +0.000 OA
ATOM     12  H   UNL     1      47.789   4.862  17.394  0.00  0.00    +0.000 HD
ATOM     13  H   UNL     1      46.957   6.049  16.403  0.00  0.00    +0.000 HD
ENDBRANCH   3  10
ENDBRANCH   1   6
BRANCH   1  14
ATOM     14  C   UNL     1      45.627   5.811   9.581  0.00  0.00    +0.000 C 
BRANCH  14  15
ATOM     15  C   UNL     1      45.468   4.368   9.148  0.00  0.00    +0.000 A 
ATOM     16  C   UNL     1      44.539   3.553   9.790  0.00  0.00    +0.000 A 
ATOM     17  C   UNL     1      44.426   2.226   9.398  0.00  0.00    +0.000 A 
ATOM     18  C   UNL     1      45.244   1.744   8.382  0.00  0.00    +0.000 A 
ATOM     19  C   UNL     1      46.162   2.605   7.778  0.00  0.00    +0.000 A 
ATOM     20  N   UNL     1      46.277   3.913   8.157  0.00  0.00    +0.000 NA
BRANCH  19  21
ATOM     21  C   UNL     1      47.070   2.080   6.672  0.00  0.00    +0.000 C 
ATOM     22  F   UNL     1      46.808   2.631   5.449  0.00  0.00    +0.000 F 
ATOM     23  F   UNL     1      48.392   2.324   6.904  0.00  0.00    +0.000 F 
ATOM     24  F   UNL     1      46.963   0.732   6.490  0.00  0.00    +0.000 F 
ENDBRANCH  19  21
ENDBRANCH  14  15
ENDBRANCH   1  14
TORSDOF 5
ENDMDL
MODEL 7
REMARK VINA RESULT:    -6.858      3.848      6.194
REMARK INTER + INTRA:          -9.458
REMARK INTER:                  -8.829
REMARK INTRA:                  -0.629
REMARK UNBOUND:                -0.596
REMARK  Name = 
REMARK  5 active torsions:
REMARK  status: ('A' for Active; 'I' for Inactive)
REMARK    1  A    between atoms: C_2  and  C_4
REMARK    2  A    between atoms: C_7  and  N_8
REMARK    3  A    between atoms: N_8  and  C_9
REMARK    4  A    between atoms: C_9  and  C_10
REMARK    5  A    between atoms: C_14  and  C_15
REMARK                            x       y       z     vdW  Elec       q    Type
REMARK                         _______ _______ _______ _____ _____    ______ ____
ROOT
ATOM      1  N   UNL     1      43.567   6.115  12.689  0.00  0.00    +0.000 N 
ATOM      2  H   UNL     1      43.061   6.879  13.137  0.00  0.00    +0.000 HD
ENDROOT
BRANCH   1   6
ATOM      3  C   UNL     1      47.573   6.662  13.360  0.00  0.00    +0.000 A 
ATOM      4  C   UNL     1      46.921   5.493  13.712  0.00  0.00    +0.000 A 
ATOM      5  N   UNL     1      45.591   5.312  13.494  0.00  0.00    +0.000 NA
ATOM      6  C   UNL     1      44.929   6.317  12.884  0.00  0.00    +0.000 A 
ATOM      7  C   UNL     1      45.606   7.501  12.563  0.00  0.00    +0.000 A 
ATOM      8  N   UNL     1      46.929   7.709  12.777  0.00  0.00    +0.000 NA
BRANCH   3  10
ATOM      9  N   UNL     1      49.795   7.143  12.544  0.00  0.00    +0.000 N 
ATOM     10  C   UNL     1      49.025   6.824  13.634  0.00  0.00    +0.000 C 
ATOM     11  O   UNL     1      49.501   6.696  14.750  0.00  0.00    +0.000 OA
ATOM     12  H   UNL     1      50.782   7.313  12.666  0.00  0.00    +0.000 HD
ATOM     13  H   UNL     1      49.357   7.278  11.641  0.00  0.00    +0.000 HD
ENDBRANCH   3  10
ENDBRANCH   1   6
BRANCH   1  14
ATOM     14  C   UNL     1      43.115   5.942  11.312  0.00  0.00    +0.000 C 
BRANCH  14  15
ATOM     15  C   UNL     1      43.615   4.626  10.751  0.00  0.00    +0.000 A 
ATOM     16  C   UNL     1      43.245   3.431  11.362  0.00  0.00    +0.000 A 
ATOM     17  C   UNL     1      43.734   2.236  10.851  0.00  0.00    +0.000 A 
ATOM     18  C   UNL     1      44.583   2.263   9.750  0.00  0.00    +0.000 A 
ATOM     19  C   UNL     1      44.925   3.491   9.182  0.00  0.00    +0.000 A 
ATOM     20  N   UNL     1      44.445   4.671   9.677  0.00  0.00    +0.000 NA
BRANCH  19  21
ATOM     21  C   UNL     1      45.864   3.530   7.982  0.00  0.00    +0.000 C 
ATOM     22  F   UNL     1      46.609   4.674   7.915  0.00  0.00    +0.000 F 
ATOM     23  F   UNL     1      46.767   2.508   7.975  0.00  0.00    +0.000 F 
ATOM     24  F   UNL     1      45.206   3.458   6.788  0.00  0.00    +0.000 F 
ENDBRANCH  19  21
ENDBRANCH  14  15
ENDBRANCH   1  14
TORSDOF 5
ENDMDL
MODEL 8
REMARK VINA RESULT:    -6.494      5.257      7.968
REMARK INTER + INTRA:          -8.989
REMARK INTER:                  -8.622
REMARK INTRA:                  -0.367
REMARK UNBOUND:                -0.596
REMARK  Name = 
REMARK  5 active torsions:
REMARK  status: ('A' for Active; 'I' for Inactive)
REMARK    1  A    between atoms: C_2  and  C_4
REMARK    2  A    between atoms: C_7  and  N_8
REMARK    3  A    between atoms: N_8  and  C_9
REMARK    4  A    between atoms: C_9  and  C_10
REMARK    5  A    between atoms: C_14  and  C_15
REMARK                            x       y       z     vdW  Elec       q    Type
REMARK                         _______ _______ _______ _____ _____    ______ ____
ROOT
ATOM      1  N   UNL     1      46.440   4.189  14.535  0.00  0.00    +0.000 N 
ATOM      2  H   UNL     1      45.492   3.902  14.776  0.00  0.00    +0.000 HD
ENDROOT
BRANCH   1   6
ATOM      3  C   UNL     1      48.544   4.417  18.045  0.00  0.00    +0.000 A 
ATOM      4  C   UNL     1      47.673   3.376  17.775  0.00  0.00    +0.000 A 
ATOM      5  N   UNL     1      46.971   3.301  16.613  0.00  0.00    +0.000 NA
ATOM      6  C   UNL     1      47.183   4.278  15.707  0.00  0.00    +0.000 A 
ATOM      7  C   UNL     1      48.048   5.336  16.015  0.00  0.00    +0.000 A 
ATOM      8  N   UNL     1      48.753   5.437  17.169  0.00  0.00    +0.000 NA
BRANCH   3  10
ATOM      9  N   UNL     1      48.594   3.973  20.418  0.00  0.00    +0.000 N 
ATOM     10  C   UNL     1      49.277   4.468  19.337  0.00  0.00    +0.000 C 
ATOM     11  O   UNL     1      50.412   4.907  19.431  0.00  0.00    +0.000 OA
ATOM     12  H   UNL     1      49.049   3.934  21.318  0.00  0.00    +0.000 HD
ATOM     13  H   UNL     1      47.668   3.582  20.292  0.00  0.00    +0.000 HD
ENDBRANCH   3  10
ENDBRANCH   1   6
BRANCH   1  14
ATOM     14  C   UNL     1      46.415   5.370  13.677  0.00  0.00    +0.000 C 
BRANCH  14  15
ATOM     15  C   UNL     1      45.335   5.237  12.623  0.00  0.00    +0.000 A 
ATOM     16  C   UNL     1      44.008   5.495  12.959  0.00  0.00    +0.000 A 
ATOM     17  C   UNL     1      43.027   5.342  11.988  0.00  0.00    +0.000 A 
ATOM     18  C   UNL     1      43.393   4.931  10.710  0.00  0.00    +0.000 A 
ATOM     19  C   UNL     1      44.737   4.681  10.432  0.00  0.00    +0.000 A 
ATOM     20  N   UNL     1      45.708   4.832  11.382  0.00  0.00    +0.000 NA
BRANCH  19  21
ATOM     21  C   UNL     1      45.144   4.219   9.038  0.00  0.00    +0.000 C 
ATOM     22  F   UNL     1      46.145   4.971   8.489  0.00  0.00    +0.000 F 
ATOM     23  F   UNL     1      45.600   2.934   9.011  0.00  0.00    +0.000 F 
ATOM     24  F   UNL     1      44.119   4.273   8.139  0.00  0.00    +0.000 F 
ENDBRANCH  19  21
ENDBRANCH  14  15
ENDBRANCH   1  14
TORSDOF 5
ENDMDL
MODEL 9
REMARK VINA RESULT:    -6.409      3.968      5.657
REMARK INTER + INTRA:          -8.879
REMARK INTER:                  -8.345
REMARK INTRA:                  -0.533
REMARK UNBOUND:                -0.596
REMARK  Name = 
REMARK  5 active torsions:
REMARK  status: ('A' for Active; 'I' for Inactive)
REMARK    1  A    between atoms: C_2  and  C_4
REMARK    2  A    between atoms: C_7  and  N_8
REMARK    3  A    between atoms: N_8  and  C_9
REMARK    4  A    between atoms: C_9  and  C_10
REMARK    5  A    between atoms: C_14  and  C_15
REMARK                            x       y       z     vdW  Elec       q    Type
REMARK                         _______ _______ _______ _____ _____    ______ ____
ROOT
ATOM      1  N   UNL     1      46.922   6.998  13.788  0.00  0.00    +0.000 N 
ATOM      2  H   UNL     1      46.418   7.008  14.675  0.00  0.00    +0.000 HD
ENDROOT
BRANCH   1   6
ATOM      3  C   UNL     1      44.893   4.609  11.149  0.00  0.00    +0.000 A 
ATOM      4  C   UNL     1      45.550   5.758  10.746  0.00  0.00    +0.000 A 
ATOM      5  N   UNL     1      46.219   6.555  11.621  0.00  0.00    +0.000 NA
ATOM      6  C   UNL     1      46.247   6.159  12.910  0.00  0.00    +0.000 A 
ATOM      7  C   UNL     1      45.550   5.006  13.298  0.00  0.00    +0.000 A 
ATOM      8  N   UNL     1      44.869   4.200  12.446  0.00  0.00    +0.000 NA
BRANCH   3  10
ATOM      9  N   UNL     1      44.055   4.316   8.903  0.00  0.00    +0.000 N 
ATOM     10  C   UNL     1      44.158   3.778  10.160  0.00  0.00    +0.000 C 
ATOM     11  O   UNL     1      43.687   2.687  10.440  0.00  0.00    +0.000 OA
ATOM     12  H   UNL     1      43.609   3.785   8.170  0.00  0.00    +0.000 HD
ATOM     13  H   UNL     1      44.493   5.207   8.700  0.00  0.00    +0.000 HD
ENDBRANCH   3  10
ENDBRANCH   1   6
BRANCH   1  14
ATOM     14  C   UNL     1      48.339   6.724  14.009  0.00  0.00    +0.000 C 
BRANCH  14  15
ATOM     15  C   UNL     1      48.578   6.285  15.439  0.00  0.00    +0.000 A 
ATOM     16  C   UNL     1      49.147   7.174  16.347  0.00  0.00    +0.000 A 
ATOM     17  C   UNL     1      49.384   6.746  17.647  0.00  0.00    +0.000 A 
ATOM     18  C   UNL     1      49.055   5.443  18.006  0.00  0.00    +0.000 A 
ATOM     19  C   UNL     1      48.493   4.594  17.051  0.00  0.00    +0.000 A 
ATOM     20  N   UNL     1      48.254   5.009  15.771  0.00  0.00    +0.000 NA
BRANCH  19  21
ATOM     21  C   UNL     1      48.141   3.161  17.434  0.00  0.00    +0.000 C 
ATOM     22  F   UNL     1      48.566   2.815  18.686  0.00  0.00    +0.000 F 
ATOM     23  F   UNL     1      46.799   2.919  17.427  0.00  0.00    +0.000 F 
ATOM     24  F   UNL     1      48.695   2.236  16.598  0.00  0.00    +0.000 F 
ENDBRANCH  19  21
ENDBRANCH  14  15
ENDBRANCH   1  14
TORSDOF 5
ENDMDL
