MODEL 1
REMARK VINA RESULT:    -8.845      0.000      0.000
REMARK INTER + INTRA:         -13.462
REMARK INTER:                 -12.465
REMARK INTRA:                  -0.997
REMARK UNBOUND:                -0.997
REMARK  Name = 
REMARK  8 active torsions:
REMARK  status: ('A' for Active; 'I' for Inactive)
REMARK    1  A    between atoms: C_1  and  C_2
REMARK    2  A    between atoms: C_2  and  N_3
REMARK    3  A    between atoms: C_2  and  C_12
REMARK    4  A    between atoms: N_3  and  C_4
REMARK    5  A    between atoms: C_4  and  C_5
REMARK    6  A    between atoms: C_15  and  C_16
REMARK    7  A    between atoms: C_16  and  N_17
REMARK    8  A    between atoms: C_18  and  C_20
REMARK                            x       y       z     vdW  Elec       q    Type
REMARK                         _______ _______ _______ _____ _____    ______ ____
ROOT
ATOM      1  C   UNL     1      45.409   4.387  12.429  0.00  0.00    +0.000 A 
ATOM      2  C   UNL     1      45.708   5.556  11.728  0.00  0.00    +0.000 A 
ATOM      3  C   UNL     1      46.716   6.402  12.190  0.00  0.00    +0.000 A 
ATOM      4  C   UNL     1      47.431   6.046  13.331  0.00  0.00    +0.000 A 
ATOM      5  C   UNL     1      47.079   4.871  13.974  0.00  0.00    +0.000 A 
ATOM      6  N   UNL     1      46.073   4.075  13.567  0.00  0.00    +0.000 NA
ENDROOT
BRANCH   1   8
ATOM      7  C   UNL     1      43.018   4.137  11.583  0.00  0.00    +0.000 C 
ATOM      8  C   UNL     1      44.312   3.409  11.990  0.00  0.00    +0.000 C 
BRANCH   8   9
ATOM      9  N   UNL     1      44.698   2.513  10.861  0.00  0.00    +0.000 NA
ATOM     10  H   UNL     1      44.289   1.598  11.030  0.00  0.00    +0.000 HD
BRANCH   9  11
ATOM     11  C   UNL     1      44.195   2.992   9.556  0.00  0.00    +0.000 C 
BRANCH  11  12
ATOM     12  C   UNL     1      45.097   2.625   8.347  0.00  0.00    +0.000 C 
ATOM     13  C   UNL     1      45.919   3.841   7.899  0.00  0.00    +0.000 C 
ATOM     14  C   UNL     1      46.748   3.514   6.666  0.00  0.00    +0.000 C 
ATOM     15  C   UNL     1      47.623   2.300   6.932  0.00  0.00    +0.000 C 
ATOM     16  F   UNL     1      48.234   1.939   5.770  0.00  0.00    +0.000 F 
ATOM     17  C   UNL     1      46.792   1.126   7.456  0.00  0.00    +0.000 C 
ATOM     18  N   UNL     1      45.970   1.463   8.633  0.00  0.00    +0.000 NA
ATOM     19  H   UNL     1      46.578   1.698   9.416  0.00  0.00    +0.000 HD
ENDBRANCH  11  12
ENDBRANCH   9  11
ENDBRANCH   8   9
ENDBRANCH   1   8
BRANCH   4  20
ATOM     20  C   UNL     1      48.490   6.931  13.913  0.00  0.00    +0.000 C 
BRANCH  20  21
ATOM     21  N   UNL     1      48.287   7.079  15.331  0.00  0.00    +0.000 N 
ATOM     22  C   UNL     1      49.245   6.696  16.228  0.00  0.00    +0.000 C 
ATOM     23  O   UNL     1      50.330   6.242  15.868  0.00  0.00    +0.000 OA
ATOM     24  H   UNL     1      47.330   7.202  15.655  0.00  0.00    +0.000 HD
BRANCH  22  25
ATOM     25  C   UNL     1      48.935   6.918  17.644  0.00  0.00    +0.000 A 
ATOM     26  C   UNL     1      48.776   8.214  18.116  0.00  0.00    +0.000 A 
ATOM     27  S   UNL     1      48.395   8.294  19.776  0.00  0.00    +0.000 S 
ATOM     28  C   UNL     1      48.478   6.603  19.931  0.00  0.00    +0.000 A 
ATOM     29  N   UNL     1      48.286   5.999  21.139  0.00  0.00    +0.000 NA
ATOM     30  C   UNL     1      48.403   4.714  21.118  0.00  0.00    +0.000 A 
ATOM     31  N   UNL     1      48.684   3.972  20.002  0.00  0.00    +0.000 N 
ATOM     32  C   UNL     1      48.850   4.536  18.756  0.00  0.00    +0.000 A 
ATOM     33  O   UNL     1      49.043   3.841  17.759  0.00  0.00    +0.000 OA
ATOM     34  C   UNL     1      48.756   5.980  18.727  0.00  0.00    +0.000 A 
ATOM     35  H   UNL     1      48.752   2.969  20.050  0.00  0.00    +0.000 HD
ENDBRANCH  22  25
ENDBRANCH  20  21
ENDBRANCH   4  20
TORSDOF 7
ENDMDL
MODEL 2
REMARK VINA RESULT:    -8.634      1.399      2.063
REMARK INTER + INTRA:         -13.164
REMARK INTER:                 -12.114
REMARK INTRA:                  -1.050
REMARK UNBOUND:                -0.997
REMARK  Name = 
REMARK  8 active torsions:
REMARK  status: ('A' for Active; 'I' for Inactive)
REMARK    1  A    between atoms: C_1  and  C_2
REMARK    2  A    between atoms: C_2  and  N_3
REMARK    3  A    between atoms: C_2  and  C_12
REMARK    4  A    between atoms: N_3  and  C_4
REMARK    5  A    between atoms: C_4  and  C_5
REMARK    6  A    between atoms: C_15  and  C_16
REMARK    7  A    between atoms: C_16  and  N_17
REMARK    8  A    between atoms: C_18  and  C_20
REMARK                            x       y       z     vdW  Elec       q    Type
REMARK                         _______ _______ _______ _____ _____    ______ ____
ROOT
ATOM      1  C   UNL     1      45.363   4.353  12.521  0.00  0.00    +0.000 A 
ATOM      2  C   UNL     1      45.833   5.474  11.834  0.00  0.00    +0.000 A 
ATOM      3  C   UNL     1      46.833   6.264  12.401  0.00  0.00    +0.000 A 
ATOM      4  C   UNL     1      47.369   5.900  13.634  0.00  0.00    +0.000 A 
ATOM      5  C   UNL     1      46.853   4.775  14.256  0.00  0.00    +0.000 A 
ATOM      6  N   UNL     1      45.852   4.036  13.743  0.00  0.00    +0.000 NA
ENDROOT
BRANCH   1   8
ATOM      7  C   UNL     1      43.021   4.232  11.522  0.00  0.00    +0.000 C 
ATOM      8  C   UNL     1      44.262   3.438  11.969  0.00  0.00    +0.000 C 
BRANCH   8   9
ATOM      9  N   UNL     1      44.686   2.583  10.823  0.00  0.00    +0.000 NA
ATOM     10  H   UNL     1      44.249   1.672  10.929  0.00  0.00    +0.000 HD
BRANCH   9  11
ATOM     11  C   UNL     1      44.263   3.131   9.516  0.00  0.00    +0.000 C 
BRANCH  11  12
ATOM     12  C   UNL     1      45.137   2.678   8.316  0.00  0.00    +0.000 C 
ATOM     13  C   UNL     1      45.940   3.861   7.758  0.00  0.00    +0.000 C 
ATOM     14  C   UNL     1      46.741   3.446   6.533  0.00  0.00    +0.000 C 
ATOM     15  C   UNL     1      47.632   2.260   6.868  0.00  0.00    +0.000 C 
ATOM     16  F   UNL     1      48.216   1.815   5.722  0.00  0.00    +0.000 F 
ATOM     17  C   UNL     1      46.821   1.125   7.500  0.00  0.00    +0.000 C 
ATOM     18  N   UNL     1      46.026   1.545   8.668  0.00  0.00    +0.000 NA
ATOM     19  H   UNL     1      46.651   1.842   9.415  0.00  0.00    +0.000 HD
ENDBRANCH  11  12
ENDBRANCH   9  11
ENDBRANCH   8   9
ENDBRANCH   1   8
BRANCH   4  20
ATOM     20  C   UNL     1      48.407   6.729  14.325  0.00  0.00    +0.000 C 
BRANCH  20  21
ATOM     21  N   UNL     1      48.166   6.741  15.745  0.00  0.00    +0.000 N 
ATOM     22  C   UNL     1      49.112   6.301  16.628  0.00  0.00    +0.000 C 
ATOM     23  O   UNL     1      50.217   5.909  16.257  0.00  0.00    +0.000 OA
ATOM     24  H   UNL     1      47.199   6.811  16.053  0.00  0.00    +0.000 HD
BRANCH  22  25
ATOM     25  C   UNL     1      48.762   6.385  18.050  0.00  0.00    +0.000 A 
ATOM     26  C   UNL     1      48.952   5.281  18.870  0.00  0.00    +0.000 A 
ATOM     27  S   UNL     1      48.518   5.556  20.495  0.00  0.00    +0.000 S 
ATOM     28  C   UNL     1      48.016   7.142  20.150  0.00  0.00    +0.000 A 
ATOM     29  N   UNL     1      47.488   7.939  21.123  0.00  0.00    +0.000 NA
ATOM     30  C   UNL     1      47.124   9.109  20.717  0.00  0.00    +0.000 A 
ATOM     31  N   UNL     1      47.249   9.565  19.432  0.00  0.00    +0.000 N 
ATOM     32  C   UNL     1      47.810   8.808  18.425  0.00  0.00    +0.000 A 
ATOM     33  O   UNL     1      47.964   9.264  17.292  0.00  0.00    +0.000 OA
ATOM     34  C   UNL     1      48.209   7.475  18.820  0.00  0.00    +0.000 A 
ATOM     35  H   UNL     1      46.956  10.494  19.180  0.00  0.00    +0.000 HD
ENDBRANCH  22  25
ENDBRANCH  20  21
ENDBRANCH   4  20
TORSDOF 7
ENDMDL
MODEL 3
REMARK VINA RESULT:    -7.967      2.370      2.970
REMARK INTER + INTRA:         -12.223
REMARK INTER:                 -10.828
REMARK INTRA:                  -1.395
REMARK UNBOUND:                -0.997
REMARK  Name = 
REMARK  8 active torsions:
REMARK  status: ('A' for Active; 'I' for Inactive)
REMARK    1  A    between atoms: C_1  and  C_2
REMARK    2  A    between atoms: C_2  and  N_3
REMARK    3  A    between atoms: C_2  and  C_12
REMARK    4  A    between atoms: N_3  and  C_4
REMARK    5  A    between atoms: C_4  and  C_5
REMARK    6  A    between atoms: C_15  and  C_16
REMARK    7  A    between atoms: C_16  and  N_17
REMARK    8  A    between atoms: C_18  and  C_20
REMARK                            x       y       z     vdW  Elec       q    Type
REMARK                         _______ _______ _______ _____ _____    ______ ____
ROOT
ATOM      1  C   UNL     1      45.071   5.198  12.913  0.00  0.00    +0.000 A 
ATOM      2  C   UNL     1      46.207   4.834  13.639  0.00  0.00    +0.000 A 
ATOM      3  C   UNL     1      47.392   5.549  13.474  0.00  0.00    +0.000 A 
ATOM      4  C   UNL     1      47.414   6.638  12.607  0.00  0.00    +0.000 A 
ATOM      5  C   UNL     1      46.249   6.941  11.921  0.00  0.00    +0.000 A 
ATOM      6  N   UNL     1      45.114   6.226  12.032  0.00  0.00    +0.000 NA
ENDROOT
BRANCH   1   8
ATOM      7  C   UNL     1      42.594   5.207  12.313  0.00  0.00    +0.000 C 
ATOM      8  C   UNL     1      43.732   4.460  13.033  0.00  0.00    +0.000 C 
BRANCH   8   9
ATOM      9  N   UNL     1      43.748   3.061  12.517  0.00  0.00    +0.000 NA
ATOM     10  H   UNL     1      43.052   2.526  13.030  0.00  0.00    +0.000 HD
BRANCH   9  11
ATOM     11  C   UNL     1      43.405   2.978  11.081  0.00  0.00    +0.000 C 
BRANCH  11  12
ATOM     12  C   UNL     1      44.608   3.182  10.121  0.00  0.00    +0.000 C 
ATOM     13  C   UNL     1      44.711   2.014   9.131  0.00  0.00    +0.000 C 
ATOM     14  C   UNL     1      45.932   2.164   8.236  0.00  0.00    +0.000 C 
ATOM     15  C   UNL     1      45.899   3.509   7.529  0.00  0.00    +0.000 C 
ATOM     16  F   UNL     1      47.073   3.679   6.861  0.00  0.00    +0.000 F 
ATOM     17  C   UNL     1      45.713   4.652   8.530  0.00  0.00    +0.000 C 
ATOM     18  N   UNL     1      44.544   4.482   9.412  0.00  0.00    +0.000 NA
ATOM     19  H   UNL     1      43.692   4.506   8.855  0.00  0.00    +0.000 HD
ENDBRANCH  11  12
ENDBRANCH   9  11
ENDBRANCH   8   9
ENDBRANCH   1   8
BRANCH   4  20
ATOM     20  C   UNL     1      48.664   7.418  12.342  0.00  0.00    +0.000 C 
BRANCH  20  21
ATOM     21  N   UNL     1      49.685   7.054  13.290  0.00  0.00    +0.000 N 
ATOM     22  C   UNL     1      49.919   7.808  14.406  0.00  0.00    +0.000 C 
ATOM     23  O   UNL     1      49.249   8.807  14.668  0.00  0.00    +0.000 OA
ATOM     24  H   UNL     1      50.403   6.405  12.975  0.00  0.00    +0.000 HD
BRANCH  22  25
ATOM     25  C   UNL     1      50.967   7.324  15.310  0.00  0.00    +0.000 A 
ATOM     26  C   UNL     1      52.274   7.757  15.139  0.00  0.00    +0.000 A 
ATOM     27  S   UNL     1      53.360   7.119  16.287  0.00  0.00    +0.000 S 
ATOM     28  C   UNL     1      52.131   6.204  17.022  0.00  0.00    +0.000 A 
ATOM     29  N   UNL     1      52.402   5.380  18.074  0.00  0.00    +0.000 NA
ATOM     30  C   UNL     1      51.382   4.726  18.518  0.00  0.00    +0.000 A 
ATOM     31  N   UNL     1      50.111   4.825  18.017  0.00  0.00    +0.000 N 
ATOM     32  C   UNL     1      49.784   5.671  16.979  0.00  0.00    +0.000 A 
ATOM     33  O   UNL     1      48.623   5.784  16.588  0.00  0.00    +0.000 OA
ATOM     34  C   UNL     1      50.898   6.409  16.425  0.00  0.00    +0.000 A 
ATOM     35  H   UNL     1      49.353   4.294  18.415  0.00  0.00    +0.000 HD
ENDBRANCH  22  25
ENDBRANCH  20  21
ENDBRANCH   4  20
TORSDOF 7
ENDMDL
MODEL 4
REMARK VINA RESULT:    -7.849      1.741      2.054
REMARK INTER + INTRA:         -12.058
REMARK INTER:                 -10.961
REMARK INTRA:                  -1.097
REMARK UNBOUND:                -0.997
REMARK  Name = 
REMARK  8 active torsions:
REMARK  status: ('A' for Active; 'I' for Inactive)
REMARK    1  A    between atoms: C_1  and  C_2
REMARK    2  A    between atoms: C_2  and  N_3
REMARK    3  A    between atoms: C_2  and  C_12
REMARK    4  A    between atoms: N_3  and  C_4
REMARK    5  A    between atoms: C_4  and  C_5
REMARK    6  A    between atoms: C_15  and  C_16
REMARK    7  A    between atoms: C_16  and  N_17
REMARK    8  A    between atoms: C_18  and  C_20
REMARK                            x       y       z     vdW  Elec       q    Type
REMARK                         _______ _______ _______ _____ _____    ______ ____
ROOT
ATOM      1  C   UNL     1      45.032   5.808  11.776  0.00  0.00    +0.000 A 
ATOM      2  C   UNL     1      45.077   7.198  11.662  0.00  0.00    +0.000 A 
ATOM      3  C   UNL     1      46.211   7.891  12.086  0.00  0.00    +0.000 A 
ATOM      4  C   UNL     1      47.295   7.176  12.588  0.00  0.00    +0.000 A 
ATOM      5  C   UNL     1      47.179   5.798  12.672  0.00  0.00    +0.000 A 
ATOM      6  N   UNL     1      46.069   5.124  12.315  0.00  0.00    +0.000 NA
ENDROOT
BRANCH   1   8
ATOM      7  C   UNL     1      42.490   5.690  11.633  0.00  0.00    +0.000 C 
ATOM      8  C   UNL     1      43.821   4.974  11.339  0.00  0.00    +0.000 C 
BRANCH   8   9
ATOM      9  N   UNL     1      43.819   4.595   9.897  0.00  0.00    +0.000 NA
ATOM     10  H   UNL     1      44.501   5.175   9.416  0.00  0.00    +0.000 HD
BRANCH   9  11
ATOM     11  C   UNL     1      44.199   3.183   9.677  0.00  0.00    +0.000 C 
BRANCH  11  12
ATOM     12  C   UNL     1      45.467   2.988   8.804  0.00  0.00    +0.000 C 
ATOM     13  C   UNL     1      45.644   1.509   8.433  0.00  0.00    +0.000 C 
ATOM     14  C   UNL     1      46.926   1.295   7.643  0.00  0.00    +0.000 C 
ATOM     15  C   UNL     1      46.942   2.196   6.418  0.00  0.00    +0.000 C 
ATOM     16  F   UNL     1      48.161   2.097   5.820  0.00  0.00    +0.000 F 
ATOM     17  C   UNL     1      46.682   3.654   6.805  0.00  0.00    +0.000 C 
ATOM     18  N   UNL     1      45.453   3.846   7.596  0.00  0.00    +0.000 NA
ATOM     19  H   UNL     1      44.643   3.597   7.030  0.00  0.00    +0.000 HD
ENDBRANCH  11  12
ENDBRANCH   9  11
ENDBRANCH   8   9
ENDBRANCH   1   8
BRANCH   4  20
ATOM     20  C   UNL     1      48.523   7.858  13.109  0.00  0.00    +0.000 C 
BRANCH  20  21
ATOM     21  N   UNL     1      48.966   7.219  14.322  0.00  0.00    +0.000 N 
ATOM     22  C   UNL     1      48.743   7.788  15.545  0.00  0.00    +0.000 C 
ATOM     23  O   UNL     1      48.127   8.846  15.669  0.00  0.00    +0.000 OA
ATOM     24  H   UNL     1      49.683   6.502  14.236  0.00  0.00    +0.000 HD
BRANCH  22  25
ATOM     25  C   UNL     1      49.219   7.033  16.709  0.00  0.00    +0.000 A 
ATOM     26  C   UNL     1      50.165   7.597  17.553  0.00  0.00    +0.000 A 
ATOM     27  S   UNL     1      50.590   6.599  18.867  0.00  0.00    +0.000 S 
ATOM     28  C   UNL     1      49.560   5.359  18.328  0.00  0.00    +0.000 A 
ATOM     29  N   UNL     1      49.476   4.174  18.998  0.00  0.00    +0.000 NA
ATOM     30  C   UNL     1      48.677   3.313  18.464  0.00  0.00    +0.000 A 
ATOM     31  N   UNL     1      47.943   3.526  17.328  0.00  0.00    +0.000 N 
ATOM     32  C   UNL     1      47.969   4.720  16.639  0.00  0.00    +0.000 A 
ATOM     33  O   UNL     1      47.254   4.905  15.654  0.00  0.00    +0.000 OA
ATOM     34  C   UNL     1      48.872   5.713  17.180  0.00  0.00    +0.000 A 
ATOM     35  H   UNL     1      47.328   2.816  16.967  0.00  0.00    +0.000 HD
ENDBRANCH  22  25
ENDBRANCH  20  21
ENDBRANCH   4  20
TORSDOF 7
ENDMDL
MODEL 5
REMARK VINA RESULT:    -7.761      1.699      2.103
REMARK INTER + INTRA:         -11.933
REMARK INTER:                 -11.019
REMARK INTRA:                  -0.914
REMARK UNBOUND:                -0.997
REMARK  Name = 
REMARK  8 active torsions:
REMARK  status: ('A' for Active; 'I' for Inactive)
REMARK    1  A    between atoms: C_1  and  C_2
REMARK    2  A    between atoms: C_2  and  N_3
REMARK    3  A    between atoms: C_2  and  C_12
REMARK    4  A    between atoms: N_3  and  C_4
REMARK    5  A    between atoms: C_4  and  C_5
REMARK    6  A    between atoms: C_15  and  C_16
REMARK    7  A    between atoms: C_16  and  N_17
REMARK    8  A    between atoms: C_18  and  C_20
REMARK                            x       y       z     vdW  Elec       q    Type
REMARK                         _______ _______ _______ _____ _____    ______ ____
ROOT
ATOM      1  C   UNL     1      45.829   5.262  12.358  0.00  0.00    +0.000 A 
ATOM      2  C   UNL     1      46.895   5.138  13.250  0.00  0.00    +0.000 A 
ATOM      3  C   UNL     1      47.490   6.282  13.780  0.00  0.00    +0.000 A 
ATOM      4  C   UNL     1      46.985   7.533  13.434  0.00  0.00    +0.000 A 
ATOM      5  C   UNL     1      45.925   7.578  12.544  0.00  0.00    +0.000 A 
ATOM      6  N   UNL     1      45.378   6.483  11.985  0.00  0.00    +0.000 NA
ENDROOT
BRANCH   1   8
ATOM      7  C   UNL     1      43.874   3.635  12.519  0.00  0.00    +0.000 C 
ATOM      8  C   UNL     1      45.125   4.054  11.726  0.00  0.00    +0.000 C 
BRANCH   8   9
ATOM      9  N   UNL     1      44.713   4.251  10.307  0.00  0.00    +0.000 NA
ATOM     10  H   UNL     1      45.511   4.615   9.793  0.00  0.00    +0.000 HD
BRANCH   9  11
ATOM     11  C   UNL     1      44.297   2.991   9.653  0.00  0.00    +0.000 C 
BRANCH  11  12
ATOM     12  C   UNL     1      45.139   2.605   8.408  0.00  0.00    +0.000 C 
ATOM     13  C   UNL     1      45.918   3.820   7.887  0.00  0.00    +0.000 C 
ATOM     14  C   UNL     1      46.686   3.473   6.621  0.00  0.00    +0.000 C 
ATOM     15  C   UNL     1      47.593   2.278   6.871  0.00  0.00    +0.000 C 
ATOM     16  F   UNL     1      48.147   1.896   5.688  0.00  0.00    +0.000 F 
ATOM     17  C   UNL     1      46.808   1.108   7.468  0.00  0.00    +0.000 C 
ATOM     18  N   UNL     1      46.044   1.463   8.677  0.00  0.00    +0.000 NA
ATOM     19  H   UNL     1      46.688   1.727   9.421  0.00  0.00    +0.000 HD
ENDBRANCH  11  12
ENDBRANCH   9  11
ENDBRANCH   8   9
ENDBRANCH   1   8
BRANCH   4  20
ATOM     20  C   UNL     1      47.606   8.804  13.925  0.00  0.00    +0.000 C 
BRANCH  20  21
ATOM     21  N   UNL     1      47.359   8.964  15.335  0.00  0.00    +0.000 N 
ATOM     22  C   UNL     1      48.352   9.353  16.190  0.00  0.00    +0.000 C 
ATOM     23  O   UNL     1      49.487   9.616  15.793  0.00  0.00    +0.000 OA
ATOM     24  H   UNL     1      46.529   8.516  15.716  0.00  0.00    +0.000 HD
BRANCH  22  25
ATOM     25  C   UNL     1      47.974   9.506  17.599  0.00  0.00    +0.000 A 
ATOM     26  C   UNL     1      47.655  10.764  18.091  0.00  0.00    +0.000 A 
ATOM     27  S   UNL     1      47.215  10.761  19.737  0.00  0.00    +0.000 S 
ATOM     28  C   UNL     1      47.483   9.088  19.862  0.00  0.00    +0.000 A 
ATOM     29  N   UNL     1      47.322   8.438  21.050  0.00  0.00    +0.000 NA
ATOM     30  C   UNL     1      47.585   7.175  21.008  0.00  0.00    +0.000 A 
ATOM     31  N   UNL     1      47.983   6.495  19.888  0.00  0.00    +0.000 N 
ATOM     32  C   UNL     1      48.124   7.104  18.659  0.00  0.00    +0.000 A 
ATOM     33  O   UNL     1      48.425   6.458  17.656  0.00  0.00    +0.000 OA
ATOM     34  C   UNL     1      47.868   8.528  18.656  0.00  0.00    +0.000 A 
ATOM     35  H   UNL     1      48.162   5.505  19.918  0.00  0.00    +0.000 HD
ENDBRANCH  22  25
ENDBRANCH  20  21
ENDBRANCH   4  20
TORSDOF 7
ENDMDL
MODEL 6
REMARK VINA RESULT:    -7.619      3.793      9.090
REMARK INTER + INTRA:         -11.733
REMARK INTER:                 -10.385
REMARK INTRA:                  -1.348
REMARK UNBOUND:                -0.997
REMARK  Name = 
REMARK  8 active torsions:
REMARK  status: ('A' for Active; 'I' for Inactive)
REMARK    1  A    between atoms: C_1  and  C_2
REMARK    2  A    between atoms: C_2  and  N_3
REMARK    3  A    between atoms: C_2  and  C_12
REMARK    4  A    between atoms: N_3  and  C_4
REMARK    5  A    between atoms: C_4  and  C_5
REMARK    6  A    between atoms: C_15  and  C_16
REMARK    7  A    between atoms: C_16  and  N_17
REMARK    8  A    between atoms: C_18  and  C_20
REMARK                            x       y       z     vdW  Elec       q    Type
REMARK                         _______ _______ _______ _____ _____    ______ ____
ROOT
ATOM      1  C   UNL     1      48.743   8.211  15.835  0.00  0.00    +0.000 A 
ATOM      2  C   UNL     1      49.397   7.234  15.082  0.00  0.00    +0.000 A 
ATOM      3  C   UNL     1      49.076   7.069  13.735  0.00  0.00    +0.000 A 
ATOM      4  C   UNL     1      48.127   7.907  13.155  0.00  0.00    +0.000 A 
ATOM      5  C   UNL     1      47.520   8.854  13.963  0.00  0.00    +0.000 A 
ATOM      6  N   UNL     1      47.784   8.987  15.277  0.00  0.00    +0.000 NA
ENDROOT
BRANCH   1   8
ATOM      7  C   UNL     1      49.592   9.863  17.580  0.00  0.00    +0.000 C 
ATOM      8  C   UNL     1      49.033   8.452  17.322  0.00  0.00    +0.000 C 
BRANCH   8   9
ATOM      9  N   UNL     1      47.858   8.263  18.220  0.00  0.00    +0.000 NA
ATOM     10  H   UNL     1      47.018   8.266  17.648  0.00  0.00    +0.000 HD
BRANCH   9  11
ATOM     11  C   UNL     1      47.898   6.975  18.947  0.00  0.00    +0.000 C 
BRANCH  11  12
ATOM     12  C   UNL     1      48.100   5.732  18.041  0.00  0.00    +0.000 C 
ATOM     13  C   UNL     1      49.346   4.948  18.472  0.00  0.00    +0.000 C 
ATOM     14  C   UNL     1      49.598   3.770  17.542  0.00  0.00    +0.000 C 
ATOM     15  C   UNL     1      48.364   2.886  17.473  0.00  0.00    +0.000 C 
ATOM     16  F   UNL     1      48.562   1.934  16.521  0.00  0.00    +0.000 F 
ATOM     17  C   UNL     1      47.119   3.705  17.122  0.00  0.00    +0.000 C 
ATOM     18  N   UNL     1      46.902   4.861  18.011  0.00  0.00    +0.000 NA
ATOM     19  H   UNL     1      46.716   4.531  18.957  0.00  0.00    +0.000 HD
ENDBRANCH  11  12
ENDBRANCH   9  11
ENDBRANCH   8   9
ENDBRANCH   1   8
BRANCH   4  20
ATOM     20  C   UNL     1      47.697   7.752  11.729  0.00  0.00    +0.000 C 
BRANCH  20  21
ATOM     21  N   UNL     1      46.965   6.522  11.563  0.00  0.00    +0.000 N 
ATOM     22  C   UNL     1      45.601   6.493  11.639  0.00  0.00    +0.000 C 
ATOM     23  O   UNL     1      44.937   7.514  11.817  0.00  0.00    +0.000 OA
ATOM     24  H   UNL     1      47.483   5.654  11.674  0.00  0.00    +0.000 HD
BRANCH  22  25
ATOM     25  C   UNL     1      44.966   5.188  11.430  0.00  0.00    +0.000 A 
ATOM     26  C   UNL     1      44.241   4.605  12.460  0.00  0.00    +0.000 A 
ATOM     27  S   UNL     1      43.550   3.104  12.042  0.00  0.00    +0.000 S 
ATOM     28  C   UNL     1      44.236   3.158  10.488  0.00  0.00    +0.000 A 
ATOM     29  N   UNL     1      44.061   2.133   9.607  0.00  0.00    +0.000 NA
ATOM     30  C   UNL     1      44.658   2.293   8.474  0.00  0.00    +0.000 A 
ATOM     31  N   UNL     1      45.406   3.388   8.132  0.00  0.00    +0.000 N 
ATOM     32  C   UNL     1      45.580   4.464   8.977  0.00  0.00    +0.000 A 
ATOM     33  O   UNL     1      46.208   5.461   8.623  0.00  0.00    +0.000 OA
ATOM     34  C   UNL     1      44.954   4.323  10.274  0.00  0.00    +0.000 A 
ATOM     35  H   UNL     1      45.839   3.459   7.226  0.00  0.00    +0.000 HD
ENDBRANCH  22  25
ENDBRANCH  20  21
ENDBRANCH   4  20
TORSDOF 7
ENDMDL
MODEL 7
REMARK VINA RESULT:    -7.545      3.917      5.785
REMARK INTER + INTRA:         -11.630
REMARK INTER:                 -10.103
REMARK INTRA:                  -1.526
REMARK UNBOUND:                -0.997
REMARK  Name = 
REMARK  8 active torsions:
REMARK  status: ('A' for Active; 'I' for Inactive)
REMARK    1  A    between atoms: C_1  and  C_2
REMARK    2  A    between atoms: C_2  and  N_3
REMARK    3  A    between atoms: C_2  and  C_12
REMARK    4  A    between atoms: N_3  and  C_4
REMARK    5  A    between atoms: C_4  and  C_5
REMARK    6  A    between atoms: C_15  and  C_16
REMARK    7  A    between atoms: C_16  and  N_17
REMARK    8  A    between atoms: C_18  and  C_20
REMARK                            x       y       z     vdW  Elec       q    Type
REMARK                         _______ _______ _______ _____ _____    ______ ____
ROOT
ATOM      1  C   UNL     1      47.979   6.235  14.797  0.00  0.00    +0.000 A 
ATOM      2  C   UNL     1      48.733   6.481  15.946  0.00  0.00    +0.000 A 
ATOM      3  C   UNL     1      48.872   5.482  16.909  0.00  0.00    +0.000 A 
ATOM      4  C   UNL     1      48.282   4.240  16.690  0.00  0.00    +0.000 A 
ATOM      5  C   UNL     1      47.549   4.068  15.526  0.00  0.00    +0.000 A 
ATOM      6  N   UNL     1      47.364   5.042  14.616  0.00  0.00    +0.000 NA
ENDROOT
BRANCH   1   8
ATOM      7  C   UNL     1      48.463   6.880  12.379  0.00  0.00    +0.000 C 
ATOM      8  C   UNL     1      47.772   7.282  13.695  0.00  0.00    +0.000 C 
BRANCH   8   9
ATOM      9  N   UNL     1      46.344   7.576  13.381  0.00  0.00    +0.000 NA
ATOM     10  H   UNL     1      46.194   8.574  13.498  0.00  0.00    +0.000 HD
BRANCH   9  11
ATOM     11  C   UNL     1      45.983   7.229  11.990  0.00  0.00    +0.000 C 
BRANCH  11  12
ATOM     12  C   UNL     1      44.925   6.101  11.863  0.00  0.00    +0.000 C 
ATOM     13  C   UNL     1      45.309   5.126  10.741  0.00  0.00    +0.000 C 
ATOM     14  C   UNL     1      44.240   4.060  10.555  0.00  0.00    +0.000 C 
ATOM     15  C   UNL     1      43.983   3.343  11.871  0.00  0.00    +0.000 C 
ATOM     16  F   UNL     1      42.921   2.507  11.713  0.00  0.00    +0.000 F 
ATOM     17  C   UNL     1      43.684   4.341  12.992  0.00  0.00    +0.000 C 
ATOM     18  N   UNL     1      44.712   5.387  13.144  0.00  0.00    +0.000 NA
ATOM     19  H   UNL     1      45.592   4.960  13.428  0.00  0.00    +0.000 HD
ENDBRANCH  11  12
ENDBRANCH   9  11
ENDBRANCH   8   9
ENDBRANCH   1   8
BRANCH   4  20
ATOM     20  C   UNL     1      48.347   3.139  17.703  0.00  0.00    +0.000 C 
BRANCH  20  21
ATOM     21  N   UNL     1      49.720   2.822  18.002  0.00  0.00    +0.000 N 
ATOM     22  C   UNL     1      50.467   2.044  17.163  0.00  0.00    +0.000 C 
ATOM     23  O   UNL     1      50.016   1.609  16.104  0.00  0.00    +0.000 OA
ATOM     24  H   UNL     1      50.028   2.945  18.964  0.00  0.00    +0.000 HD
BRANCH  22  25
ATOM     25  C   UNL     1      51.860   1.810  17.560  0.00  0.00    +0.000 A 
ATOM     26  C   UNL     1      52.323   0.510  17.704  0.00  0.00    +0.000 A 
ATOM     27  S   UNL     1      53.966   0.416  18.145  0.00  0.00    +0.000 S 
ATOM     28  C   UNL     1      54.102   2.109  18.207  0.00  0.00    +0.000 A 
ATOM     29  N   UNL     1      55.273   2.707  18.570  0.00  0.00    +0.000 NA
ATOM     30  C   UNL     1      55.228   3.996  18.601  0.00  0.00    +0.000 A 
ATOM     31  N   UNL     1      54.127   4.748  18.291  0.00  0.00    +0.000 N 
ATOM     32  C   UNL     1      52.934   4.189  17.885  0.00  0.00    +0.000 A 
ATOM     33  O   UNL     1      51.978   4.890  17.556  0.00  0.00    +0.000 OA
ATOM     34  C   UNL     1      52.921   2.742  17.860  0.00  0.00    +0.000 A 
ATOM     35  H   UNL     1      54.159   5.754  18.323  0.00  0.00    +0.000 HD
ENDBRANCH  22  25
ENDBRANCH  20  21
ENDBRANCH   4  20
TORSDOF 7
ENDMDL
MODEL 8
REMARK VINA RESULT:    -6.437      3.318      5.144
REMARK INTER + INTRA:         -10.068
REMARK INTER:                  -9.189
REMARK INTRA:                  -0.879
REMARK UNBOUND:                -0.997
REMARK  Name = 
REMARK  8 active torsions:
REMARK  status: ('A' for Active; 'I' for Inactive)
REMARK    1  A    between atoms: C_1  and  C_2
REMARK    2  A    between atoms: C_2  and  N_3
REMARK    3  A    between atoms: C_2  and  C_12
REMARK    4  A    between atoms: N_3  and  C_4
REMARK    5  A    between atoms: C_4  and  C_5
REMARK    6  A    between atoms: C_15  and  C_16
REMARK    7  A    between atoms: C_16  and  N_17
REMARK    8  A    between atoms: C_18  and  C_20
REMARK                            x       y       z     vdW  Elec       q    Type
REMARK                         _______ _______ _______ _____ _____    ______ ____
ROOT
ATOM      1  C   UNL     1      48.432   7.649  13.971  0.00  0.00    +0.000 A 
ATOM      2  C   UNL     1      48.520   8.733  14.846  0.00  0.00    +0.000 A 
ATOM      3  C   UNL     1      48.654   8.508  16.215  0.00  0.00    +0.000 A 
ATOM      4  C   UNL     1      48.732   7.198  16.684  0.00  0.00    +0.000 A 
ATOM      5  C   UNL     1      48.638   6.173  15.757  0.00  0.00    +0.000 A 
ATOM      6  N   UNL     1      48.455   6.379  14.440  0.00  0.00    +0.000 NA
ENDROOT
BRANCH   1   8
ATOM      7  C   UNL     1      49.611   7.612  11.712  0.00  0.00    +0.000 C 
ATOM      8  C   UNL     1      48.277   7.812  12.454  0.00  0.00    +0.000 C 
BRANCH   8   9
ATOM      9  N   UNL     1      47.276   6.898  11.832  0.00  0.00    +0.000 NA
ATOM     10  H   UNL     1      47.426   5.964  12.204  0.00  0.00    +0.000 HD
BRANCH   9  11
ATOM     11  C   UNL     1      45.882   7.284  12.141  0.00  0.00    +0.000 C 
BRANCH  11  12
ATOM     12  C   UNL     1      44.846   6.141  11.966  0.00  0.00    +0.000 C 
ATOM     13  C   UNL     1      45.213   5.262  10.763  0.00  0.00    +0.000 C 
ATOM     14  C   UNL     1      44.162   4.186  10.535  0.00  0.00    +0.000 C 
ATOM     15  C   UNL     1      43.967   3.367  11.802  0.00  0.00    +0.000 C 
ATOM     16  F   UNL     1      42.919   2.520  11.617  0.00  0.00    +0.000 F 
ATOM     17  C   UNL     1      43.685   4.273  13.003  0.00  0.00    +0.000 C 
ATOM     18  N   UNL     1      44.694   5.330  13.197  0.00  0.00    +0.000 NA
ATOM     19  H   UNL     1      45.593   4.906  13.419  0.00  0.00    +0.000 HD
ENDBRANCH  11  12
ENDBRANCH   9  11
ENDBRANCH   8   9
ENDBRANCH   1   8
BRANCH   4  20
ATOM     20  C   UNL     1      48.824   6.882  18.145  0.00  0.00    +0.000 C 
BRANCH  20  21
ATOM     21  N   UNL     1      49.762   5.810  18.361  0.00  0.00    +0.000 N 
ATOM     22  C   UNL     1      51.110   6.017  18.269  0.00  0.00    +0.000 C 
ATOM     23  O   UNL     1      51.583   7.128  18.033  0.00  0.00    +0.000 OA
ATOM     24  H   UNL     1      49.405   4.859  18.300  0.00  0.00    +0.000 HD
BRANCH  22  25
ATOM     25  C   UNL     1      51.966   4.856  18.534  0.00  0.00    +0.000 A 
ATOM     26  C   UNL     1      53.137   5.019  19.261  0.00  0.00    +0.000 A 
ATOM     27  S   UNL     1      53.999   3.568  19.499  0.00  0.00    +0.000 S 
ATOM     28  C   UNL     1      52.863   2.682  18.597  0.00  0.00    +0.000 A 
ATOM     29  N   UNL     1      53.030   1.346  18.377  0.00  0.00    +0.000 NA
ATOM     30  C   UNL     1      52.107   0.804  17.655  0.00  0.00    +0.000 A 
ATOM     31  N   UNL     1      51.025   1.467  17.141  0.00  0.00    +0.000 N 
ATOM     32  C   UNL     1      50.798   2.808  17.368  0.00  0.00    +0.000 A 
ATOM     33  O   UNL     1      49.787   3.366  16.943  0.00  0.00    +0.000 OA
ATOM     34  C   UNL     1      51.819   3.472  18.150  0.00  0.00    +0.000 A 
ATOM     35  H   UNL     1      50.333   0.985  16.593  0.00  0.00    +0.000 HD
ENDBRANCH  22  25
ENDBRANCH  20  21
ENDBRANCH   4  20
TORSDOF 7
ENDMDL
MODEL 9
REMARK VINA RESULT:    -6.349      4.879      5.857
REMARK INTER + INTRA:          -9.944
REMARK INTER:                  -9.054
REMARK INTRA:                  -0.891
REMARK UNBOUND:                -0.997
REMARK  Name = 
REMARK  8 active torsions:
REMARK  status: ('A' for Active; 'I' for Inactive)
REMARK    1  A    between atoms: C_1  and  C_2
REMARK    2  A    between atoms: C_2  and  N_3
REMARK    3  A    between atoms: C_2  and  C_12
REMARK    4  A    between atoms: N_3  and  C_4
REMARK    5  A    between atoms: C_4  and  C_5
REMARK    6  A    between atoms: C_15  and  C_16
REMARK    7  A    between atoms: C_16  and  N_17
REMARK    8  A    between atoms: C_18  and  C_20
REMARK                            x       y       z     vdW  Elec       q    Type
REMARK                         _______ _______ _______ _____ _____    ______ ____
ROOT
ATOM      1  C   UNL     1      45.189   6.011  11.690  0.00  0.00    +0.000 A 
ATOM      2  C   UNL     1      44.537   7.196  12.037  0.00  0.00    +0.000 A 
ATOM      3  C   UNL     1      45.283   8.310  12.419  0.00  0.00    +0.000 A 
ATOM      4  C   UNL     1      46.673   8.230  12.416  0.00  0.00    +0.000 A 
ATOM      5  C   UNL     1      47.251   7.022  12.059  0.00  0.00    +0.000 A 
ATOM      6  N   UNL     1      46.539   5.925  11.741  0.00  0.00    +0.000 NA
ENDROOT
BRANCH   1   8
ATOM      7  C   UNL     1      43.217   4.466  12.157  0.00  0.00    +0.000 C 
ATOM      8  C   UNL     1      44.441   4.741  11.265  0.00  0.00    +0.000 C 
BRANCH   8   9
ATOM      9  N   UNL     1      43.974   4.743   9.848  0.00  0.00    +0.000 NA
ATOM     10  H   UNL     1      43.408   5.574   9.703  0.00  0.00    +0.000 HD
BRANCH   9  11
ATOM     11  C   UNL     1      45.090   4.786   8.880  0.00  0.00    +0.000 C 
BRANCH  11  12
ATOM     12  C   UNL     1      45.359   3.443   8.149  0.00  0.00    +0.000 C 
ATOM     13  C   UNL     1      46.606   3.554   7.261  0.00  0.00    +0.000 C 
ATOM     14  C   UNL     1      46.834   2.268   6.480  0.00  0.00    +0.000 C 
ATOM     15  C   UNL     1      46.916   1.086   7.433  0.00  0.00    +0.000 C 
ATOM     16  F   UNL     1      46.964  -0.061   6.702  0.00  0.00    +0.000 F 
ATOM     17  C   UNL     1      45.701   1.045   8.364  0.00  0.00    +0.000 C 
ATOM     18  N   UNL     1      45.472   2.306   9.093  0.00  0.00    +0.000 NA
ATOM     19  H   UNL     1      46.254   2.482   9.721  0.00  0.00    +0.000 HD
ENDBRANCH  11  12
ENDBRANCH   9  11
ENDBRANCH   8   9
ENDBRANCH   1   8
BRANCH   4  20
ATOM     20  C   UNL     1      47.535   9.370  12.864  0.00  0.00    +0.000 C 
BRANCH  20  21
ATOM     21  N   UNL     1      48.821   9.302  12.217  0.00  0.00    +0.000 N 
ATOM     22  C   UNL     1      49.597  10.417  12.064  0.00  0.00    +0.000 C 
ATOM     23  O   UNL     1      49.252  11.515  12.500  0.00  0.00    +0.000 OA
ATOM     24  H   UNL     1      49.007   8.489  11.635  0.00  0.00    +0.000 HD
BRANCH  22  25
ATOM     25  C   UNL     1      50.896  10.220  11.412  0.00  0.00    +0.000 A 
ATOM     26  C   UNL     1      51.184  10.899  10.237  0.00  0.00    +0.000 A 
ATOM     27  S   UNL     1      52.742  10.576   9.626  0.00  0.00    +0.000 S 
ATOM     28  C   UNL     1      53.066   9.480  10.883  0.00  0.00    +0.000 A 
ATOM     29  N   UNL     1      54.249   8.802  10.936  0.00  0.00    +0.000 NA
ATOM     30  C   UNL     1      54.351   7.983  11.928  0.00  0.00    +0.000 A 
ATOM     31  N   UNL     1      53.390   7.785  12.882  0.00  0.00    +0.000 N 
ATOM     32  C   UNL     1      52.196   8.475  12.890  0.00  0.00    +0.000 A 
ATOM     33  O   UNL     1      51.374   8.320  13.792  0.00  0.00    +0.000 OA
ATOM     34  C   UNL     1      52.016   9.387  11.780  0.00  0.00    +0.000 A 
ATOM     35  H   UNL     1      53.535   7.138  13.640  0.00  0.00    +0.000 HD
ENDBRANCH  22  25
ENDBRANCH  20  21
ENDBRANCH   4  20
TORSDOF 7
ENDMDL
