MODEL 1
REMARK VINA RESULT:    -9.250      0.000      0.000
REMARK INTER + INTRA:         -11.621
REMARK INTER:                 -11.413
REMARK INTRA:                  -0.209
REMARK UNBOUND:                -0.209
REMARK  Name = 
REMARK  4 active torsions:
REMARK  status: ('A' for Active; 'I' for Inactive)
REMARK    1  A    between atoms: C_2  and  C_4
REMARK    2  A    between atoms: N_8  and  C_9
REMARK    3  A    between atoms: C_9  and  C_10
REMARK    4  A    between atoms: C_14  and  C_15
REMARK                            x       y       z     vdW  Elec       q    Type
REMARK                         _______ _______ _______ _____ _____    ______ ____
ROOT
ATOM      1  C   UNL     1      43.999   4.804  11.618  0.00  0.00    +0.000 C 
ATOM      2  C   UNL     1      42.746   5.144  12.411  0.00  0.00    +0.000 C 
ATOM      3  C   UNL     1      43.029   5.882  11.145  0.00  0.00    +0.000 C 
ENDROOT
BRANCH   1   8
ATOM      4  C   UNL     1      46.435   2.747   7.542  0.00  0.00    +0.000 A 
ATOM      5  C   UNL     1      46.123   4.069   7.831  0.00  0.00    +0.000 A 
ATOM      6  C   UNL     1      45.326   4.351   8.941  0.00  0.00    +0.000 A 
ATOM      7  C   UNL     1      44.857   3.319   9.749  0.00  0.00    +0.000 A 
ATOM      8  N   UNL     1      44.054   3.541  10.871  0.00  0.00    +0.000 N 
ATOM      9  N   UNL     1      45.140   2.030   9.466  0.00  0.00    +0.000 NA
ATOM     10  C   UNL     1      45.906   1.768   8.372  0.00  0.00    +0.000 A 
ATOM     11  H   UNL     1      43.910   2.659  11.350  0.00  0.00    +0.000 HD
BRANCH   4  13
ATOM     12  N   UNL     1      47.197   3.138   5.270  0.00  0.00    +0.000 N 
ATOM     13  C   UNL     1      47.266   2.354   6.391  0.00  0.00    +0.000 C 
ATOM     14  O   UNL     1      48.019   1.390   6.440  0.00  0.00    +0.000 OA
ATOM     15  H   UNL     1      47.832   2.912   4.518  0.00  0.00    +0.000 HD
ATOM     16  H   UNL     1      46.778   4.057   5.272  0.00  0.00    +0.000 HD
ENDBRANCH   4  13
ENDBRANCH   1   8
BRANCH   1  17
ATOM     17  C   UNL     1      45.350   5.325  12.105  0.00  0.00    +0.000 A 
ATOM     18  C   UNL     1      46.030   6.346  11.425  0.00  0.00    +0.000 A 
ATOM     19  C   UNL     1      47.209   6.893  11.935  0.00  0.00    +0.000 A 
ATOM     20  C   UNL     1      47.734   6.420  13.137  0.00  0.00    +0.000 A 
ATOM     21  C   UNL     1      47.100   5.394  13.850  0.00  0.00    +0.000 A 
ATOM     22  C   UNL     1      45.924   4.857  13.302  0.00  0.00    +0.000 A 
BRANCH  21  23
ATOM     23  C   UNL     1      47.577   4.944  15.168  0.00  0.00    +0.000 A 
ATOM     24  C   UNL     1      47.225   3.687  15.681  0.00  0.00    +0.000 A 
ATOM     25  C   UNL     1      47.732   3.248  16.901  0.00  0.00    +0.000 A 
ATOM     26  C   UNL     1      48.594   4.081  17.591  0.00  0.00    +0.000 A 
ATOM     27  N   UNL     1      48.965   5.300  17.150  0.00  0.00    +0.000 NA
ATOM     28  C   UNL     1      48.445   5.699  15.962  0.00  0.00    +0.000 A 
ENDBRANCH  21  23
ENDBRANCH   1  17
TORSDOF 4
ENDMDL
MODEL 2
REMARK VINA RESULT:    -7.824      2.902      7.696
REMARK INTER + INTRA:          -9.863
REMARK INTER:                  -9.407
REMARK INTRA:                  -0.456
REMARK UNBOUND:                -0.209
REMARK  Name = 
REMARK  4 active torsions:
REMARK  status: ('A' for Active; 'I' for Inactive)
REMARK    1  A    between atoms: C_2  and  C_4
REMARK    2  A    between atoms: N_8  and  C_9
REMARK    3  A    between atoms: C_9  and  C_10
REMARK    4  A    between atoms: C_14  and  C_15
REMARK                            x       y       z     vdW  Elec       q    Type
REMARK                         _______ _______ _______ _____ _____    ______ ____
ROOT
ATOM      1  C   UNL     1      48.564   7.643  12.779  0.00  0.00    +0.000 C 
ATOM      2  C   UNL     1      49.697   7.165  11.883  0.00  0.00    +0.000 C 
ATOM      3  C   UNL     1      49.404   8.626  11.969  0.00  0.00    +0.000 C 
ENDROOT
BRANCH   1   8
ATOM      4  C   UNL     1      47.869   4.411  16.760  0.00  0.00    +0.000 A 
ATOM      5  C   UNL     1      47.220   4.482  15.535  0.00  0.00    +0.000 A 
ATOM      6  C   UNL     1      47.499   5.548  14.679  0.00  0.00    +0.000 A 
ATOM      7  C   UNL     1      48.422   6.522  15.050  0.00  0.00    +0.000 A 
ATOM      8  N   UNL     1      48.740   7.612  14.236  0.00  0.00    +0.000 N 
ATOM      9  N   UNL     1      49.046   6.471  16.245  0.00  0.00    +0.000 NA
ATOM     10  C   UNL     1      48.753   5.433  17.076  0.00  0.00    +0.000 A 
ATOM     11  H   UNL     1      49.494   8.135  14.669  0.00  0.00    +0.000 HD
BRANCH   4  13
ATOM     12  N   UNL     1      48.471   3.260  18.812  0.00  0.00    +0.000 N 
ATOM     13  C   UNL     1      47.636   3.326  17.728  0.00  0.00    +0.000 C 
ATOM     14  O   UNL     1      46.711   2.534  17.597  0.00  0.00    +0.000 OA
ATOM     15  H   UNL     1      48.252   2.567  19.513  0.00  0.00    +0.000 HD
ATOM     16  H   UNL     1      49.083   4.019  19.075  0.00  0.00    +0.000 HD
ENDBRANCH   4  13
ENDBRANCH   1   8
BRANCH   1  17
ATOM     17  C   UNL     1      47.122   7.485  12.300  0.00  0.00    +0.000 A 
ATOM     18  C   UNL     1      46.184   8.518  12.447  0.00  0.00    +0.000 A 
ATOM     19  C   UNL     1      44.900   8.409  11.910  0.00  0.00    +0.000 A 
ATOM     20  C   UNL     1      44.529   7.256  11.218  0.00  0.00    +0.000 A 
ATOM     21  C   UNL     1      45.425   6.192  11.051  0.00  0.00    +0.000 A 
ATOM     22  C   UNL     1      46.703   6.329  11.616  0.00  0.00    +0.000 A 
BRANCH  21  23
ATOM     23  C   UNL     1      45.094   5.008  10.241  0.00  0.00    +0.000 A 
ATOM     24  C   UNL     1      45.621   4.834   8.954  0.00  0.00    +0.000 A 
ATOM     25  C   UNL     1      45.350   3.680   8.223  0.00  0.00    +0.000 A 
ATOM     26  C   UNL     1      44.552   2.710   8.800  0.00  0.00    +0.000 A 
ATOM     27  N   UNL     1      44.015   2.823  10.031  0.00  0.00    +0.000 NA
ATOM     28  C   UNL     1      44.293   3.964  10.712  0.00  0.00    +0.000 A 
ENDBRANCH  21  23
ENDBRANCH   1  17
TORSDOF 4
ENDMDL
MODEL 3
REMARK VINA RESULT:    -6.720      3.198      5.138
REMARK INTER + INTRA:          -8.500
REMARK INTER:                  -7.715
REMARK INTRA:                  -0.785
REMARK UNBOUND:                -0.209
REMARK  Name = 
REMARK  4 active torsions:
REMARK  status: ('A' for Active; 'I' for Inactive)
REMARK    1  A    between atoms: C_2  and  C_4
REMARK    2  A    between atoms: N_8  and  C_9
REMARK    3  A    between atoms: C_9  and  C_10
REMARK    4  A    between atoms: C_14  and  C_15
REMARK                            x       y       z     vdW  Elec       q    Type
REMARK                         _______ _______ _______ _____ _____    ______ ____
ROOT
ATOM      1  C   UNL     1      48.607   8.472  12.575  0.00  0.00    +0.000 C 
ATOM      2  C   UNL     1      48.330   9.843  11.977  0.00  0.00    +0.000 C 
ATOM      3  C   UNL     1      49.723   9.308  11.956  0.00  0.00    +0.000 C 
ENDROOT
BRANCH   1   8
ATOM      4  C   UNL     1      44.260   5.797  11.725  0.00  0.00    +0.000 A 
ATOM      5  C   UNL     1      44.623   6.608  12.791  0.00  0.00    +0.000 A 
ATOM      6  C   UNL     1      45.924   7.109  12.851  0.00  0.00    +0.000 A 
ATOM      7  C   UNL     1      46.841   6.803  11.849  0.00  0.00    +0.000 A 
ATOM      8  N   UNL     1      48.156   7.273  11.857  0.00  0.00    +0.000 N 
ATOM      9  N   UNL     1      46.502   6.001  10.817  0.00  0.00    +0.000 NA
ATOM     10  C   UNL     1      45.234   5.507  10.779  0.00  0.00    +0.000 A 
ATOM     11  H   UNL     1      48.608   6.998  10.991  0.00  0.00    +0.000 HD
BRANCH   4  13
ATOM     12  N   UNL     1      41.847   6.066  11.745  0.00  0.00    +0.000 N 
ATOM     13  C   UNL     1      42.912   5.221  11.580  0.00  0.00    +0.000 C 
ATOM     14  O   UNL     1      42.742   4.045  11.285  0.00  0.00    +0.000 OA
ATOM     15  H   UNL     1      40.930   5.683  11.561  0.00  0.00    +0.000 HD
ATOM     16  H   UNL     1      41.944   7.071  11.754  0.00  0.00    +0.000 HD
ENDBRANCH   4  13
ENDBRANCH   1   8
BRANCH   1  17
ATOM     17  C   UNL     1      48.682   8.325  14.093  0.00  0.00    +0.000 A 
ATOM     18  C   UNL     1      48.375   9.393  14.949  0.00  0.00    +0.000 A 
ATOM     19  C   UNL     1      48.340   9.221  16.334  0.00  0.00    +0.000 A 
ATOM     20  C   UNL     1      48.619   7.973  16.890  0.00  0.00    +0.000 A 
ATOM     21  C   UNL     1      48.940   6.876  16.079  0.00  0.00    +0.000 A 
ATOM     22  C   UNL     1      48.981   7.086  14.692  0.00  0.00    +0.000 A 
BRANCH  21  23
ATOM     23  C   UNL     1      49.141   5.525  16.631  0.00  0.00    +0.000 A 
ATOM     24  C   UNL     1      48.083   4.610  16.721  0.00  0.00    +0.000 A 
ATOM     25  C   UNL     1      48.299   3.315  17.187  0.00  0.00    +0.000 A 
ATOM     26  C   UNL     1      49.583   2.956  17.554  0.00  0.00    +0.000 A 
ATOM     27  N   UNL     1      50.637   3.793  17.492  0.00  0.00    +0.000 NA
ATOM     28  C   UNL     1      50.389   5.049  17.042  0.00  0.00    +0.000 A 
ENDBRANCH  21  23
ENDBRANCH   1  17
TORSDOF 4
ENDMDL
MODEL 4
REMARK VINA RESULT:    -6.663      3.686      8.489
REMARK INTER + INTRA:          -8.429
REMARK INTER:                  -8.167
REMARK INTRA:                  -0.263
REMARK UNBOUND:                -0.209
REMARK  Name = 
REMARK  4 active torsions:
REMARK  status: ('A' for Active; 'I' for Inactive)
REMARK    1  A    between atoms: C_2  and  C_4
REMARK    2  A    between atoms: N_8  and  C_9
REMARK    3  A    between atoms: C_9  and  C_10
REMARK    4  A    between atoms: C_14  and  C_15
REMARK                            x       y       z     vdW  Elec       q    Type
REMARK                         _______ _______ _______ _____ _____    ______ ____
ROOT
ATOM      1  C   UNL     1      49.009   7.773  12.569  0.00  0.00    +0.000 C 
ATOM      2  C   UNL     1      49.900   8.146  11.395  0.00  0.00    +0.000 C 
ATOM      3  C   UNL     1      49.535   9.194  12.392  0.00  0.00    +0.000 C 
ENDROOT
BRANCH   1   8
ATOM      4  C   UNL     1      48.706   7.358  17.718  0.00  0.00    +0.000 A 
ATOM      5  C   UNL     1      48.515   8.457  16.891  0.00  0.00    +0.000 A 
ATOM      6  C   UNL     1      48.799   8.339  15.530  0.00  0.00    +0.000 A 
ATOM      7  C   UNL     1      49.259   7.133  15.011  0.00  0.00    +0.000 A 
ATOM      8  N   UNL     1      49.561   6.957  13.658  0.00  0.00    +0.000 N 
ATOM      9  N   UNL     1      49.464   6.064  15.809  0.00  0.00    +0.000 NA
ATOM     10  C   UNL     1      49.198   6.197  17.137  0.00  0.00    +0.000 A 
ATOM     11  H   UNL     1      49.791   5.982  13.497  0.00  0.00    +0.000 HD
BRANCH   4  13
ATOM     12  N   UNL     1      47.497   8.280  19.611  0.00  0.00    +0.000 N 
ATOM     13  C   UNL     1      48.438   7.389  19.166  0.00  0.00    +0.000 C 
ATOM     14  O   UNL     1      48.999   6.627  19.942  0.00  0.00    +0.000 OA
ATOM     15  H   UNL     1      47.257   8.236  20.591  0.00  0.00    +0.000 HD
ATOM     16  H   UNL     1      46.854   8.750  18.990  0.00  0.00    +0.000 HD
ENDBRANCH   4  13
ENDBRANCH   1   8
BRANCH   1  17
ATOM     17  C   UNL     1      47.507   7.611  12.340  0.00  0.00    +0.000 A 
ATOM     18  C   UNL     1      46.597   8.610  12.715  0.00  0.00    +0.000 A 
ATOM     19  C   UNL     1      45.240   8.505  12.404  0.00  0.00    +0.000 A 
ATOM     20  C   UNL     1      44.767   7.389  11.714  0.00  0.00    +0.000 A 
ATOM     21  C   UNL     1      45.633   6.359  11.324  0.00  0.00    +0.000 A 
ATOM     22  C   UNL     1      46.989   6.490  11.665  0.00  0.00    +0.000 A 
BRANCH  21  23
ATOM     23  C   UNL     1      45.180   5.219  10.510  0.00  0.00    +0.000 A 
ATOM     24  C   UNL     1      45.621   5.045   9.190  0.00  0.00    +0.000 A 
ATOM     25  C   UNL     1      45.234   3.930   8.451  0.00  0.00    +0.000 A 
ATOM     26  C   UNL     1      44.408   2.999   9.053  0.00  0.00    +0.000 A 
ATOM     27  N   UNL     1      43.950   3.114  10.315  0.00  0.00    +0.000 NA
ATOM     28  C   UNL     1      44.340   4.217  11.003  0.00  0.00    +0.000 A 
ENDBRANCH  21  23
ENDBRANCH   1  17
TORSDOF 4
ENDMDL
MODEL 5
REMARK VINA RESULT:    -6.662      4.422      6.461
REMARK INTER + INTRA:          -8.429
REMARK INTER:                  -7.569
REMARK INTRA:                  -0.860
REMARK UNBOUND:                -0.209
REMARK  Name = 
REMARK  4 active torsions:
REMARK  status: ('A' for Active; 'I' for Inactive)
REMARK    1  A    between atoms: C_2  and  C_4
REMARK    2  A    between atoms: N_8  and  C_9
REMARK    3  A    between atoms: C_9  and  C_10
REMARK    4  A    between atoms: C_14  and  C_15
REMARK                            x       y       z     vdW  Elec       q    Type
REMARK                         _______ _______ _______ _____ _____    ______ ____
ROOT
ATOM      1  C   UNL     1      47.814   8.256  13.773  0.00  0.00    +0.000 C 
ATOM      2  C   UNL     1      48.651   7.229  14.520  0.00  0.00    +0.000 C 
ATOM      3  C   UNL     1      48.319   8.521  15.188  0.00  0.00    +0.000 C 
ENDROOT
BRANCH   1   8
ATOM      4  C   UNL     1      44.681   5.217  10.994  0.00  0.00    +0.000 A 
ATOM      5  C   UNL     1      45.965   5.672  10.725  0.00  0.00    +0.000 A 
ATOM      6  C   UNL     1      46.547   6.608  11.580  0.00  0.00    +0.000 A 
ATOM      7  C   UNL     1      45.849   7.072  12.692  0.00  0.00    +0.000 A 
ATOM      8  N   UNL     1      46.380   8.010  13.581  0.00  0.00    +0.000 N 
ATOM      9  N   UNL     1      44.595   6.649  12.953  0.00  0.00    +0.000 NA
ATOM     10  C   UNL     1      44.033   5.747  12.102  0.00  0.00    +0.000 A 
ATOM     11  H   UNL     1      45.735   8.129  14.355  0.00  0.00    +0.000 HD
BRANCH   4  13
ATOM     12  N   UNL     1      44.088   4.390   8.790  0.00  0.00    +0.000 N 
ATOM     13  C   UNL     1      43.986   4.234  10.147  0.00  0.00    +0.000 C 
ATOM     14  O   UNL     1      43.373   3.289  10.626  0.00  0.00    +0.000 OA
ATOM     15  H   UNL     1      43.681   3.665   8.216  0.00  0.00    +0.000 HD
ATOM     16  H   UNL     1      44.766   5.004   8.361  0.00  0.00    +0.000 HD
ENDBRANCH   4  13
ENDBRANCH   1   8
BRANCH   1  17
ATOM     17  C   UNL     1      48.475   9.103  12.687  0.00  0.00    +0.000 A 
ATOM     18  C   UNL     1      47.985  10.374  12.349  0.00  0.00    +0.000 A 
ATOM     19  C   UNL     1      48.656  11.188  11.435  0.00  0.00    +0.000 A 
ATOM     20  C   UNL     1      49.833  10.739  10.835  0.00  0.00    +0.000 A 
ATOM     21  C   UNL     1      50.359   9.474  11.130  0.00  0.00    +0.000 A 
ATOM     22  C   UNL     1      49.651   8.677  12.043  0.00  0.00    +0.000 A 
BRANCH  21  23
ATOM     23  C   UNL     1      51.649   9.016  10.589  0.00  0.00    +0.000 A 
ATOM     24  C   UNL     1      51.994   7.657  10.578  0.00  0.00    +0.000 A 
ATOM     25  C   UNL     1      53.190   7.230  10.007  0.00  0.00    +0.000 A 
ATOM     26  C   UNL     1      54.026   8.179   9.448  0.00  0.00    +0.000 A 
ATOM     27  N   UNL     1      53.750   9.499   9.433  0.00  0.00    +0.000 NA
ATOM     28  C   UNL     1      52.580   9.880  10.005  0.00  0.00    +0.000 A 
ENDBRANCH  21  23
ENDBRANCH   1  17
TORSDOF 4
ENDMDL
MODEL 6
REMARK VINA RESULT:    -6.593      3.996      8.744
REMARK INTER + INTRA:          -8.344
REMARK INTER:                  -7.732
REMARK INTRA:                  -0.612
REMARK UNBOUND:                -0.209
REMARK  Name = 
REMARK  4 active torsions:
REMARK  status: ('A' for Active; 'I' for Inactive)
REMARK    1  A    between atoms: C_2  and  C_4
REMARK    2  A    between atoms: N_8  and  C_9
REMARK    3  A    between atoms: C_9  and  C_10
REMARK    4  A    between atoms: C_14  and  C_15
REMARK                            x       y       z     vdW  Elec       q    Type
REMARK                         _______ _______ _______ _____ _____    ______ ____
ROOT
ATOM      1  C   UNL     1      48.541   4.246  17.365  0.00  0.00    +0.000 C 
ATOM      2  C   UNL     1      48.674   4.772  18.786  0.00  0.00    +0.000 C 
ATOM      3  C   UNL     1      47.372   4.193  18.343  0.00  0.00    +0.000 C 
ENDROOT
BRANCH   1   8
ATOM      4  C   UNL     1      53.096   1.870  17.987  0.00  0.00    +0.000 A 
ATOM      5  C   UNL     1      52.782   3.223  17.962  0.00  0.00    +0.000 A 
ATOM      6  C   UNL     1      51.484   3.612  17.632  0.00  0.00    +0.000 A 
ATOM      7  C   UNL     1      50.517   2.655  17.340  0.00  0.00    +0.000 A 
ATOM      8  N   UNL     1      49.202   2.986  17.002  0.00  0.00    +0.000 N 
ATOM      9  N   UNL     1      50.816   1.339  17.345  0.00  0.00    +0.000 NA
ATOM     10  C   UNL     1      52.090   0.974  17.654  0.00  0.00    +0.000 A 
ATOM     11  H   UNL     1      48.660   2.132  16.920  0.00  0.00    +0.000 HD
BRANCH   4  13
ATOM     12  N   UNL     1      54.593   0.740  19.529  0.00  0.00    +0.000 N 
ATOM     13  C   UNL     1      54.439   1.366  18.320  0.00  0.00    +0.000 C 
ATOM     14  O   UNL     1      55.375   1.463  17.538  0.00  0.00    +0.000 OA
ATOM     15  H   UNL     1      55.494   0.322  19.713  0.00  0.00    +0.000 HD
ATOM     16  H   UNL     1      53.810   0.435  20.089  0.00  0.00    +0.000 HD
ENDBRANCH   4  13
ENDBRANCH   1   8
BRANCH   1  17
ATOM     17  C   UNL     1      48.373   5.240  16.217  0.00  0.00    +0.000 A 
ATOM     18  C   UNL     1      49.158   6.400  16.132  0.00  0.00    +0.000 A 
ATOM     19  C   UNL     1      49.076   7.247  15.025  0.00  0.00    +0.000 A 
ATOM     20  C   UNL     1      48.199   6.950  13.982  0.00  0.00    +0.000 A 
ATOM     21  C   UNL     1      47.386   5.809  14.024  0.00  0.00    +0.000 A 
ATOM     22  C   UNL     1      47.483   4.987  15.157  0.00  0.00    +0.000 A 
BRANCH  21  23
ATOM     23  C   UNL     1      46.525   5.419  12.895  0.00  0.00    +0.000 A 
ATOM     24  C   UNL     1      46.448   6.199  11.733  0.00  0.00    +0.000 A 
ATOM     25  C   UNL     1      45.677   5.787  10.648  0.00  0.00    +0.000 A 
ATOM     26  C   UNL     1      44.995   4.588  10.746  0.00  0.00    +0.000 A 
ATOM     27  N   UNL     1      45.028   3.799  11.837  0.00  0.00    +0.000 NA
ATOM     28  C   UNL     1      45.782   4.235  12.879  0.00  0.00    +0.000 A 
ENDBRANCH  21  23
ENDBRANCH   1  17
TORSDOF 4
ENDMDL
