MODEL 1
REMARK VINA RESULT:    -8.050      0.000      0.000
REMARK INTER + INTRA:         -11.918
REMARK INTER:                 -10.873
REMARK INTRA:                  -1.045
REMARK UNBOUND:                -1.045
REMARK  Name = 
REMARK  7 active torsions:
REMARK  status: ('A' for Active; 'I' for Inactive)
REMARK    1  A    between atoms: C_1  and  O_2
REMARK    2  A    between atoms: O_2  and  C_3
REMARK    3  A    between atoms: C_7  and  C_8
REMARK    4  A    between atoms: C_8  and  C_9
REMARK    5  A    between atoms: C_12  and  C_13
REMARK    6  A    between atoms: C_13  and  N_14
REMARK    7  A    between atoms: C_15  and  C_17
REMARK                            x       y       z     vdW  Elec       q    Type
REMARK                         _______ _______ _______ _____ _____    ______ ____
ROOT
ATOM      1  C   UNL     1      47.337   8.231  13.575  0.00  0.00    +0.000 C 
ENDROOT
BRANCH   1   5
ATOM      2  C   UNL     1      44.698   5.933  11.129  0.00  0.00    +0.000 A 
ATOM      3  C   UNL     1      45.915   5.372  11.507  0.00  0.00    +0.000 A 
ATOM      4  C   UNL     1      46.787   6.116  12.302  0.00  0.00    +0.000 A 
ATOM      5  C   UNL     1      46.439   7.407  12.699  0.00  0.00    +0.000 A 
ATOM      6  C   UNL     1      45.206   7.887  12.273  0.00  0.00    +0.000 A 
ATOM      7  N   UNL     1      44.338   7.189  11.499  0.00  0.00    +0.000 NA
BRANCH   2   8
ATOM      8  C   UNL     1      43.682   5.108  10.362  0.00  0.00    +0.000 C 
BRANCH   8  13
ATOM      9  C   UNL     1      45.779   3.385   7.660  0.00  0.00    +0.000 A 
ATOM     10  C   UNL     1      45.721   2.056   8.084  0.00  0.00    +0.000 A 
ATOM     11  C   UNL     1      44.945   1.707   9.190  0.00  0.00    +0.000 A 
ATOM     12  C   UNL     1      44.246   2.687   9.894  0.00  0.00    +0.000 A 
ATOM     13  C   UNL     1      44.330   4.033   9.512  0.00  0.00    +0.000 A 
ATOM     14  C   UNL     1      45.073   4.364   8.369  0.00  0.00    +0.000 A 
BRANCH   9  16
ATOM     15  C   UNL     1      46.945   2.884   5.652  0.00  0.00    +0.000 C 
ATOM     16  O   UNL     1      46.497   3.852   6.593  0.00  0.00    +0.000 OA
ENDBRANCH   9  16
ENDBRANCH   8  13
ENDBRANCH   2   8
ENDBRANCH   1   5
BRANCH   1  17
ATOM     17  N   UNL     1      47.687   7.538  14.791  0.00  0.00    +0.000 N 
ATOM     18  C   UNL     1      48.905   6.918  14.925  0.00  0.00    +0.000 C 
ATOM     19  O   UNL     1      49.757   6.966  14.042  0.00  0.00    +0.000 OA
ATOM     20  H   UNL     1      46.930   7.283  15.419  0.00  0.00    +0.000 HD
BRANCH  18  21
ATOM     21  C   UNL     1      49.169   6.243  16.204  0.00  0.00    +0.000 A 
ATOM     22  C   UNL     1      50.174   6.716  17.037  0.00  0.00    +0.000 A 
ATOM     23  S   UNL     1      50.327   5.836  18.493  0.00  0.00    +0.000 S 
ATOM     24  C   UNL     1      49.090   4.761  18.037  0.00  0.00    +0.000 A 
ATOM     25  N   UNL     1      48.735   3.721  18.837  0.00  0.00    +0.000 NA
ATOM     26  C   UNL     1      47.803   2.970  18.354  0.00  0.00    +0.000 A 
ATOM     27  N   UNL     1      47.184   3.172  17.150  0.00  0.00    +0.000 N 
ATOM     28  C   UNL     1      47.486   4.224  16.320  0.00  0.00    +0.000 A 
ATOM     29  O   UNL     1      46.884   4.405  15.268  0.00  0.00    +0.000 OA
ATOM     30  C   UNL     1      48.545   5.088  16.803  0.00  0.00    +0.000 A 
ATOM     31  H   UNL     1      46.445   2.557  16.836  0.00  0.00    +0.000 HD
ENDBRANCH  18  21
ENDBRANCH   1  17
TORSDOF 6
ENDMDL
MODEL 2
REMARK VINA RESULT:    -7.405      2.410      3.024
REMARK INTER + INTRA:         -11.047
REMARK INTER:                 -10.096
REMARK INTRA:                  -0.951
REMARK UNBOUND:                -1.045
REMARK  Name = 
REMARK  7 active torsions:
REMARK  status: ('A' for Active; 'I' for Inactive)
REMARK    1  A    between atoms: C_1  and  O_2
REMARK    2  A    between atoms: O_2  and  C_3
REMARK    3  A    between atoms: C_7  and  C_8
REMARK    4  A    between atoms: C_8  and  C_9
REMARK    5  A    between atoms: C_12  and  C_13
REMARK    6  A    between atoms: C_13  and  N_14
REMARK    7  A    between atoms: C_15  and  C_17
REMARK                            x       y       z     vdW  Elec       q    Type
REMARK                         _______ _______ _______ _____ _____    ______ ____
ROOT
ATOM      1  C   UNL     1      48.554   6.739  14.138  0.00  0.00    +0.000 C 
ENDROOT
BRANCH   1   5
ATOM      2  C   UNL     1      45.216   5.610  11.727  0.00  0.00    +0.000 A 
ATOM      3  C   UNL     1      45.938   6.749  11.377  0.00  0.00    +0.000 A 
ATOM      4  C   UNL     1      47.027   7.130  12.160  0.00  0.00    +0.000 A 
ATOM      5  C   UNL     1      47.375   6.378  13.283  0.00  0.00    +0.000 A 
ATOM      6  C   UNL     1      46.597   5.259  13.558  0.00  0.00    +0.000 A 
ATOM      7  N   UNL     1      45.533   4.865  12.817  0.00  0.00    +0.000 NA
BRANCH   2   8
ATOM      8  C   UNL     1      44.100   5.108  10.830  0.00  0.00    +0.000 C 
BRANCH   8  13
ATOM      9  C   UNL     1      45.883   3.490   7.853  0.00  0.00    +0.000 A 
ATOM     10  C   UNL     1      45.663   2.136   8.113  0.00  0.00    +0.000 A 
ATOM     11  C   UNL     1      44.875   1.751   9.199  0.00  0.00    +0.000 A 
ATOM     12  C   UNL     1      44.329   2.714  10.046  0.00  0.00    +0.000 A 
ATOM     13  C   UNL     1      44.580   4.076   9.830  0.00  0.00    +0.000 A 
ATOM     14  C   UNL     1      45.330   4.452   8.706  0.00  0.00    +0.000 A 
BRANCH   9  16
ATOM     15  C   UNL     1      46.844   3.133   5.710  0.00  0.00    +0.000 C 
ATOM     16  O   UNL     1      46.630   3.994   6.823  0.00  0.00    +0.000 OA
ENDBRANCH   9  16
ENDBRANCH   8  13
ENDBRANCH   2   8
ENDBRANCH   1   5
BRANCH   1  17
ATOM     17  N   UNL     1      48.190   6.884  15.526  0.00  0.00    +0.000 N 
ATOM     18  C   UNL     1      48.924   6.276  16.516  0.00  0.00    +0.000 C 
ATOM     19  O   UNL     1      49.937   5.629  16.266  0.00  0.00    +0.000 OA
ATOM     20  H   UNL     1      47.246   7.199  15.732  0.00  0.00    +0.000 HD
BRANCH  18  21
ATOM     21  C   UNL     1      48.475   6.488  17.899  0.00  0.00    +0.000 A 
ATOM     22  C   UNL     1      48.419   5.413  18.776  0.00  0.00    +0.000 A 
ATOM     23  S   UNL     1      47.905   5.839  20.348  0.00  0.00    +0.000 S 
ATOM     24  C   UNL     1      47.690   7.465  19.897  0.00  0.00    +0.000 A 
ATOM     25  N   UNL     1      47.224   8.382  20.784  0.00  0.00    +0.000 NA
ATOM     26  C   UNL     1      47.083   9.570  20.299  0.00  0.00    +0.000 A 
ATOM     27  N   UNL     1      47.378   9.927  19.011  0.00  0.00    +0.000 N 
ATOM     28  C   UNL     1      47.879   9.044  18.086  0.00  0.00    +0.000 A 
ATOM     29  O   UNL     1      48.177   9.402  16.952  0.00  0.00    +0.000 OA
ATOM     30  C   UNL     1      48.036   7.687  18.572  0.00  0.00    +0.000 A 
ATOM     31  H   UNL     1      47.264  10.881  18.696  0.00  0.00    +0.000 HD
ENDBRANCH  18  21
ENDBRANCH   1  17
TORSDOF 6
ENDMDL
MODEL 3
REMARK VINA RESULT:    -7.098      2.419      4.166
REMARK INTER + INTRA:         -10.632
REMARK INTER:                  -9.777
REMARK INTRA:                  -0.855
REMARK UNBOUND:                -1.045
REMARK  Name = 
REMARK  7 active torsions:
REMARK  status: ('A' for Active; 'I' for Inactive)
REMARK    1  A    between atoms: C_1  and  O_2
REMARK    2  A    between atoms: O_2  and  C_3
REMARK    3  A    between atoms: C_7  and  C_8
REMARK    4  A    between atoms: C_8  and  C_9
REMARK    5  A    between atoms: C_12  and  C_13
REMARK    6  A    between atoms: C_13  and  N_14
REMARK    7  A    between atoms: C_15  and  C_17
REMARK                            x       y       z     vdW  Elec       q    Type
REMARK                         _______ _______ _______ _____ _____    ______ ____
ROOT
ATOM      1  C   UNL     1      45.582   4.989  13.808  0.00  0.00    +0.000 C 
ENDROOT
BRANCH   1   5
ATOM      2  C   UNL     1      44.785   4.281   9.674  0.00  0.00    +0.000 A 
ATOM      3  C   UNL     1      45.443   5.454  10.035  0.00  0.00    +0.000 A 
ATOM      4  C   UNL     1      45.704   5.698  11.384  0.00  0.00    +0.000 A 
ATOM      5  C   UNL     1      45.299   4.776  12.350  0.00  0.00    +0.000 A 
ATOM      6  C   UNL     1      44.647   3.635  11.899  0.00  0.00    +0.000 A 
ATOM      7  N   UNL     1      44.378   3.371  10.596  0.00  0.00    +0.000 NA
BRANCH   2   8
ATOM      8  C   UNL     1      44.590   3.934   8.209  0.00  0.00    +0.000 C 
BRANCH   8  13
ATOM      9  C   UNL     1      47.063   1.133   7.373  0.00  0.00    +0.000 A 
ATOM     10  C   UNL     1      47.822   1.738   6.369  0.00  0.00    +0.000 A 
ATOM     11  C   UNL     1      47.589   3.069   6.021  0.00  0.00    +0.000 A 
ATOM     12  C   UNL     1      46.578   3.792   6.652  0.00  0.00    +0.000 A 
ATOM     13  C   UNL     1      45.773   3.188   7.628  0.00  0.00    +0.000 A 
ATOM     14  C   UNL     1      46.051   1.865   8.005  0.00  0.00    +0.000 A 
BRANCH   9  16
ATOM     15  C   UNL     1      46.418  -1.141   7.134  0.00  0.00    +0.000 C 
ATOM     16  O   UNL     1      47.197  -0.158   7.807  0.00  0.00    +0.000 OA
ENDBRANCH   9  16
ENDBRANCH   8  13
ENDBRANCH   2   8
ENDBRANCH   1   5
BRANCH   1  17
ATOM     17  N   UNL     1      46.680   5.902  14.016  0.00  0.00    +0.000 N 
ATOM     18  C   UNL     1      47.793   5.518  14.725  0.00  0.00    +0.000 C 
ATOM     19  O   UNL     1      47.918   4.379  15.167  0.00  0.00    +0.000 OA
ATOM     20  H   UNL     1      46.500   6.892  13.877  0.00  0.00    +0.000 HD
BRANCH  18  21
ATOM     21  C   UNL     1      48.859   6.517  14.878  0.00  0.00    +0.000 A 
ATOM     22  C   UNL     1      49.430   6.729  16.125  0.00  0.00    +0.000 A 
ATOM     23  S   UNL     1      50.672   7.902  16.120  0.00  0.00    +0.000 S 
ATOM     24  C   UNL     1      50.454   8.204  14.460  0.00  0.00    +0.000 A 
ATOM     25  N   UNL     1      51.193   9.146  13.817  0.00  0.00    +0.000 NA
ATOM     26  C   UNL     1      50.903   9.290  12.568  0.00  0.00    +0.000 A 
ATOM     27  N   UNL     1      49.950   8.569  11.899  0.00  0.00    +0.000 N 
ATOM     28  C   UNL     1      49.198   7.587  12.498  0.00  0.00    +0.000 A 
ATOM     29  O   UNL     1      48.384   6.926  11.864  0.00  0.00    +0.000 OA
ATOM     30  C   UNL     1      49.468   7.398  13.909  0.00  0.00    +0.000 A 
ATOM     31  H   UNL     1      49.783   8.716  10.913  0.00  0.00    +0.000 HD
ENDBRANCH  18  21
ENDBRANCH   1  17
TORSDOF 6
ENDMDL
MODEL 4
REMARK VINA RESULT:    -7.081      2.491      3.698
REMARK INTER + INTRA:         -10.609
REMARK INTER:                 -10.039
REMARK INTRA:                  -0.570
REMARK UNBOUND:                -1.045
REMARK  Name = 
REMARK  7 active torsions:
REMARK  status: ('A' for Active; 'I' for Inactive)
REMARK    1  A    between atoms: C_1  and  O_2
REMARK    2  A    between atoms: O_2  and  C_3
REMARK    3  A    between atoms: C_7  and  C_8
REMARK    4  A    between atoms: C_8  and  C_9
REMARK    5  A    between atoms: C_12  and  C_13
REMARK    6  A    between atoms: C_13  and  N_14
REMARK    7  A    between atoms: C_15  and  C_17
REMARK                            x       y       z     vdW  Elec       q    Type
REMARK                         _______ _______ _______ _____ _____    ______ ____
ROOT
ATOM      1  C   UNL     1      46.410   4.596  14.322  0.00  0.00    +0.000 C 
ENDROOT
BRANCH   1   5
ATOM      2  C   UNL     1      45.029   4.324  10.291  0.00  0.00    +0.000 A 
ATOM      3  C   UNL     1      45.571   5.529  10.731  0.00  0.00    +0.000 A 
ATOM      4  C   UNL     1      46.021   5.630  12.047  0.00  0.00    +0.000 A 
ATOM      5  C   UNL     1      45.915   4.536  12.906  0.00  0.00    +0.000 A 
ATOM      6  C   UNL     1      45.359   3.375  12.383  0.00  0.00    +0.000 A 
ATOM      7  N   UNL     1      44.912   3.246  11.109  0.00  0.00    +0.000 NA
BRANCH   2   8
ATOM      8  C   UNL     1      44.638   4.147   8.835  0.00  0.00    +0.000 C 
BRANCH   8  13
ATOM      9  C   UNL     1      46.778   1.232   7.576  0.00  0.00    +0.000 A 
ATOM     10  C   UNL     1      47.376   1.806   6.453  0.00  0.00    +0.000 A 
ATOM     11  C   UNL     1      47.152   3.150   6.150  0.00  0.00    +0.000 A 
ATOM     12  C   UNL     1      46.308   3.918   6.949  0.00  0.00    +0.000 A 
ATOM     13  C   UNL     1      45.659   3.347   8.053  0.00  0.00    +0.000 A 
ATOM     14  C   UNL     1      45.933   2.009   8.377  0.00  0.00    +0.000 A 
BRANCH   9  16
ATOM     15  C   UNL     1      46.410  -1.067   7.108  0.00  0.00    +0.000 C 
ATOM     16  O   UNL     1      46.921  -0.067   7.981  0.00  0.00    +0.000 OA
ENDBRANCH   9  16
ENDBRANCH   8  13
ENDBRANCH   2   8
ENDBRANCH   1   5
BRANCH   1  17
ATOM     17  N   UNL     1      47.243   5.751  14.553  0.00  0.00    +0.000 N 
ATOM     18  C   UNL     1      48.245   5.722  15.493  0.00  0.00    +0.000 C 
ATOM     19  O   UNL     1      48.500   4.708  16.136  0.00  0.00    +0.000 OA
ATOM     20  H   UNL     1      46.904   6.648  14.219  0.00  0.00    +0.000 HD
BRANCH  18  21
ATOM     21  C   UNL     1      49.042   6.946  15.650  0.00  0.00    +0.000 A 
ATOM     22  C   UNL     1      49.806   7.411  14.588  0.00  0.00    +0.000 A 
ATOM     23  S   UNL     1      50.646   8.858  14.931  0.00  0.00    +0.000 S 
ATOM     24  C   UNL     1      50.059   8.885  16.527  0.00  0.00    +0.000 A 
ATOM     25  N   UNL     1      50.430   9.864  17.394  0.00  0.00    +0.000 NA
ATOM     26  C   UNL     1      49.932   9.745  18.579  0.00  0.00    +0.000 A 
ATOM     27  N   UNL     1      49.086   8.743  18.973  0.00  0.00    +0.000 N 
ATOM     28  C   UNL     1      48.659   7.748  18.127  0.00  0.00    +0.000 A 
ATOM     29  O   UNL     1      47.866   6.890  18.494  0.00  0.00    +0.000 OA
ATOM     30  C   UNL     1      49.207   7.821  16.787  0.00  0.00    +0.000 A 
ATOM     31  H   UNL     1      48.714   8.716  19.912  0.00  0.00    +0.000 HD
ENDBRANCH  18  21
ENDBRANCH   1  17
TORSDOF 6
ENDMDL
MODEL 5
REMARK VINA RESULT:    -7.027      2.004      2.134
REMARK INTER + INTRA:         -10.537
REMARK INTER:                  -9.567
REMARK INTRA:                  -0.970
REMARK UNBOUND:                -1.045
REMARK  Name = 
REMARK  7 active torsions:
REMARK  status: ('A' for Active; 'I' for Inactive)
REMARK    1  A    between atoms: C_1  and  O_2
REMARK    2  A    between atoms: O_2  and  C_3
REMARK    3  A    between atoms: C_7  and  C_8
REMARK    4  A    between atoms: C_8  and  C_9
REMARK    5  A    between atoms: C_12  and  C_13
REMARK    6  A    between atoms: C_13  and  N_14
REMARK    7  A    between atoms: C_15  and  C_17
REMARK                            x       y       z     vdW  Elec       q    Type
REMARK                         _______ _______ _______ _____ _____    ______ ____
ROOT
ATOM      1  C   UNL     1      48.108   8.249  13.738  0.00  0.00    +0.000 C 
ENDROOT
BRANCH   1   5
ATOM      2  C   UNL     1      45.084   6.035  11.693  0.00  0.00    +0.000 A 
ATOM      3  C   UNL     1      45.927   5.359  12.571  0.00  0.00    +0.000 A 
ATOM      4  C   UNL     1      46.922   6.072  13.241  0.00  0.00    +0.000 A 
ATOM      5  C   UNL     1      47.067   7.441  13.019  0.00  0.00    +0.000 A 
ATOM      6  C   UNL     1      46.183   8.033  12.124  0.00  0.00    +0.000 A 
ATOM      7  N   UNL     1      45.208   7.367  11.458  0.00  0.00    +0.000 NA
BRANCH   2   8
ATOM      8  C   UNL     1      43.922   5.311  11.039  0.00  0.00    +0.000 C 
BRANCH   8  13
ATOM      9  C   UNL     1      45.653   3.626   8.068  0.00  0.00    +0.000 A 
ATOM     10  C   UNL     1      45.420   2.279   8.351  0.00  0.00    +0.000 A 
ATOM     11  C   UNL     1      44.640   1.920   9.452  0.00  0.00    +0.000 A 
ATOM     12  C   UNL     1      44.115   2.903  10.289  0.00  0.00    +0.000 A 
ATOM     13  C   UNL     1      44.378   4.258  10.049  0.00  0.00    +0.000 A 
ATOM     14  C   UNL     1      45.121   4.608   8.911  0.00  0.00    +0.000 A 
BRANCH   9  16
ATOM     15  C   UNL     1      46.769   3.165   6.022  0.00  0.00    +0.000 C 
ATOM     16  O   UNL     1      46.394   4.105   7.022  0.00  0.00    +0.000 OA
ENDBRANCH   9  16
ENDBRANCH   8  13
ENDBRANCH   2   8
ENDBRANCH   1   5
BRANCH   1  17
ATOM     17  N   UNL     1      47.835   8.346  15.151  0.00  0.00    +0.000 N 
ATOM     18  C   UNL     1      48.839   8.201  16.076  0.00  0.00    +0.000 C 
ATOM     19  O   UNL     1      50.009   8.032  15.742  0.00  0.00    +0.000 OA
ATOM     20  H   UNL     1      46.869   8.242  15.449  0.00  0.00    +0.000 HD
BRANCH  18  21
ATOM     21  C   UNL     1      48.460   8.321  17.491  0.00  0.00    +0.000 A 
ATOM     22  C   UNL     1      48.436   9.572  18.093  0.00  0.00    +0.000 A 
ATOM     23  S   UNL     1      47.947   9.535  19.729  0.00  0.00    +0.000 S 
ATOM     24  C   UNL     1      47.801   7.840  19.704  0.00  0.00    +0.000 A 
ATOM     25  N   UNL     1      47.443   7.151  20.819  0.00  0.00    +0.000 NA
ATOM     26  C   UNL     1      47.399   5.871  20.664  0.00  0.00    +0.000 A 
ATOM     27  N   UNL     1      47.667   5.217  19.492  0.00  0.00    +0.000 N 
ATOM     28  C   UNL     1      48.004   5.869  18.331  0.00  0.00    +0.000 A 
ATOM     29  O   UNL     1      48.195   5.261  17.285  0.00  0.00    +0.000 OA
ATOM     30  C   UNL     1      48.091   7.311  18.454  0.00  0.00    +0.000 A 
ATOM     31  H   UNL     1      47.596   4.210  19.430  0.00  0.00    +0.000 HD
ENDBRANCH  18  21
ENDBRANCH   1  17
TORSDOF 6
ENDMDL
MODEL 6
REMARK VINA RESULT:    -6.944      2.444      3.554
REMARK INTER + INTRA:         -10.425
REMARK INTER:                  -9.709
REMARK INTRA:                  -0.716
REMARK UNBOUND:                -1.045
REMARK  Name = 
REMARK  7 active torsions:
REMARK  status: ('A' for Active; 'I' for Inactive)
REMARK    1  A    between atoms: C_1  and  O_2
REMARK    2  A    between atoms: O_2  and  C_3
REMARK    3  A    between atoms: C_7  and  C_8
REMARK    4  A    between atoms: C_8  and  C_9
REMARK    5  A    between atoms: C_12  and  C_13
REMARK    6  A    between atoms: C_13  and  N_14
REMARK    7  A    between atoms: C_15  and  C_17
REMARK                            x       y       z     vdW  Elec       q    Type
REMARK                         _______ _______ _______ _____ _____    ______ ____
ROOT
ATOM      1  C   UNL     1      47.668   4.393  15.652  0.00  0.00    +0.000 C 
ENDROOT
BRANCH   1   5
ATOM      2  C   UNL     1      45.540   5.370  12.082  0.00  0.00    +0.000 A 
ATOM      3  C   UNL     1      46.740   6.028  12.345  0.00  0.00    +0.000 A 
ATOM      4  C   UNL     1      47.441   5.720  13.511  0.00  0.00    +0.000 A 
ATOM      5  C   UNL     1      46.933   4.771  14.399  0.00  0.00    +0.000 A 
ATOM      6  C   UNL     1      45.729   4.167  14.057  0.00  0.00    +0.000 A 
ATOM      7  N   UNL     1      45.024   4.446  12.933  0.00  0.00    +0.000 NA
BRANCH   2   8
ATOM      8  C   UNL     1      44.815   5.600  10.768  0.00  0.00    +0.000 C 
BRANCH   8  13
ATOM      9  C   UNL     1      45.931   3.590   7.706  0.00  0.00    +0.000 A 
ATOM     10  C   UNL     1      45.577   2.296   8.093  0.00  0.00    +0.000 A 
ATOM     11  C   UNL     1      44.910   2.084   9.301  0.00  0.00    +0.000 A 
ATOM     12  C   UNL     1      44.620   3.158  10.139  0.00  0.00    +0.000 A 
ATOM     13  C   UNL     1      45.010   4.459   9.791  0.00  0.00    +0.000 A 
ATOM     14  C   UNL     1      45.634   4.665   8.552  0.00  0.00    +0.000 A 
BRANCH   9  16
ATOM     15  C   UNL     1      46.982   2.855   5.707  0.00  0.00    +0.000 C 
ATOM     16  O   UNL     1      46.580   3.928   6.551  0.00  0.00    +0.000 OA
ENDBRANCH   9  16
ENDBRANCH   8  13
ENDBRANCH   2   8
ENDBRANCH   1   5
BRANCH   1  17
ATOM     17  N   UNL     1      47.640   5.450  16.633  0.00  0.00    +0.000 N 
ATOM     18  C   UNL     1      48.792   6.100  17.005  0.00  0.00    +0.000 C 
ATOM     19  O   UNL     1      49.876   5.842  16.488  0.00  0.00    +0.000 OA
ATOM     20  H   UNL     1      46.823   5.510  17.234  0.00  0.00    +0.000 HD
BRANCH  18  21
ATOM     21  C   UNL     1      48.659   7.165  18.008  0.00  0.00    +0.000 A 
ATOM     22  C   UNL     1      48.798   6.863  19.355  0.00  0.00    +0.000 A 
ATOM     23  S   UNL     1      48.642   8.220  20.381  0.00  0.00    +0.000 S 
ATOM     24  C   UNL     1      48.331   9.249  19.063  0.00  0.00    +0.000 A 
ATOM     25  N   UNL     1      48.071  10.570  19.252  0.00  0.00    +0.000 NA
ATOM     26  C   UNL     1      47.825  11.225  18.168  0.00  0.00    +0.000 A 
ATOM     27  N   UNL     1      47.830  10.684  16.910  0.00  0.00    +0.000 N 
ATOM     28  C   UNL     1      48.116   9.362  16.665  0.00  0.00    +0.000 A 
ATOM     29  O   UNL     1      48.156   8.915  15.525  0.00  0.00    +0.000 OA
ATOM     30  C   UNL     1      48.378   8.573  17.852  0.00  0.00    +0.000 A 
ATOM     31  H   UNL     1      47.648  11.256  16.097  0.00  0.00    +0.000 HD
ENDBRANCH  18  21
ENDBRANCH   1  17
TORSDOF 6
ENDMDL
MODEL 7
REMARK VINA RESULT:    -6.857      4.211      9.463
REMARK INTER + INTRA:         -10.307
REMARK INTER:                  -9.535
REMARK INTRA:                  -0.772
REMARK UNBOUND:                -1.045
REMARK  Name = 
REMARK  7 active torsions:
REMARK  status: ('A' for Active; 'I' for Inactive)
REMARK    1  A    between atoms: C_1  and  O_2
REMARK    2  A    between atoms: O_2  and  C_3
REMARK    3  A    between atoms: C_7  and  C_8
REMARK    4  A    between atoms: C_8  and  C_9
REMARK    5  A    between atoms: C_12  and  C_13
REMARK    6  A    between atoms: C_13  and  N_14
REMARK    7  A    between atoms: C_15  and  C_17
REMARK                            x       y       z     vdW  Elec       q    Type
REMARK                         _______ _______ _______ _____ _____    ______ ____
ROOT
ATOM      1  C   UNL     1      47.220   3.499  16.753  0.00  0.00    +0.000 C 
ENDROOT
BRANCH   1   5
ATOM      2  C   UNL     1      51.350   4.232  17.552  0.00  0.00    +0.000 A 
ATOM      3  C   UNL     1      50.915   2.914  17.442  0.00  0.00    +0.000 A 
ATOM      4  C   UNL     1      49.568   2.663  17.186  0.00  0.00    +0.000 A 
ATOM      5  C   UNL     1      48.674   3.726  17.053  0.00  0.00    +0.000 A 
ATOM      6  C   UNL     1      49.195   5.008  17.180  0.00  0.00    +0.000 A 
ATOM      7  N   UNL     1      50.498   5.284  17.430  0.00  0.00    +0.000 NA
BRANCH   2   8
ATOM      8  C   UNL     1      52.827   4.539  17.716  0.00  0.00    +0.000 C 
BRANCH   8  13
ATOM      9  C   UNL     1      55.010   1.439  18.254  0.00  0.00    +0.000 A 
ATOM     10  C   UNL     1      55.173   1.465  19.640  0.00  0.00    +0.000 A 
ATOM     11  C   UNL     1      54.516   2.430  20.404  0.00  0.00    +0.000 A 
ATOM     12  C   UNL     1      53.718   3.391  19.786  0.00  0.00    +0.000 A 
ATOM     13  C   UNL     1      53.582   3.412  18.391  0.00  0.00    +0.000 A 
ATOM     14  C   UNL     1      54.206   2.405  17.639  0.00  0.00    +0.000 A 
BRANCH   9  16
ATOM     15  C   UNL     1      54.728  -0.386  16.760  0.00  0.00    +0.000 C 
ATOM     16  O   UNL     1      55.594   0.546  17.398  0.00  0.00    +0.000 OA
ENDBRANCH   9  16
ENDBRANCH   8  13
ENDBRANCH   2   8
ENDBRANCH   1   5
BRANCH   1  17
ATOM     17  N   UNL     1      46.714   4.448  15.791  0.00  0.00    +0.000 N 
ATOM     18  C   UNL     1      46.761   4.182  14.444  0.00  0.00    +0.000 C 
ATOM     19  O   UNL     1      47.189   3.116  14.009  0.00  0.00    +0.000 OA
ATOM     20  H   UNL     1      46.587   5.407  16.102  0.00  0.00    +0.000 HD
BRANCH  18  21
ATOM     21  C   UNL     1      46.216   5.209  13.546  0.00  0.00    +0.000 A 
ATOM     22  C   UNL     1      46.961   6.347  13.270  0.00  0.00    +0.000 A 
ATOM     23  S   UNL     1      46.194   7.422  12.187  0.00  0.00    +0.000 S 
ATOM     24  C   UNL     1      44.817   6.429  12.091  0.00  0.00    +0.000 A 
ATOM     25  N   UNL     1      43.743   6.791  11.341  0.00  0.00    +0.000 NA
ATOM     26  C   UNL     1      42.758   5.958  11.382  0.00  0.00    +0.000 A 
ATOM     27  N   UNL     1      42.755   4.788  12.093  0.00  0.00    +0.000 N 
ATOM     28  C   UNL     1      43.826   4.364  12.842  0.00  0.00    +0.000 A 
ATOM     29  O   UNL     1      43.812   3.291  13.433  0.00  0.00    +0.000 OA
ATOM     30  C   UNL     1      44.953   5.275  12.850  0.00  0.00    +0.000 A 
ATOM     31  H   UNL     1      41.957   4.167  12.069  0.00  0.00    +0.000 HD
ENDBRANCH  18  21
ENDBRANCH   1  17
TORSDOF 6
ENDMDL
MODEL 8
REMARK VINA RESULT:    -6.833      3.005      8.542
REMARK INTER + INTRA:         -10.275
REMARK INTER:                  -9.058
REMARK INTRA:                  -1.217
REMARK UNBOUND:                -1.045
REMARK  Name = 
REMARK  7 active torsions:
REMARK  status: ('A' for Active; 'I' for Inactive)
REMARK    1  A    between atoms: C_1  and  O_2
REMARK    2  A    between atoms: O_2  and  C_3
REMARK    3  A    between atoms: C_7  and  C_8
REMARK    4  A    between atoms: C_8  and  C_9
REMARK    5  A    between atoms: C_12  and  C_13
REMARK    6  A    between atoms: C_13  and  N_14
REMARK    7  A    between atoms: C_15  and  C_17
REMARK                            x       y       z     vdW  Elec       q    Type
REMARK                         _______ _______ _______ _____ _____    ______ ____
ROOT
ATOM      1  C   UNL     1      47.412   7.890  11.712  0.00  0.00    +0.000 C 
ENDROOT
BRANCH   1   5
ATOM      2  C   UNL     1      49.319   7.927  15.532  0.00  0.00    +0.000 A 
ATOM      3  C   UNL     1      48.341   8.881  15.265  0.00  0.00    +0.000 A 
ATOM      4  C   UNL     1      47.715   8.881  14.019  0.00  0.00    +0.000 A 
ATOM      5  C   UNL     1      48.078   7.939  13.056  0.00  0.00    +0.000 A 
ATOM      6  C   UNL     1      49.065   7.026  13.408  0.00  0.00    +0.000 A 
ATOM      7  N   UNL     1      49.693   7.002  14.610  0.00  0.00    +0.000 NA
BRANCH   2   8
ATOM      8  C   UNL     1      49.935   7.830  16.916  0.00  0.00    +0.000 C 
BRANCH   8  13
ATOM      9  C   UNL     1      48.283   4.938  18.805  0.00  0.00    +0.000 A 
ATOM     10  C   UNL     1      47.634   5.626  19.832  0.00  0.00    +0.000 A 
ATOM     11  C   UNL     1      47.665   7.021  19.869  0.00  0.00    +0.000 A 
ATOM     12  C   UNL     1      48.366   7.732  18.897  0.00  0.00    +0.000 A 
ATOM     13  C   UNL     1      49.063   7.058  17.885  0.00  0.00    +0.000 A 
ATOM     14  C   UNL     1      48.983   5.658  17.830  0.00  0.00    +0.000 A 
BRANCH   9  16
ATOM     15  C   UNL     1      47.618   3.037  17.545  0.00  0.00    +0.000 C 
ATOM     16  O   UNL     1      48.323   3.578  18.656  0.00  0.00    +0.000 OA
ENDBRANCH   9  16
ENDBRANCH   8  13
ENDBRANCH   2   8
ENDBRANCH   1   5
BRANCH   1  17
ATOM     17  N   UNL     1      46.752   6.627  11.484  0.00  0.00    +0.000 N 
ATOM     18  C   UNL     1      45.406   6.481  11.716  0.00  0.00    +0.000 C 
ATOM     19  O   UNL     1      44.706   7.422  12.079  0.00  0.00    +0.000 OA
ATOM     20  H   UNL     1      47.337   5.798  11.423  0.00  0.00    +0.000 HD
BRANCH  18  21
ATOM     21  C   UNL     1      44.827   5.157  11.448  0.00  0.00    +0.000 A 
ATOM     22  C   UNL     1      44.092   4.515  12.436  0.00  0.00    +0.000 A 
ATOM     23  S   UNL     1      43.468   3.001  11.950  0.00  0.00    +0.000 S 
ATOM     24  C   UNL     1      44.202   3.128  10.421  0.00  0.00    +0.000 A 
ATOM     25  N   UNL     1      44.091   2.130   9.505  0.00  0.00    +0.000 NA
ATOM     26  C   UNL     1      44.721   2.346   8.400  0.00  0.00    +0.000 A 
ATOM     27  N   UNL     1      45.441   3.476   8.121  0.00  0.00    +0.000 N 
ATOM     28  C   UNL     1      45.560   4.525   9.001  0.00  0.00    +0.000 A 
ATOM     29  O   UNL     1      46.174   5.544   8.707  0.00  0.00    +0.000 OA
ATOM     30  C   UNL     1      44.889   4.324  10.270  0.00  0.00    +0.000 A 
ATOM     31  H   UNL     1      45.898   3.595   7.227  0.00  0.00    +0.000 HD
ENDBRANCH  18  21
ENDBRANCH   1  17
TORSDOF 6
ENDMDL
MODEL 9
REMARK VINA RESULT:    -6.822      3.555      8.729
REMARK INTER + INTRA:         -10.260
REMARK INTER:                  -9.215
REMARK INTRA:                  -1.045
REMARK UNBOUND:                -1.045
REMARK  Name = 
REMARK  7 active torsions:
REMARK  status: ('A' for Active; 'I' for Inactive)
REMARK    1  A    between atoms: C_1  and  O_2
REMARK    2  A    between atoms: O_2  and  C_3
REMARK    3  A    between atoms: C_7  and  C_8
REMARK    4  A    between atoms: C_8  and  C_9
REMARK    5  A    between atoms: C_12  and  C_13
REMARK    6  A    between atoms: C_13  and  N_14
REMARK    7  A    between atoms: C_15  and  C_17
REMARK                            x       y       z     vdW  Elec       q    Type
REMARK                         _______ _______ _______ _____ _____    ______ ____
ROOT
ATOM      1  C   UNL     1      47.291   3.421  16.696  0.00  0.00    +0.000 C 
ENDROOT
BRANCH   1   5
ATOM      2  C   UNL     1      51.122   4.658  18.118  0.00  0.00    +0.000 A 
ATOM      3  C   UNL     1      50.970   3.351  17.660  0.00  0.00    +0.000 A 
ATOM      4  C   UNL     1      49.722   2.935  17.198  0.00  0.00    +0.000 A 
ATOM      5  C   UNL     1      48.644   3.821  17.208  0.00  0.00    +0.000 A 
ATOM      6  C   UNL     1      48.887   5.105  17.684  0.00  0.00    +0.000 A 
ATOM      7  N   UNL     1      50.088   5.538  18.141  0.00  0.00    +0.000 NA
BRANCH   2   8
ATOM      8  C   UNL     1      52.493   5.173  18.519  0.00  0.00    +0.000 C 
BRANCH   8  13
ATOM      9  C   UNL     1      54.008   6.673  15.338  0.00  0.00    +0.000 A 
ATOM     10  C   UNL     1      55.206   5.961  15.251  0.00  0.00    +0.000 A 
ATOM     11  C   UNL     1      55.485   4.948  16.169  0.00  0.00    +0.000 A 
ATOM     12  C   UNL     1      54.585   4.660  17.193  0.00  0.00    +0.000 A 
ATOM     13  C   UNL     1      53.399   5.396  17.325  0.00  0.00    +0.000 A 
ATOM     14  C   UNL     1      53.106   6.378  16.367  0.00  0.00    +0.000 A 
BRANCH   9  16
ATOM     15  C   UNL     1      54.345   7.824  13.288  0.00  0.00    +0.000 C 
ATOM     16  O   UNL     1      53.616   7.682  14.501  0.00  0.00    +0.000 OA
ENDBRANCH   9  16
ENDBRANCH   8  13
ENDBRANCH   2   8
ENDBRANCH   1   5
BRANCH   1  17
ATOM     17  N   UNL     1      46.760   4.386  15.765  0.00  0.00    +0.000 N 
ATOM     18  C   UNL     1      46.792   4.153  14.411  0.00  0.00    +0.000 C 
ATOM     19  O   UNL     1      47.228   3.104  13.945  0.00  0.00    +0.000 OA
ATOM     20  H   UNL     1      46.624   5.335  16.101  0.00  0.00    +0.000 HD
BRANCH  18  21
ATOM     21  C   UNL     1      46.221   5.195  13.546  0.00  0.00    +0.000 A 
ATOM     22  C   UNL     1      46.936   6.361  13.309  0.00  0.00    +0.000 A 
ATOM     23  S   UNL     1      46.142   7.450  12.260  0.00  0.00    +0.000 S 
ATOM     24  C   UNL     1      44.792   6.423  12.127  0.00  0.00    +0.000 A 
ATOM     25  N   UNL     1      43.710   6.781  11.387  0.00  0.00    +0.000 NA
ATOM     26  C   UNL     1      42.748   5.921  11.398  0.00  0.00    +0.000 A 
ATOM     27  N   UNL     1      42.775   4.729  12.071  0.00  0.00    +0.000 N 
ATOM     28  C   UNL     1      43.856   4.309  12.808  0.00  0.00    +0.000 A 
ATOM     29  O   UNL     1      43.869   3.217  13.363  0.00  0.00    +0.000 OA
ATOM     30  C   UNL     1      44.958   5.250  12.848  0.00  0.00    +0.000 A 
ATOM     31  H   UNL     1      41.995   4.087  12.023  0.00  0.00    +0.000 HD
ENDBRANCH  18  21
ENDBRANCH   1  17
TORSDOF 6
ENDMDL
