MODEL 1
REMARK VINA RESULT:    -5.971      0.000      0.000
REMARK INTER + INTRA:          -9.420
REMARK INTER:                  -8.065
REMARK INTRA:                  -1.355
REMARK UNBOUND:                -1.355
REMARK  Name = 
REMARK  7 active torsions:
REMARK  status: ('A' for Active; 'I' for Inactive)
REMARK    1  A    between atoms: C_1  and  O_2
REMARK    2  A    between atoms: O_2  and  C_3
REMARK    3  A    between atoms: C_10  and  C_11
REMARK    4  A    between atoms: N_13  and  C_14
REMARK    5  A    between atoms: C_14  and  C_15
REMARK    6  A    between atoms: C_18  and  C_19
REMARK    7  A    between atoms: C_20  and  C_21
REMARK                            x       y       z     vdW  Elec       q    Type
REMARK                         _______ _______ _______ _____ _____    ______ ____
ROOT
ATOM      1  C   UNL     1      51.409   5.017  19.780  0.00  0.00    +0.000 C 
ATOM      2  O   UNL     1      51.502   6.246  19.775  0.00  0.00    +0.000 OA
ATOM      3  N   UNL     1      50.200   4.397  19.636  0.00  0.00    +0.000 N 
ATOM      4  H   UNL     1      50.152   3.389  19.595  0.00  0.00    +0.000 HD
ENDROOT
BRANCH   1  12
ATOM      5  C   UNL     1      52.689   2.390  17.966  0.00  0.00    +0.000 A 
ATOM      6  N   UNL     1      53.396   1.363  17.453  0.00  0.00    +0.000 NA
ATOM      7  C   UNL     1      54.495   0.973  18.103  0.00  0.00    +0.000 A 
ATOM      8  N   UNL     1      54.989   1.490  19.225  0.00  0.00    +0.000 NA
ATOM      9  C   UNL     1      54.261   2.516  19.696  0.00  0.00    +0.000 A 
ATOM     10  S   UNL     1      54.744   3.302  21.121  0.00  0.00    +0.000 S 
ATOM     11  C   UNL     1      53.424   4.369  21.041  0.00  0.00    +0.000 A 
ATOM     12  C   UNL     1      52.595   4.158  19.944  0.00  0.00    +0.000 A 
ATOM     13  C   UNL     1      53.101   3.048  19.139  0.00  0.00    +0.000 A 
BRANCH   5  15
ATOM     14  C   UNL     1      50.618   1.777  17.064  0.00  0.00    +0.000 C 
ATOM     15  O   UNL     1      51.572   2.813  17.280  0.00  0.00    +0.000 OA
ENDBRANCH   5  15
ENDBRANCH   1  12
BRANCH   3  16
ATOM     16  C   UNL     1      48.966   5.122  19.482  0.00  0.00    +0.000 C 
BRANCH  16  17
ATOM     17  C   UNL     1      48.485   5.091  18.052  0.00  0.00    +0.000 A 
ATOM     18  C   UNL     1      47.627   4.076  17.612  0.00  0.00    +0.000 A 
ATOM     19  C   UNL     1      47.164   4.057  16.289  0.00  0.00    +0.000 A 
ATOM     20  C   UNL     1      47.545   5.050  15.377  0.00  0.00    +0.000 A 
ATOM     21  C   UNL     1      48.449   6.030  15.805  0.00  0.00    +0.000 A 
ATOM     22  C   UNL     1      48.914   6.050  17.128  0.00  0.00    +0.000 A 
BRANCH  20  23
ATOM     23  C   UNL     1      47.106   5.036  13.971  0.00  0.00    +0.000 C 
ATOM     24  C   UNL     1      45.878   4.675  13.556  0.00  0.00    +0.000 C 
BRANCH  24  25
ATOM     25  C   UNL     1      45.470   4.554  12.144  0.00  0.00    +0.000 A 
ATOM     26  C   UNL     1      45.730   5.562  11.205  0.00  0.00    +0.000 A 
ATOM     27  C   UNL     1      45.424   5.381   9.854  0.00  0.00    +0.000 A 
ATOM     28  C   UNL     1      44.862   4.184   9.420  0.00  0.00    +0.000 A 
ATOM     29  C   UNL     1      44.602   3.168  10.338  0.00  0.00    +0.000 A 
ATOM     30  C   UNL     1      44.907   3.351  11.692  0.00  0.00    +0.000 A 
ENDBRANCH  24  25
ENDBRANCH  20  23
ENDBRANCH  16  17
ENDBRANCH   3  16
TORSDOF 6
ENDMDL
MODEL 2
REMARK VINA RESULT:    -5.945      4.526      9.726
REMARK INTER + INTRA:          -9.385
REMARK INTER:                  -8.383
REMARK INTRA:                  -1.002
REMARK UNBOUND:                -1.355
REMARK  Name = 
REMARK  7 active torsions:
REMARK  status: ('A' for Active; 'I' for Inactive)
REMARK    1  A    between atoms: C_1  and  O_2
REMARK    2  A    between atoms: O_2  and  C_3
REMARK    3  A    between atoms: C_10  and  C_11
REMARK    4  A    between atoms: N_13  and  C_14
REMARK    5  A    between atoms: C_14  and  C_15
REMARK    6  A    between atoms: C_18  and  C_19
REMARK    7  A    between atoms: C_20  and  C_21
REMARK                            x       y       z     vdW  Elec       q    Type
REMARK                         _______ _______ _______ _____ _____    ______ ____
ROOT
ATOM      1  C   UNL     1      48.198   6.093  14.891  0.00  0.00    +0.000 C 
ATOM      2  O   UNL     1      49.312   6.539  14.608  0.00  0.00    +0.000 OA
ATOM      3  N   UNL     1      47.890   5.715  16.167  0.00  0.00    +0.000 N 
ATOM      4  H   UNL     1      46.956   5.397  16.387  0.00  0.00    +0.000 HD
ENDROOT
BRANCH   1  12
ATOM      5  C   UNL     1      46.421   8.341  12.989  0.00  0.00    +0.000 A 
ATOM      6  N   UNL     1      45.604   8.989  12.135  0.00  0.00    +0.000 NA
ATOM      7  C   UNL     1      44.774   8.257  11.386  0.00  0.00    +0.000 A 
ATOM      8  N   UNL     1      44.657   6.932  11.382  0.00  0.00    +0.000 NA
ATOM      9  C   UNL     1      45.496   6.327  12.239  0.00  0.00    +0.000 A 
ATOM     10  S   UNL     1      45.486   4.634  12.367  0.00  0.00    +0.000 S 
ATOM     11  C   UNL     1      46.708   4.665  13.546  0.00  0.00    +0.000 A 
ATOM     12  C   UNL     1      47.149   5.945  13.868  0.00  0.00    +0.000 A 
ATOM     13  C   UNL     1      46.420   6.938  13.081  0.00  0.00    +0.000 A 
BRANCH   5  15
ATOM     14  C   UNL     1      48.397   9.597  12.985  0.00  0.00    +0.000 C 
ATOM     15  O   UNL     1      47.299   9.093  13.740  0.00  0.00    +0.000 OA
ENDBRANCH   5  15
ENDBRANCH   1  12
BRANCH   3  16
ATOM     16  C   UNL     1      48.830   5.798  17.254  0.00  0.00    +0.000 C 
BRANCH  16  17
ATOM     17  C   UNL     1      49.665   4.546  17.355  0.00  0.00    +0.000 A 
ATOM     18  C   UNL     1      49.088   3.286  17.149  0.00  0.00    +0.000 A 
ATOM     19  C   UNL     1      49.868   2.123  17.223  0.00  0.00    +0.000 A 
ATOM     20  C   UNL     1      51.238   2.191  17.503  0.00  0.00    +0.000 A 
ATOM     21  C   UNL     1      51.799   3.446  17.766  0.00  0.00    +0.000 A 
ATOM     22  C   UNL     1      51.022   4.611  17.693  0.00  0.00    +0.000 A 
BRANCH  20  23
ATOM     23  C   UNL     1      52.076   0.984  17.625  0.00  0.00    +0.000 C 
ATOM     24  C   UNL     1      53.409   0.956  17.444  0.00  0.00    +0.000 C 
BRANCH  24  25
ATOM     25  C   UNL     1      54.232  -0.267  17.456  0.00  0.00    +0.000 A 
ATOM     26  C   UNL     1      54.294  -1.111  18.573  0.00  0.00    +0.000 A 
ATOM     27  C   UNL     1      55.001  -2.316  18.524  0.00  0.00    +0.000 A 
ATOM     28  C   UNL     1      55.649  -2.698  17.354  0.00  0.00    +0.000 A 
ATOM     29  C   UNL     1      55.594  -1.873  16.231  0.00  0.00    +0.000 A 
ATOM     30  C   UNL     1      54.887  -0.666  16.282  0.00  0.00    +0.000 A 
ENDBRANCH  24  25
ENDBRANCH  20  23
ENDBRANCH  16  17
ENDBRANCH   3  16
TORSDOF 6
ENDMDL
MODEL 3
REMARK VINA RESULT:    -5.904      4.386      9.295
REMARK INTER + INTRA:          -9.330
REMARK INTER:                  -8.029
REMARK INTRA:                  -1.301
REMARK UNBOUND:                -1.355
REMARK  Name = 
REMARK  7 active torsions:
REMARK  status: ('A' for Active; 'I' for Inactive)
REMARK    1  A    between atoms: C_1  and  O_2
REMARK    2  A    between atoms: O_2  and  C_3
REMARK    3  A    between atoms: C_10  and  C_11
REMARK    4  A    between atoms: N_13  and  C_14
REMARK    5  A    between atoms: C_14  and  C_15
REMARK    6  A    between atoms: C_18  and  C_19
REMARK    7  A    between atoms: C_20  and  C_21
REMARK                            x       y       z     vdW  Elec       q    Type
REMARK                         _______ _______ _______ _____ _____    ______ ____
ROOT
ATOM      1  C   UNL     1      47.961   7.858  13.924  0.00  0.00    +0.000 C 
ATOM      2  O   UNL     1      48.882   8.473  13.383  0.00  0.00    +0.000 OA
ATOM      3  N   UNL     1      47.910   7.710  15.281  0.00  0.00    +0.000 N 
ATOM      4  H   UNL     1      47.121   7.243  15.708  0.00  0.00    +0.000 HD
ENDROOT
BRANCH   1  12
ATOM      5  C   UNL     1      46.765   4.647  13.629  0.00  0.00    +0.000 A 
ATOM      6  N   UNL     1      46.109   3.507  13.333  0.00  0.00    +0.000 NA
ATOM      7  C   UNL     1      45.110   3.570  12.449  0.00  0.00    +0.000 A 
ATOM      8  N   UNL     1      44.673   4.652  11.811  0.00  0.00    +0.000 NA
ATOM      9  C   UNL     1      45.345   5.767  12.142  0.00  0.00    +0.000 A 
ATOM     10  S   UNL     1      44.922   7.246  11.425  0.00  0.00    +0.000 S 
ATOM     11  C   UNL     1      46.130   8.069  12.290  0.00  0.00    +0.000 A 
ATOM     12  C   UNL     1      46.875   7.252  13.135  0.00  0.00    +0.000 A 
ATOM     13  C   UNL     1      46.400   5.873  13.044  0.00  0.00    +0.000 A 
BRANCH   5  15
ATOM     14  C   UNL     1      47.365   4.016  15.802  0.00  0.00    +0.000 C 
ATOM     15  O   UNL     1      47.776   4.588  14.563  0.00  0.00    +0.000 OA
ENDBRANCH   5  15
ENDBRANCH   1  12
BRANCH   3  16
ATOM     16  C   UNL     1      48.916   8.242  16.163  0.00  0.00    +0.000 C 
BRANCH  16  17
ATOM     17  C   UNL     1      49.902   7.179  16.578  0.00  0.00    +0.000 A 
ATOM     18  C   UNL     1      51.218   7.203  16.100  0.00  0.00    +0.000 A 
ATOM     19  C   UNL     1      52.141   6.227  16.500  0.00  0.00    +0.000 A 
ATOM     20  C   UNL     1      51.772   5.206  17.385  0.00  0.00    +0.000 A 
ATOM     21  C   UNL     1      50.440   5.151  17.814  0.00  0.00    +0.000 A 
ATOM     22  C   UNL     1      49.515   6.126  17.415  0.00  0.00    +0.000 A 
BRANCH  20  23
ATOM     23  C   UNL     1      52.708   4.144  17.794  0.00  0.00    +0.000 C 
ATOM     24  C   UNL     1      52.417   2.830  17.807  0.00  0.00    +0.000 C 
BRANCH  24  25
ATOM     25  C   UNL     1      53.313   1.777  18.320  0.00  0.00    +0.000 A 
ATOM     26  C   UNL     1      53.271   0.463  17.834  0.00  0.00    +0.000 A 
ATOM     27  C   UNL     1      54.196  -0.491  18.265  0.00  0.00    +0.000 A 
ATOM     28  C   UNL     1      55.183  -0.143  19.182  0.00  0.00    +0.000 A 
ATOM     29  C   UNL     1      55.243   1.161  19.672  0.00  0.00    +0.000 A 
ATOM     30  C   UNL     1      54.315   2.116  19.241  0.00  0.00    +0.000 A 
ENDBRANCH  24  25
ENDBRANCH  20  23
ENDBRANCH  16  17
ENDBRANCH   3  16
TORSDOF 6
ENDMDL
MODEL 4
REMARK VINA RESULT:    -5.487      5.282     10.097
REMARK INTER + INTRA:          -8.766
REMARK INTER:                  -7.943
REMARK INTRA:                  -0.823
REMARK UNBOUND:                -1.355
REMARK  Name = 
REMARK  7 active torsions:
REMARK  status: ('A' for Active; 'I' for Inactive)
REMARK    1  A    between atoms: C_1  and  O_2
REMARK    2  A    between atoms: O_2  and  C_3
REMARK    3  A    between atoms: C_10  and  C_11
REMARK    4  A    between atoms: N_13  and  C_14
REMARK    5  A    between atoms: C_14  and  C_15
REMARK    6  A    between atoms: C_18  and  C_19
REMARK    7  A    between atoms: C_20  and  C_21
REMARK                            x       y       z     vdW  Elec       q    Type
REMARK                         _______ _______ _______ _____ _____    ______ ____
ROOT
ATOM      1  C   UNL     1      46.229   6.898  11.372  0.00  0.00    +0.000 C 
ATOM      2  O   UNL     1      45.538   7.768  11.904  0.00  0.00    +0.000 OA
ATOM      3  N   UNL     1      47.590   6.997  11.337  0.00  0.00    +0.000 N 
ATOM      4  H   UNL     1      48.141   6.249  10.937  0.00  0.00    +0.000 HD
ENDROOT
BRANCH   1  12
ATOM      5  C   UNL     1      44.441   4.232  12.608  0.00  0.00    +0.000 A 
ATOM      6  N   UNL     1      43.731   3.107  12.821  0.00  0.00    +0.000 NA
ATOM      7  C   UNL     1      43.451   2.334  11.767  0.00  0.00    +0.000 A 
ATOM      8  N   UNL     1      43.800   2.550  10.501  0.00  0.00    +0.000 NA
ATOM      9  C   UNL     1      44.496   3.686  10.333  0.00  0.00    +0.000 A 
ATOM     10  S   UNL     1      45.023   4.125   8.780  0.00  0.00    +0.000 S 
ATOM     11  C   UNL     1      45.755   5.539   9.372  0.00  0.00    +0.000 A 
ATOM     12  C   UNL     1      45.619   5.711  10.746  0.00  0.00    +0.000 A 
ATOM     13  C   UNL     1      44.862   4.599  11.318  0.00  0.00    +0.000 A 
BRANCH   5  15
ATOM     14  C   UNL     1      45.951   4.762  14.318  0.00  0.00    +0.000 C 
ATOM     15  O   UNL     1      44.703   5.045  13.690  0.00  0.00    +0.000 OA
ENDBRANCH   5  15
ENDBRANCH   1  12
BRANCH   3  16
ATOM     16  C   UNL     1      48.306   8.112  11.900  0.00  0.00    +0.000 C 
BRANCH  16  17
ATOM     17  C   UNL     1      49.006   7.726  13.179  0.00  0.00    +0.000 A 
ATOM     18  C   UNL     1      50.349   8.067  13.388  0.00  0.00    +0.000 A 
ATOM     19  C   UNL     1      50.994   7.726  14.584  0.00  0.00    +0.000 A 
ATOM     20  C   UNL     1      50.316   7.038  15.599  0.00  0.00    +0.000 A 
ATOM     21  C   UNL     1      48.992   6.648  15.363  0.00  0.00    +0.000 A 
ATOM     22  C   UNL     1      48.344   6.987  14.167  0.00  0.00    +0.000 A 
BRANCH  20  23
ATOM     23  C   UNL     1      50.978   6.633  16.851  0.00  0.00    +0.000 C 
ATOM     24  C   UNL     1      51.584   5.448  17.048  0.00  0.00    +0.000 C 
BRANCH  24  25
ATOM     25  C   UNL     1      52.149   4.996  18.333  0.00  0.00    +0.000 A 
ATOM     26  C   UNL     1      51.755   5.557  19.556  0.00  0.00    +0.000 A 
ATOM     27  C   UNL     1      52.230   5.044  20.767  0.00  0.00    +0.000 A 
ATOM     28  C   UNL     1      53.098   3.957  20.771  0.00  0.00    +0.000 A 
ATOM     29  C   UNL     1      53.496   3.384  19.565  0.00  0.00    +0.000 A 
ATOM     30  C   UNL     1      53.022   3.899  18.353  0.00  0.00    +0.000 A 
ENDBRANCH  24  25
ENDBRANCH  20  23
ENDBRANCH  16  17
ENDBRANCH   3  16
TORSDOF 6
ENDMDL
MODEL 5
REMARK VINA RESULT:    -5.471      4.459      5.910
REMARK INTER + INTRA:          -8.745
REMARK INTER:                  -7.711
REMARK INTRA:                  -1.033
REMARK UNBOUND:                -1.355
REMARK  Name = 
REMARK  7 active torsions:
REMARK  status: ('A' for Active; 'I' for Inactive)
REMARK    1  A    between atoms: C_1  and  O_2
REMARK    2  A    between atoms: O_2  and  C_3
REMARK    3  A    between atoms: C_10  and  C_11
REMARK    4  A    between atoms: N_13  and  C_14
REMARK    5  A    between atoms: C_14  and  C_15
REMARK    6  A    between atoms: C_18  and  C_19
REMARK    7  A    between atoms: C_20  and  C_21
REMARK                            x       y       z     vdW  Elec       q    Type
REMARK                         _______ _______ _______ _____ _____    ______ ____
ROOT
ATOM      1  C   UNL     1      49.197   9.438  16.837  0.00  0.00    +0.000 C 
ATOM      2  O   UNL     1      50.260   8.945  16.455  0.00  0.00    +0.000 OA
ATOM      3  N   UNL     1      48.443  10.223  16.012  0.00  0.00    +0.000 N 
ATOM      4  H   UNL     1      47.552  10.579  16.329  0.00  0.00    +0.000 HD
ENDROOT
BRANCH   1  12
ATOM      5  C   UNL     1      48.180   6.623  18.531  0.00  0.00    +0.000 A 
ATOM      6  N   UNL     1      47.740   5.701  19.410  0.00  0.00    +0.000 NA
ATOM      7  C   UNL     1      47.370   6.119  20.624  0.00  0.00    +0.000 A 
ATOM      8  N   UNL     1      47.387   7.369  21.080  0.00  0.00    +0.000 NA
ATOM      9  C   UNL     1      47.842   8.253  20.177  0.00  0.00    +0.000 A 
ATOM     10  S   UNL     1      47.935   9.898  20.586  0.00  0.00    +0.000 S 
ATOM     11  C   UNL     1      48.543  10.298  19.051  0.00  0.00    +0.000 A 
ATOM     12  C   UNL     1      48.690   9.207  18.201  0.00  0.00    +0.000 A 
ATOM     13  C   UNL     1      48.270   7.983  18.880  0.00  0.00    +0.000 A 
BRANCH   5  15
ATOM     14  C   UNL     1      47.927   5.003  16.861  0.00  0.00    +0.000 C 
ATOM     15  O   UNL     1      48.590   6.188  17.289  0.00  0.00    +0.000 OA
ENDBRANCH   5  15
ENDBRANCH   1  12
BRANCH   3  16
ATOM     16  C   UNL     1      48.834  10.536  14.662  0.00  0.00    +0.000 C 
BRANCH  16  17
ATOM     17  C   UNL     1      48.331   9.499  13.689  0.00  0.00    +0.000 A 
ATOM     18  C   UNL     1      49.099   9.135  12.575  0.00  0.00    +0.000 A 
ATOM     19  C   UNL     1      48.641   8.157  11.682  0.00  0.00    +0.000 A 
ATOM     20  C   UNL     1      47.409   7.520  11.879  0.00  0.00    +0.000 A 
ATOM     21  C   UNL     1      46.619   7.927  12.961  0.00  0.00    +0.000 A 
ATOM     22  C   UNL     1      47.074   8.906  13.856  0.00  0.00    +0.000 A 
BRANCH  20  23
ATOM     23  C   UNL     1      46.884   6.515  10.938  0.00  0.00    +0.000 C 
ATOM     24  C   UNL     1      45.730   5.844  11.100  0.00  0.00    +0.000 C 
BRANCH  24  25
ATOM     25  C   UNL     1      45.258   4.760  10.218  0.00  0.00    +0.000 A 
ATOM     26  C   UNL     1      45.567   4.726   8.851  0.00  0.00    +0.000 A 
ATOM     27  C   UNL     1      45.193   3.638   8.058  0.00  0.00    +0.000 A 
ATOM     28  C   UNL     1      44.511   2.564   8.622  0.00  0.00    +0.000 A 
ATOM     29  C   UNL     1      44.200   2.579   9.981  0.00  0.00    +0.000 A 
ATOM     30  C   UNL     1      44.573   3.670  10.774  0.00  0.00    +0.000 A 
ENDBRANCH  24  25
ENDBRANCH  20  23
ENDBRANCH  16  17
ENDBRANCH   3  16
TORSDOF 6
ENDMDL
MODEL 6
REMARK VINA RESULT:    -5.406      2.859      4.456
REMARK INTER + INTRA:          -8.657
REMARK INTER:                  -7.404
REMARK INTRA:                  -1.253
REMARK UNBOUND:                -1.355
REMARK  Name = 
REMARK  7 active torsions:
REMARK  status: ('A' for Active; 'I' for Inactive)
REMARK    1  A    between atoms: C_1  and  O_2
REMARK    2  A    between atoms: O_2  and  C_3
REMARK    3  A    between atoms: C_10  and  C_11
REMARK    4  A    between atoms: N_13  and  C_14
REMARK    5  A    between atoms: C_14  and  C_15
REMARK    6  A    between atoms: C_18  and  C_19
REMARK    7  A    between atoms: C_20  and  C_21
REMARK                            x       y       z     vdW  Elec       q    Type
REMARK                         _______ _______ _______ _____ _____    ______ ____
ROOT
ATOM      1  C   UNL     1      48.850   8.762  17.355  0.00  0.00    +0.000 C 
ATOM      2  O   UNL     1      47.779   9.278  17.679  0.00  0.00    +0.000 OA
ATOM      3  N   UNL     1      49.383   8.958  16.113  0.00  0.00    +0.000 N 
ATOM      4  H   UNL     1      50.286   8.565  15.884  0.00  0.00    +0.000 HD
ENDROOT
BRANCH   1  12
ATOM      5  C   UNL     1      49.768   5.448  17.309  0.00  0.00    +0.000 A 
ATOM      6  N   UNL     1      50.251   4.211  17.540  0.00  0.00    +0.000 NA
ATOM      7  C   UNL     1      50.919   4.002  18.678  0.00  0.00    +0.000 A 
ATOM      8  N   UNL     1      51.170   4.892  19.634  0.00  0.00    +0.000 NA
ATOM      9  C   UNL     1      50.681   6.113  19.360  0.00  0.00    +0.000 A 
ATOM     10  S   UNL     1      50.910   7.377  20.469  0.00  0.00    +0.000 S 
ATOM     11  C   UNL     1      50.072   8.470  19.474  0.00  0.00    +0.000 A 
ATOM     12  C   UNL     1      49.604   7.909  18.289  0.00  0.00    +0.000 A 
ATOM     13  C   UNL     1      49.973   6.496  18.224  0.00  0.00    +0.000 A 
BRANCH   5  15
ATOM     14  C   UNL     1      47.939   4.870  15.968  0.00  0.00    +0.000 C 
ATOM     15  O   UNL     1      49.106   5.672  16.122  0.00  0.00    +0.000 OA
ENDBRANCH   5  15
ENDBRANCH   1  12
BRANCH   3  16
ATOM     16  C   UNL     1      48.739   9.759  15.105  0.00  0.00    +0.000 C 
BRANCH  16  17
ATOM     17  C   UNL     1      48.125   8.899  14.028  0.00  0.00    +0.000 A 
ATOM     18  C   UNL     1      46.734   8.794  13.907  0.00  0.00    +0.000 A 
ATOM     19  C   UNL     1      46.163   8.010  12.895  0.00  0.00    +0.000 A 
ATOM     20  C   UNL     1      46.966   7.315  11.982  0.00  0.00    +0.000 A 
ATOM     21  C   UNL     1      48.355   7.375  12.142  0.00  0.00    +0.000 A 
ATOM     22  C   UNL     1      48.929   8.158  13.154  0.00  0.00    +0.000 A 
BRANCH  20  23
ATOM     23  C   UNL     1      46.395   6.453  10.931  0.00  0.00    +0.000 C 
ATOM     24  C   UNL     1      45.758   5.290  11.158  0.00  0.00    +0.000 C 
BRANCH  24  25
ATOM     25  C   UNL     1      45.286   4.373  10.104  0.00  0.00    +0.000 A 
ATOM     26  C   UNL     1      45.533   4.610   8.745  0.00  0.00    +0.000 A 
ATOM     27  C   UNL     1      45.162   3.676   7.774  0.00  0.00    +0.000 A 
ATOM     28  C   UNL     1      44.547   2.486   8.150  0.00  0.00    +0.000 A 
ATOM     29  C   UNL     1      44.298   2.230   9.497  0.00  0.00    +0.000 A 
ATOM     30  C   UNL     1      44.668   3.167  10.469  0.00  0.00    +0.000 A 
ENDBRANCH  24  25
ENDBRANCH  20  23
ENDBRANCH  16  17
ENDBRANCH   3  16
TORSDOF 6
ENDMDL
MODEL 7
REMARK VINA RESULT:    -5.044      5.541      7.043
REMARK INTER + INTRA:          -8.168
REMARK INTER:                  -6.964
REMARK INTRA:                  -1.204
REMARK UNBOUND:                -1.355
REMARK  Name = 
REMARK  7 active torsions:
REMARK  status: ('A' for Active; 'I' for Inactive)
REMARK    1  A    between atoms: C_1  and  O_2
REMARK    2  A    between atoms: O_2  and  C_3
REMARK    3  A    between atoms: C_10  and  C_11
REMARK    4  A    between atoms: N_13  and  C_14
REMARK    5  A    between atoms: C_14  and  C_15
REMARK    6  A    between atoms: C_18  and  C_19
REMARK    7  A    between atoms: C_20  and  C_21
REMARK                            x       y       z     vdW  Elec       q    Type
REMARK                         _______ _______ _______ _____ _____    ______ ____
ROOT
ATOM      1  C   UNL     1      49.039   7.930  16.612  0.00  0.00    +0.000 C 
ATOM      2  O   UNL     1      49.930   8.749  16.845  0.00  0.00    +0.000 OA
ATOM      3  N   UNL     1      48.210   8.073  15.536  0.00  0.00    +0.000 N 
ATOM      4  H   UNL     1      47.517   7.365  15.336  0.00  0.00    +0.000 HD
ENDROOT
BRANCH   1  12
ATOM      5  C   UNL     1      47.880   4.743  16.041  0.00  0.00    +0.000 A 
ATOM      6  N   UNL     1      47.473   3.459  16.096  0.00  0.00    +0.000 NA
ATOM      7  C   UNL     1      47.489   2.847  17.284  0.00  0.00    +0.000 A 
ATOM      8  N   UNL     1      47.869   3.367  18.448  0.00  0.00    +0.000 NA
ATOM      9  C   UNL     1      48.277   4.643  18.346  0.00  0.00    +0.000 A 
ATOM     10  S   UNL     1      48.800   5.469  19.734  0.00  0.00    +0.000 S 
ATOM     11  C   UNL     1      49.108   6.880  18.840  0.00  0.00    +0.000 A 
ATOM     12  C   UNL     1      48.824   6.761  17.483  0.00  0.00    +0.000 A 
ATOM     13  C   UNL     1      48.328   5.418  17.191  0.00  0.00    +0.000 A 
BRANCH   5  15
ATOM     14  C   UNL     1      46.806   4.980  13.975  0.00  0.00    +0.000 C 
ATOM     15  O   UNL     1      47.893   5.365  14.812  0.00  0.00    +0.000 OA
ENDBRANCH   5  15
ENDBRANCH   1  12
BRANCH   3  16
ATOM     16  C   UNL     1      48.308   9.177  14.617  0.00  0.00    +0.000 C 
BRANCH  16  17
ATOM     17  C   UNL     1      49.276   8.878  13.499  0.00  0.00    +0.000 A 
ATOM     18  C   UNL     1      48.954   7.942  12.509  0.00  0.00    +0.000 A 
ATOM     19  C   UNL     1      49.844   7.678  11.459  0.00  0.00    +0.000 A 
ATOM     20  C   UNL     1      51.075   8.342  11.374  0.00  0.00    +0.000 A 
ATOM     21  C   UNL     1      51.418   9.233  12.397  0.00  0.00    +0.000 A 
ATOM     22  C   UNL     1      50.530   9.498  13.449  0.00  0.00    +0.000 A 
BRANCH  20  23
ATOM     23  C   UNL     1      52.048   8.058  10.304  0.00  0.00    +0.000 C 
ATOM     24  C   UNL     1      52.108   6.908   9.609  0.00  0.00    +0.000 C 
BRANCH  24  25
ATOM     25  C   UNL     1      53.149   6.580   8.617  0.00  0.00    +0.000 A 
ATOM     26  C   UNL     1      54.059   5.532   8.813  0.00  0.00    +0.000 A 
ATOM     27  C   UNL     1      54.970   5.177   7.815  0.00  0.00    +0.000 A 
ATOM     28  C   UNL     1      54.978   5.859   6.602  0.00  0.00    +0.000 A 
ATOM     29  C   UNL     1      54.076   6.899   6.387  0.00  0.00    +0.000 A 
ATOM     30  C   UNL     1      53.165   7.256   7.388  0.00  0.00    +0.000 A 
ENDBRANCH  24  25
ENDBRANCH  20  23
ENDBRANCH  16  17
ENDBRANCH   3  16
TORSDOF 6
ENDMDL
MODEL 8
REMARK VINA RESULT:    -4.939      5.792     10.534
REMARK INTER + INTRA:          -8.026
REMARK INTER:                  -7.057
REMARK INTRA:                  -0.969
REMARK UNBOUND:                -1.355
REMARK  Name = 
REMARK  7 active torsions:
REMARK  status: ('A' for Active; 'I' for Inactive)
REMARK    1  A    between atoms: C_1  and  O_2
REMARK    2  A    between atoms: O_2  and  C_3
REMARK    3  A    between atoms: C_10  and  C_11
REMARK    4  A    between atoms: N_13  and  C_14
REMARK    5  A    between atoms: C_14  and  C_15
REMARK    6  A    between atoms: C_18  and  C_19
REMARK    7  A    between atoms: C_20  and  C_21
REMARK                            x       y       z     vdW  Elec       q    Type
REMARK                         _______ _______ _______ _____ _____    ______ ____
ROOT
ATOM      1  C   UNL     1      45.839   6.880  11.666  0.00  0.00    +0.000 C 
ATOM      2  O   UNL     1      45.284   7.980  11.615  0.00  0.00    +0.000 OA
ATOM      3  N   UNL     1      47.201   6.773  11.657  0.00  0.00    +0.000 N 
ATOM      4  H   UNL     1      47.635   5.865  11.748  0.00  0.00    +0.000 HD
ENDROOT
BRANCH   1  12
ATOM      5  C   UNL     1      45.327   4.291   9.461  0.00  0.00    +0.000 A 
ATOM      6  N   UNL     1      44.969   3.168   8.808  0.00  0.00    +0.000 NA
ATOM      7  C   UNL     1      44.151   2.314   9.431  0.00  0.00    +0.000 A 
ATOM      8  N   UNL     1      43.637   2.444  10.651  0.00  0.00    +0.000 NA
ATOM      9  C   UNL     1      44.028   3.570  11.270  0.00  0.00    +0.000 A 
ATOM     10  S   UNL     1      43.470   3.902  12.839  0.00  0.00    +0.000 S 
ATOM     11  C   UNL     1      44.336   5.362  12.893  0.00  0.00    +0.000 A 
ATOM     12  C   UNL     1      45.061   5.631  11.736  0.00  0.00    +0.000 A 
ATOM     13  C   UNL     1      44.875   4.554  10.767  0.00  0.00    +0.000 A 
BRANCH   5  15
ATOM     14  C   UNL     1      46.759   4.619   7.638  0.00  0.00    +0.000 C 
ATOM     15  O   UNL     1      46.194   5.157   8.831  0.00  0.00    +0.000 OA
ENDBRANCH   5  15
ENDBRANCH   1  12
BRANCH   3  16
ATOM     16  C   UNL     1      48.073   7.915  11.578  0.00  0.00    +0.000 C 
BRANCH  16  17
ATOM     17  C   UNL     1      49.114   7.888  12.669  0.00  0.00    +0.000 A 
ATOM     18  C   UNL     1      48.869   7.212  13.871  0.00  0.00    +0.000 A 
ATOM     19  C   UNL     1      49.844   7.170  14.878  0.00  0.00    +0.000 A 
ATOM     20  C   UNL     1      51.083   7.800  14.708  0.00  0.00    +0.000 A 
ATOM     21  C   UNL     1      51.302   8.524  13.530  0.00  0.00    +0.000 A 
ATOM     22  C   UNL     1      50.329   8.569  12.522  0.00  0.00    +0.000 A 
BRANCH  20  23
ATOM     23  C   UNL     1      52.113   7.805  15.763  0.00  0.00    +0.000 C 
ATOM     24  C   UNL     1      52.792   6.720  16.175  0.00  0.00    +0.000 C 
BRANCH  24  25
ATOM     25  C   UNL     1      53.741   6.701  17.304  0.00  0.00    +0.000 A 
ATOM     26  C   UNL     1      53.775   7.723  18.263  0.00  0.00    +0.000 A 
ATOM     27  C   UNL     1      54.614   7.633  19.378  0.00  0.00    +0.000 A 
ATOM     28  C   UNL     1      55.424   6.515  19.553  0.00  0.00    +0.000 A 
ATOM     29  C   UNL     1      55.399   5.487  18.612  0.00  0.00    +0.000 A 
ATOM     30  C   UNL     1      54.560   5.579  17.495  0.00  0.00    +0.000 A 
ENDBRANCH  24  25
ENDBRANCH  20  23
ENDBRANCH  16  17
ENDBRANCH   3  16
TORSDOF 6
ENDMDL
MODEL 9
REMARK VINA RESULT:    -4.844     12.221     15.403
REMARK INTER + INTRA:          -7.897
REMARK INTER:                  -6.479
REMARK INTRA:                  -1.419
REMARK UNBOUND:                -1.355
REMARK  Name = 
REMARK  7 active torsions:
REMARK  status: ('A' for Active; 'I' for Inactive)
REMARK    1  A    between atoms: C_1  and  O_2
REMARK    2  A    between atoms: O_2  and  C_3
REMARK    3  A    between atoms: C_10  and  C_11
REMARK    4  A    between atoms: N_13  and  C_14
REMARK    5  A    between atoms: C_14  and  C_15
REMARK    6  A    between atoms: C_18  and  C_19
REMARK    7  A    between atoms: C_20  and  C_21
REMARK                            x       y       z     vdW  Elec       q    Type
REMARK                         _______ _______ _______ _____ _____    ______ ____
ROOT
ATOM      1  C   UNL     1      37.471  -0.865  11.977  0.00  0.00    +0.000 C 
ATOM      2  O   UNL     1      37.764   0.305  12.233  0.00  0.00    +0.000 OA
ATOM      3  N   UNL     1      37.218  -1.766  12.972  0.00  0.00    +0.000 N 
ATOM      4  H   UNL     1      36.934  -2.708  12.739  0.00  0.00    +0.000 HD
ENDROOT
BRANCH   1  12
ATOM      5  C   UNL     1      39.071  -3.363  10.238  0.00  0.00    +0.000 A 
ATOM      6  N   UNL     1      39.534  -4.257   9.340  0.00  0.00    +0.000 NA
ATOM      7  C   UNL     1      39.042  -4.210   8.099  0.00  0.00    +0.000 A 
ATOM      8  N   UNL     1      38.125  -3.366   7.632  0.00  0.00    +0.000 NA
ATOM      9  C   UNL     1      37.684  -2.501   8.561  0.00  0.00    +0.000 A 
ATOM     10  S   UNL     1      36.510  -1.349   8.143  0.00  0.00    +0.000 S 
ATOM     11  C   UNL     1      36.504  -0.710   9.717  0.00  0.00    +0.000 A 
ATOM     12  C   UNL     1      37.382  -1.347  10.588  0.00  0.00    +0.000 A 
ATOM     13  C   UNL     1      38.087  -2.421   9.891  0.00  0.00    +0.000 A 
BRANCH   5  15
ATOM     14  C   UNL     1      40.714  -2.628  11.734  0.00  0.00    +0.000 C 
ATOM     15  O   UNL     1      39.556  -3.431  11.526  0.00  0.00    +0.000 OA
ENDBRANCH   5  15
ENDBRANCH   1  12
BRANCH   3  16
ATOM     16  C   UNL     1      37.285  -1.425  14.369  0.00  0.00    +0.000 C 
BRANCH  16  17
ATOM     17  C   UNL     1      38.503  -2.027  15.024  0.00  0.00    +0.000 A 
ATOM     18  C   UNL     1      38.772  -3.397  14.906  0.00  0.00    +0.000 A 
ATOM     19  C   UNL     1      39.913  -3.954  15.498  0.00  0.00    +0.000 A 
ATOM     20  C   UNL     1      40.812  -3.158  16.221  0.00  0.00    +0.000 A 
ATOM     21  C   UNL     1      40.509  -1.801  16.386  0.00  0.00    +0.000 A 
ATOM     22  C   UNL     1      39.367  -1.242  15.796  0.00  0.00    +0.000 A 
BRANCH  20  23
ATOM     23  C   UNL     1      42.000  -3.721  16.886  0.00  0.00    +0.000 C 
ATOM     24  C   UNL     1      42.495  -4.951  16.658  0.00  0.00    +0.000 C 
BRANCH  24  25
ATOM     25  C   UNL     1      43.615  -5.557  17.401  0.00  0.00    +0.000 A 
ATOM     26  C   UNL     1      44.166  -6.793  17.038  0.00  0.00    +0.000 A 
ATOM     27  C   UNL     1      45.291  -7.298  17.696  0.00  0.00    +0.000 A 
ATOM     28  C   UNL     1      45.886  -6.570  18.722  0.00  0.00    +0.000 A 
ATOM     29  C   UNL     1      45.354  -5.336  19.093  0.00  0.00    +0.000 A 
ATOM     30  C   UNL     1      44.226  -4.832  18.435  0.00  0.00    +0.000 A 
ENDBRANCH  24  25
ENDBRANCH  20  23
ENDBRANCH  16  17
ENDBRANCH   3  16
TORSDOF 6
ENDMDL
