MODEL 1
REMARK VINA RESULT:    -8.021      0.000      0.000
REMARK INTER + INTRA:         -12.328
REMARK INTER:                 -11.303
REMARK INTRA:                  -1.025
REMARK UNBOUND:                -1.025
REMARK  Name = 
REMARK  7 active torsions:
REMARK  status: ('A' for Active; 'I' for Inactive)
REMARK    1  A    between atoms: C_2  and  C_19
REMARK    2  A    between atoms: N_3  and  C_4
REMARK    3  A    between atoms: C_4  and  C_5
REMARK    4  A    between atoms: C_9  and  C_10
REMARK    5  A    between atoms: C_10  and  N_11
REMARK    6  A    between atoms: N_11  and  C_12
REMARK    7  A    between atoms: C_12  and  C_13
REMARK                            x       y       z     vdW  Elec       q    Type
REMARK                         _______ _______ _______ _____ _____    ______ ____
ROOT
ATOM      1  C   UNL     1      45.964   7.214  12.753  0.00  0.00    +0.000 C 
ENDROOT
BRANCH   1   2
ATOM      2  C   UNL     1      45.040   6.142  12.235  0.00  0.00    +0.000 A 
ATOM      3  C   UNL     1      44.016   5.650  13.053  0.00  0.00    +0.000 A 
ATOM      4  C   UNL     1      43.130   4.689  12.572  0.00  0.00    +0.000 A 
ATOM      5  C   UNL     1      43.262   4.209  11.271  0.00  0.00    +0.000 A 
ATOM      6  C   UNL     1      44.289   4.675  10.434  0.00  0.00    +0.000 A 
ATOM      7  C   UNL     1      45.189   5.627  10.937  0.00  0.00    +0.000 A 
BRANCH   6   8
ATOM      8  C   UNL     1      44.353   4.219   8.992  0.00  0.00    +0.000 C 
BRANCH   8   9
ATOM      9  N   UNL     1      45.417   4.951   8.309  0.00  0.00    +0.000 NA
ATOM     10  H   UNL     1      45.763   5.665   8.949  0.00  0.00    +0.000 HD
BRANCH   9  11
ATOM     11  C   UNL     1      46.516   4.104   7.856  0.00  0.00    +0.000 C 
BRANCH  11  12
ATOM     12  C   UNL     1      45.995   2.921   6.988  0.00  0.00    +0.000 C 
ATOM     13  C   UNL     1      46.665   2.783   5.623  0.00  0.00    +0.000 C 
ATOM     14  C   UNL     1      47.954   2.053   5.939  0.00  0.00    +0.000 C 
ATOM     15  C   UNL     1      47.606   1.183   7.138  0.00  0.00    +0.000 C 
ATOM     16  N   UNL     1      46.278   1.606   7.587  0.00  0.00    +0.000 NA
ATOM     17  H   UNL     1      46.215   1.627   8.602  0.00  0.00    +0.000 HD
ENDBRANCH  11  12
ENDBRANCH   9  11
ENDBRANCH   8   9
ENDBRANCH   6   8
ENDBRANCH   1   2
BRANCH   1  20
ATOM     18  O   UNL     1      48.735   6.715  12.910  0.00  0.00    +0.000 OA
ATOM     19  C   UNL     1      48.046   6.593  13.919  0.00  0.00    +0.000 C 
ATOM     20  N   UNL     1      46.688   6.768  13.912  0.00  0.00    +0.000 N 
ATOM     21  H   UNL     1      46.193   6.839  14.794  0.00  0.00    +0.000 HD
BRANCH  19  22
ATOM     22  C   UNL     1      48.630   6.186  15.203  0.00  0.00    +0.000 A 
ATOM     23  C   UNL     1      49.684   6.914  15.743  0.00  0.00    +0.000 A 
ATOM     24  S   UNL     1      50.246   6.296  17.230  0.00  0.00    +0.000 S 
ATOM     25  C   UNL     1      49.073   5.063  17.223  0.00  0.00    +0.000 A 
ATOM     26  N   UNL     1      48.980   4.181  18.253  0.00  0.00    +0.000 NA
ATOM     27  C   UNL     1      48.016   3.326  18.143  0.00  0.00    +0.000 A 
ATOM     28  N   UNL     1      47.150   3.261  17.082  0.00  0.00    +0.000 N 
ATOM     29  C   UNL     1      47.265   4.074  15.980  0.00  0.00    +0.000 A 
ATOM     30  O   UNL     1      46.573   3.884  14.984  0.00  0.00    +0.000 OA
ATOM     31  C   UNL     1      48.288   5.099  16.086  0.00  0.00    +0.000 A 
ATOM     32  H   UNL     1      46.446   2.540  17.039  0.00  0.00    +0.000 HD
ENDBRANCH  19  22
ENDBRANCH   1  20
TORSDOF 7
ENDMDL
MODEL 2
REMARK VINA RESULT:    -7.991      2.010      2.951
REMARK INTER + INTRA:         -12.286
REMARK INTER:                 -11.562
REMARK INTRA:                  -0.724
REMARK UNBOUND:                -1.025
REMARK  Name = 
REMARK  7 active torsions:
REMARK  status: ('A' for Active; 'I' for Inactive)
REMARK    1  A    between atoms: C_2  and  C_19
REMARK    2  A    between atoms: N_3  and  C_4
REMARK    3  A    between atoms: C_4  and  C_5
REMARK    4  A    between atoms: C_9  and  C_10
REMARK    5  A    between atoms: C_10  and  N_11
REMARK    6  A    between atoms: N_11  and  C_12
REMARK    7  A    between atoms: C_12  and  C_13
REMARK                            x       y       z     vdW  Elec       q    Type
REMARK                         _______ _______ _______ _____ _____    ______ ____
ROOT
ATOM      1  C   UNL     1      46.235   3.957  14.559  0.00  0.00    +0.000 C 
ENDROOT
BRANCH   1   2
ATOM      2  C   UNL     1      46.207   4.797  13.308  0.00  0.00    +0.000 A 
ATOM      3  C   UNL     1      46.893   6.017  13.272  0.00  0.00    +0.000 A 
ATOM      4  C   UNL     1      46.908   6.783  12.109  0.00  0.00    +0.000 A 
ATOM      5  C   UNL     1      46.237   6.338  10.973  0.00  0.00    +0.000 A 
ATOM      6  C   UNL     1      45.529   5.125  10.986  0.00  0.00    +0.000 A 
ATOM      7  C   UNL     1      45.501   4.373  12.170  0.00  0.00    +0.000 A 
BRANCH   6   8
ATOM      8  C   UNL     1      44.893   4.609   9.713  0.00  0.00    +0.000 C 
BRANCH   8   9
ATOM      9  N   UNL     1      45.571   5.208   8.566  0.00  0.00    +0.000 NA
ATOM     10  H   UNL     1      45.968   6.097   8.870  0.00  0.00    +0.000 HD
BRANCH   9  11
ATOM     11  C   UNL     1      46.612   4.361   7.991  0.00  0.00    +0.000 C 
BRANCH  11  12
ATOM     12  C   UNL     1      45.997   3.168   7.202  0.00  0.00    +0.000 C 
ATOM     13  C   UNL     1      46.571   2.962   5.802  0.00  0.00    +0.000 C 
ATOM     14  C   UNL     1      47.854   2.199   6.059  0.00  0.00    +0.000 C 
ATOM     15  C   UNL     1      47.558   1.381   7.309  0.00  0.00    +0.000 C 
ATOM     16  N   UNL     1      46.276   1.865   7.828  0.00  0.00    +0.000 NA
ATOM     17  H   UNL     1      46.281   1.922   8.844  0.00  0.00    +0.000 HD
ENDBRANCH  11  12
ENDBRANCH   9  11
ENDBRANCH   8   9
ENDBRANCH   6   8
ENDBRANCH   1   2
BRANCH   1  20
ATOM     18  O   UNL     1      46.635   3.192  17.242  0.00  0.00    +0.000 OA
ATOM     19  C   UNL     1      47.515   3.819  16.660  0.00  0.00    +0.000 C 
ATOM     20  N   UNL     1      47.376   4.270  15.376  0.00  0.00    +0.000 N 
ATOM     21  H   UNL     1      48.190   4.616  14.881  0.00  0.00    +0.000 HD
BRANCH  19  22
ATOM     22  C   UNL     1      48.769   4.186  17.333  0.00  0.00    +0.000 A 
ATOM     23  C   UNL     1      48.862   5.398  18.005  0.00  0.00    +0.000 A 
ATOM     24  S   UNL     1      50.389   5.665  18.717  0.00  0.00    +0.000 S 
ATOM     25  C   UNL     1      50.961   4.152  18.188  0.00  0.00    +0.000 A 
ATOM     26  N   UNL     1      52.216   3.733  18.497  0.00  0.00    +0.000 NA
ATOM     27  C   UNL     1      52.505   2.547  18.073  0.00  0.00    +0.000 A 
ATOM     28  N   UNL     1      51.658   1.751  17.347  0.00  0.00    +0.000 N 
ATOM     29  C   UNL     1      50.415   2.171  16.937  0.00  0.00    +0.000 A 
ATOM     30  O   UNL     1      49.748   1.494  16.159  0.00  0.00    +0.000 OA
ATOM     31  C   UNL     1      50.014   3.469  17.448  0.00  0.00    +0.000 A 
ATOM     32  H   UNL     1      51.964   0.850  17.010  0.00  0.00    +0.000 HD
ENDBRANCH  19  22
ENDBRANCH   1  20
TORSDOF 7
ENDMDL
MODEL 3
REMARK VINA RESULT:    -7.782      1.689      2.678
REMARK INTER + INTRA:         -11.992
REMARK INTER:                 -11.098
REMARK INTRA:                  -0.893
REMARK UNBOUND:                -1.025
REMARK  Name = 
REMARK  7 active torsions:
REMARK  status: ('A' for Active; 'I' for Inactive)
REMARK    1  A    between atoms: C_2  and  C_19
REMARK    2  A    between atoms: N_3  and  C_4
REMARK    3  A    between atoms: C_4  and  C_5
REMARK    4  A    between atoms: C_9  and  C_10
REMARK    5  A    between atoms: C_10  and  N_11
REMARK    6  A    between atoms: N_11  and  C_12
REMARK    7  A    between atoms: C_12  and  C_13
REMARK                            x       y       z     vdW  Elec       q    Type
REMARK                         _______ _______ _______ _____ _____    ______ ____
ROOT
ATOM      1  C   UNL     1      46.391   3.264  13.432  0.00  0.00    +0.000 C 
ENDROOT
BRANCH   1   2
ATOM      2  C   UNL     1      45.298   3.873  12.592  0.00  0.00    +0.000 A 
ATOM      3  C   UNL     1      44.263   4.587  13.207  0.00  0.00    +0.000 A 
ATOM      4  C   UNL     1      43.268   5.189  12.439  0.00  0.00    +0.000 A 
ATOM      5  C   UNL     1      43.298   5.079  11.051  0.00  0.00    +0.000 A 
ATOM      6  C   UNL     1      44.317   4.357  10.409  0.00  0.00    +0.000 A 
ATOM      7  C   UNL     1      45.301   3.736  11.195  0.00  0.00    +0.000 A 
BRANCH   6   8
ATOM      8  C   UNL     1      44.391   4.336   8.898  0.00  0.00    +0.000 C 
BRANCH   8   9
ATOM      9  N   UNL     1      45.536   5.135   8.467  0.00  0.00    +0.000 NA
ATOM     10  H   UNL     1      45.901   5.621   9.285  0.00  0.00    +0.000 HD
BRANCH   9  11
ATOM     11  C   UNL     1      46.592   4.353   7.831  0.00  0.00    +0.000 C 
BRANCH  11  12
ATOM     12  C   UNL     1      46.006   3.123   7.076  0.00  0.00    +0.000 C 
ATOM     13  C   UNL     1      46.591   2.887   5.686  0.00  0.00    +0.000 C 
ATOM     14  C   UNL     1      47.890   2.161   5.971  0.00  0.00    +0.000 C 
ATOM     15  C   UNL     1      47.605   1.375   7.244  0.00  0.00    +0.000 C 
ATOM     16  N   UNL     1      46.311   1.847   7.742  0.00  0.00    +0.000 NA
ATOM     17  H   UNL     1      46.310   1.935   8.756  0.00  0.00    +0.000 HD
ENDBRANCH  11  12
ENDBRANCH   9  11
ENDBRANCH   8   9
ENDBRANCH   6   8
ENDBRANCH   1   2
BRANCH   1  20
ATOM     18  O   UNL     1      48.183   2.639  15.517  0.00  0.00    +0.000 OA
ATOM     19  C   UNL     1      47.619   3.729  15.518  0.00  0.00    +0.000 C 
ATOM     20  N   UNL     1      46.698   4.086  14.571  0.00  0.00    +0.000 N 
ATOM     21  H   UNL     1      46.401   5.054  14.508  0.00  0.00    +0.000 HD
BRANCH  19  22
ATOM     22  C   UNL     1      47.850   4.712  16.585  0.00  0.00    +0.000 A 
ATOM     23  C   UNL     1      47.451   4.426  17.885  0.00  0.00    +0.000 A 
ATOM     24  S   UNL     1      47.787   5.679  18.991  0.00  0.00    +0.000 S 
ATOM     25  C   UNL     1      48.516   6.627  17.780  0.00  0.00    +0.000 A 
ATOM     26  N   UNL     1      49.057   7.839  18.071  0.00  0.00    +0.000 NA
ATOM     27  C   UNL     1      49.619   8.431  17.069  0.00  0.00    +0.000 A 
ATOM     28  N   UNL     1      49.667   7.929  15.795  0.00  0.00    +0.000 N 
ATOM     29  C   UNL     1      49.054   6.752  15.438  0.00  0.00    +0.000 A 
ATOM     30  O   UNL     1      48.983   6.412  14.260  0.00  0.00    +0.000 OA
ATOM     31  C   UNL     1      48.471   6.012  16.543  0.00  0.00    +0.000 A 
ATOM     32  H   UNL     1      50.084   8.465  15.048  0.00  0.00    +0.000 HD
ENDBRANCH  19  22
ENDBRANCH   1  20
TORSDOF 7
ENDMDL
MODEL 4
REMARK VINA RESULT:    -7.555      2.265      3.613
REMARK INTER + INTRA:         -11.671
REMARK INTER:                 -10.741
REMARK INTRA:                  -0.930
REMARK UNBOUND:                -1.025
REMARK  Name = 
REMARK  7 active torsions:
REMARK  status: ('A' for Active; 'I' for Inactive)
REMARK    1  A    between atoms: C_2  and  C_19
REMARK    2  A    between atoms: N_3  and  C_4
REMARK    3  A    between atoms: C_4  and  C_5
REMARK    4  A    between atoms: C_9  and  C_10
REMARK    5  A    between atoms: C_10  and  N_11
REMARK    6  A    between atoms: N_11  and  C_12
REMARK    7  A    between atoms: C_12  and  C_13
REMARK                            x       y       z     vdW  Elec       q    Type
REMARK                         _______ _______ _______ _____ _____    ______ ____
ROOT
ATOM      1  C   UNL     1      47.036   4.244  14.796  0.00  0.00    +0.000 C 
ENDROOT
BRANCH   1   2
ATOM      2  C   UNL     1      46.991   5.334  13.757  0.00  0.00    +0.000 A 
ATOM      3  C   UNL     1      48.049   6.244  13.655  0.00  0.00    +0.000 A 
ATOM      4  C   UNL     1      48.038   7.232  12.672  0.00  0.00    +0.000 A 
ATOM      5  C   UNL     1      46.968   7.319  11.785  0.00  0.00    +0.000 A 
ATOM      6  C   UNL     1      45.886   6.428  11.874  0.00  0.00    +0.000 A 
ATOM      7  C   UNL     1      45.898   5.452  12.883  0.00  0.00    +0.000 A 
BRANCH   6   8
ATOM      8  C   UNL     1      44.783   6.473  10.839  0.00  0.00    +0.000 C 
BRANCH   8   9
ATOM      9  N   UNL     1      44.628   5.145  10.251  0.00  0.00    +0.000 NA
ATOM     10  H   UNL     1      43.668   5.063   9.919  0.00  0.00    +0.000 HD
BRANCH   9  11
ATOM     11  C   UNL     1      45.563   4.871   9.163  0.00  0.00    +0.000 C 
BRANCH  11  12
ATOM     12  C   UNL     1      44.925   3.935   8.094  0.00  0.00    +0.000 C 
ATOM     13  C   UNL     1      45.921   3.276   7.144  0.00  0.00    +0.000 C 
ATOM     14  C   UNL     1      46.441   2.098   7.942  0.00  0.00    +0.000 C 
ATOM     15  C   UNL     1      45.269   1.702   8.828  0.00  0.00    +0.000 C 
ATOM     16  N   UNL     1      44.265   2.760   8.687  0.00  0.00    +0.000 NA
ATOM     17  H   UNL     1      43.823   2.977   9.577  0.00  0.00    +0.000 HD
ENDBRANCH  11  12
ENDBRANCH   9  11
ENDBRANCH   8   9
ENDBRANCH   6   8
ENDBRANCH   1   2
BRANCH   1  20
ATOM     18  O   UNL     1      46.496   3.302  17.398  0.00  0.00    +0.000 OA
ATOM     19  C   UNL     1      47.357   4.161  17.238  0.00  0.00    +0.000 C 
ATOM     20  N   UNL     1      47.642   4.705  16.015  0.00  0.00    +0.000 N 
ATOM     21  H   UNL     1      48.477   5.269  15.905  0.00  0.00    +0.000 HD
BRANCH  19  22
ATOM     22  C   UNL     1      48.107   4.715  18.373  0.00  0.00    +0.000 A 
ATOM     23  C   UNL     1      47.459   5.520  19.302  0.00  0.00    +0.000 A 
ATOM     24  S   UNL     1      48.482   6.084  20.545  0.00  0.00    +0.000 S 
ATOM     25  C   UNL     1      49.814   5.237  19.908  0.00  0.00    +0.000 A 
ATOM     26  N   UNL     1      51.023   5.268  20.527  0.00  0.00    +0.000 NA
ATOM     27  C   UNL     1      51.934   4.544  19.963  0.00  0.00    +0.000 A 
ATOM     28  N   UNL     1      51.749   3.810  18.821  0.00  0.00    +0.000 N 
ATOM     29  C   UNL     1      50.570   3.823  18.113  0.00  0.00    +0.000 A 
ATOM     30  O   UNL     1      50.490   3.281  17.015  0.00  0.00    +0.000 OA
ATOM     31  C   UNL     1      49.493   4.564  18.744  0.00  0.00    +0.000 A 
ATOM     32  H   UNL     1      52.516   3.301  18.409  0.00  0.00    +0.000 HD
ENDBRANCH  19  22
ENDBRANCH   1  20
TORSDOF 7
ENDMDL
MODEL 5
REMARK VINA RESULT:    -7.363      1.537      2.261
REMARK INTER + INTRA:         -11.401
REMARK INTER:                 -10.295
REMARK INTRA:                  -1.107
REMARK UNBOUND:                -1.025
REMARK  Name = 
REMARK  7 active torsions:
REMARK  status: ('A' for Active; 'I' for Inactive)
REMARK    1  A    between atoms: C_2  and  C_19
REMARK    2  A    between atoms: N_3  and  C_4
REMARK    3  A    between atoms: C_4  and  C_5
REMARK    4  A    between atoms: C_9  and  C_10
REMARK    5  A    between atoms: C_10  and  N_11
REMARK    6  A    between atoms: N_11  and  C_12
REMARK    7  A    between atoms: C_12  and  C_13
REMARK                            x       y       z     vdW  Elec       q    Type
REMARK                         _______ _______ _______ _____ _____    ______ ____
ROOT
ATOM      1  C   UNL     1      48.889   7.796  12.805  0.00  0.00    +0.000 C 
ENDROOT
BRANCH   1   2
ATOM      2  C   UNL     1      47.444   7.695  12.392  0.00  0.00    +0.000 A 
ATOM      3  C   UNL     1      46.664   8.854  12.295  0.00  0.00    +0.000 A 
ATOM      4  C   UNL     1      45.338   8.778  11.875  0.00  0.00    +0.000 A 
ATOM      5  C   UNL     1      44.779   7.544  11.551  0.00  0.00    +0.000 A 
ATOM      6  C   UNL     1      45.535   6.364  11.653  0.00  0.00    +0.000 A 
ATOM      7  C   UNL     1      46.863   6.451  12.099  0.00  0.00    +0.000 A 
BRANCH   6   8
ATOM      8  C   UNL     1      44.943   5.048  11.199  0.00  0.00    +0.000 C 
BRANCH   8   9
ATOM      9  N   UNL     1      44.534   5.168   9.801  0.00  0.00    +0.000 NA
ATOM     10  H   UNL     1      44.286   6.142   9.633  0.00  0.00    +0.000 HD
BRANCH   9  11
ATOM     11  C   UNL     1      45.555   4.736   8.851  0.00  0.00    +0.000 C 
BRANCH  11  12
ATOM     12  C   UNL     1      44.979   3.707   7.833  0.00  0.00    +0.000 C 
ATOM     13  C   UNL     1      46.014   3.068   6.912  0.00  0.00    +0.000 C 
ATOM     14  C   UNL     1      46.611   1.968   7.767  0.00  0.00    +0.000 C 
ATOM     15  C   UNL     1      45.468   1.542   8.677  0.00  0.00    +0.000 C 
ATOM     16  N   UNL     1      44.397   2.523   8.486  0.00  0.00    +0.000 NA
ATOM     17  H   UNL     1      43.942   2.757   9.366  0.00  0.00    +0.000 HD
ENDBRANCH  11  12
ENDBRANCH   9  11
ENDBRANCH   8   9
ENDBRANCH   6   8
ENDBRANCH   1   2
BRANCH   1  20
ATOM     18  O   UNL     1      48.351   8.573  15.461  0.00  0.00    +0.000 OA
ATOM     19  C   UNL     1      48.816   7.458  15.246  0.00  0.00    +0.000 C 
ATOM     20  N   UNL     1      49.151   7.026  13.991  0.00  0.00    +0.000 N 
ATOM     21  H   UNL     1      49.353   6.045  13.842  0.00  0.00    +0.000 HD
BRANCH  19  22
ATOM     22  C   UNL     1      49.104   6.522  16.341  0.00  0.00    +0.000 A 
ATOM     23  C   UNL     1      50.088   6.832  17.272  0.00  0.00    +0.000 A 
ATOM     24  S   UNL     1      50.297   5.631  18.465  0.00  0.00    +0.000 S 
ATOM     25  C   UNL     1      49.052   4.678  17.802  0.00  0.00    +0.000 A 
ATOM     26  N   UNL     1      48.689   3.502  18.379  0.00  0.00    +0.000 NA
ATOM     27  C   UNL     1      47.700   2.904  17.802  0.00  0.00    +0.000 A 
ATOM     28  N   UNL     1      47.055   3.366  16.684  0.00  0.00    +0.000 N 
ATOM     29  C   UNL     1      47.448   4.502  16.017  0.00  0.00    +0.000 A 
ATOM     30  O   UNL     1      46.950   4.800  14.936  0.00  0.00    +0.000 OA
ATOM     31  C   UNL     1      48.509   5.250  16.667  0.00  0.00    +0.000 A 
ATOM     32  H   UNL     1      46.317   2.826  16.258  0.00  0.00    +0.000 HD
ENDBRANCH  19  22
ENDBRANCH   1  20
TORSDOF 7
ENDMDL
MODEL 6
REMARK VINA RESULT:    -7.246      2.020      2.918
REMARK INTER + INTRA:         -11.236
REMARK INTER:                 -10.632
REMARK INTRA:                  -0.604
REMARK UNBOUND:                -1.025
REMARK  Name = 
REMARK  7 active torsions:
REMARK  status: ('A' for Active; 'I' for Inactive)
REMARK    1  A    between atoms: C_2  and  C_19
REMARK    2  A    between atoms: N_3  and  C_4
REMARK    3  A    between atoms: C_4  and  C_5
REMARK    4  A    between atoms: C_9  and  C_10
REMARK    5  A    between atoms: C_10  and  N_11
REMARK    6  A    between atoms: N_11  and  C_12
REMARK    7  A    between atoms: C_12  and  C_13
REMARK                            x       y       z     vdW  Elec       q    Type
REMARK                         _______ _______ _______ _____ _____    ______ ____
ROOT
ATOM      1  C   UNL     1      47.936   6.354  13.453  0.00  0.00    +0.000 C 
ENDROOT
BRANCH   1   2
ATOM      2  C   UNL     1      46.540   6.350  12.887  0.00  0.00    +0.000 A 
ATOM      3  C   UNL     1      46.113   7.409  12.077  0.00  0.00    +0.000 A 
ATOM      4  C   UNL     1      44.839   7.398  11.514  0.00  0.00    +0.000 A 
ATOM      5  C   UNL     1      43.980   6.329  11.759  0.00  0.00    +0.000 A 
ATOM      6  C   UNL     1      44.377   5.260  12.579  0.00  0.00    +0.000 A 
ATOM      7  C   UNL     1      45.655   5.294  13.159  0.00  0.00    +0.000 A 
BRANCH   6   8
ATOM      8  C   UNL     1      43.469   4.061  12.748  0.00  0.00    +0.000 C 
BRANCH   8   9
ATOM      9  N   UNL     1      44.230   2.846  12.469  0.00  0.00    +0.000 NA
ATOM     10  H   UNL     1      43.564   2.082  12.356  0.00  0.00    +0.000 HD
BRANCH   9  11
ATOM     11  C   UNL     1      45.087   2.947  11.291  0.00  0.00    +0.000 C 
BRANCH  11  12
ATOM     12  C   UNL     1      44.265   2.768   9.980  0.00  0.00    +0.000 C 
ATOM     13  C   UNL     1      44.389   3.918   8.984  0.00  0.00    +0.000 C 
ATOM     14  C   UNL     1      45.693   3.625   8.271  0.00  0.00    +0.000 C 
ATOM     15  C   UNL     1      45.792   2.106   8.286  0.00  0.00    +0.000 C 
ATOM     16  N   UNL     1      44.726   1.628   9.170  0.00  0.00    +0.000 NA
ATOM     17  H   UNL     1      45.038   0.850   9.746  0.00  0.00    +0.000 HD
ENDBRANCH  11  12
ENDBRANCH   9  11
ENDBRANCH   8   9
ENDBRANCH   6   8
ENDBRANCH   1   2
BRANCH   1  20
ATOM     18  O   UNL     1      50.153   6.839  15.127  0.00  0.00    +0.000 OA
ATOM     19  C   UNL     1      49.036   6.731  15.627  0.00  0.00    +0.000 C 
ATOM     20  N   UNL     1      47.921   6.445  14.888  0.00  0.00    +0.000 N 
ATOM     21  H   UNL     1      47.005   6.549  15.312  0.00  0.00    +0.000 HD
BRANCH  19  22
ATOM     22  C   UNL     1      48.831   6.841  17.077  0.00  0.00    +0.000 A 
ATOM     23  C   UNL     1      48.537   8.077  17.640  0.00  0.00    +0.000 A 
ATOM     24  S   UNL     1      48.341   8.023  19.333  0.00  0.00    +0.000 S 
ATOM     25  C   UNL     1      48.599   6.341  19.365  0.00  0.00    +0.000 A 
ATOM     26  N   UNL     1      48.534   5.646  20.531  0.00  0.00    +0.000 NA
ATOM     27  C   UNL     1      48.703   4.371  20.405  0.00  0.00    +0.000 A 
ATOM     28  N   UNL     1      48.955   3.731  19.219  0.00  0.00    +0.000 N 
ATOM     29  C   UNL     1      49.119   4.406  18.033  0.00  0.00    +0.000 A 
ATOM     30  O   UNL     1      49.497   3.819  17.023  0.00  0.00    +0.000 OA
ATOM     31  C   UNL     1      48.867   5.834  18.108  0.00  0.00    +0.000 A 
ATOM     32  H   UNL     1      49.121   2.736  19.199  0.00  0.00    +0.000 HD
ENDBRANCH  19  22
ENDBRANCH   1  20
TORSDOF 7
ENDMDL
MODEL 7
REMARK VINA RESULT:    -7.244      3.512      7.921
REMARK INTER + INTRA:         -11.233
REMARK INTER:                  -9.867
REMARK INTRA:                  -1.367
REMARK UNBOUND:                -1.025
REMARK  Name = 
REMARK  7 active torsions:
REMARK  status: ('A' for Active; 'I' for Inactive)
REMARK    1  A    between atoms: C_2  and  C_19
REMARK    2  A    between atoms: N_3  and  C_4
REMARK    3  A    between atoms: C_4  and  C_5
REMARK    4  A    between atoms: C_9  and  C_10
REMARK    5  A    between atoms: C_10  and  N_11
REMARK    6  A    between atoms: N_11  and  C_12
REMARK    7  A    between atoms: C_12  and  C_13
REMARK                            x       y       z     vdW  Elec       q    Type
REMARK                         _______ _______ _______ _____ _____    ______ ____
ROOT
ATOM      1  C   UNL     1      48.835   8.678  15.705  0.00  0.00    +0.000 C 
ENDROOT
BRANCH   1   2
ATOM      2  C   UNL     1      48.398   8.529  17.139  0.00  0.00    +0.000 A 
ATOM      3  C   UNL     1      47.838   9.620  17.814  0.00  0.00    +0.000 A 
ATOM      4  C   UNL     1      47.394   9.484  19.127  0.00  0.00    +0.000 A 
ATOM      5  C   UNL     1      47.509   8.258  19.778  0.00  0.00    +0.000 A 
ATOM      6  C   UNL     1      48.080   7.151  19.129  0.00  0.00    +0.000 A 
ATOM      7  C   UNL     1      48.545   7.306  17.814  0.00  0.00    +0.000 A 
BRANCH   6   8
ATOM      8  C   UNL     1      48.102   5.803  19.816  0.00  0.00    +0.000 C 
BRANCH   8   9
ATOM      9  N   UNL     1      47.596   4.791  18.892  0.00  0.00    +0.000 NA
ATOM     10  H   UNL     1      47.389   5.254  18.008  0.00  0.00    +0.000 HD
BRANCH   9  11
ATOM     11  C   UNL     1      48.517   3.679  18.676  0.00  0.00    +0.000 C 
BRANCH  11  12
ATOM     12  C   UNL     1      49.291   3.841  17.334  0.00  0.00    +0.000 C 
ATOM     13  C   UNL     1      50.748   4.270  17.483  0.00  0.00    +0.000 C 
ATOM     14  C   UNL     1      51.464   2.973  17.801  0.00  0.00    +0.000 C 
ATOM     15  C   UNL     1      50.650   1.911  17.076  0.00  0.00    +0.000 C 
ATOM     16  N   UNL     1      49.433   2.572  16.601  0.00  0.00    +0.000 NA
ATOM     17  H   UNL     1      48.616   1.975  16.709  0.00  0.00    +0.000 HD
ENDBRANCH  11  12
ENDBRANCH   9  11
ENDBRANCH   8   9
ENDBRANCH   6   8
ENDBRANCH   1   2
BRANCH   1  20
ATOM     18  O   UNL     1      49.085   6.482  13.954  0.00  0.00    +0.000 OA
ATOM     19  C   UNL     1      48.017   7.084  14.011  0.00  0.00    +0.000 C 
ATOM     20  N   UNL     1      47.832   8.189  14.797  0.00  0.00    +0.000 N 
ATOM     21  H   UNL     1      46.893   8.536  14.952  0.00  0.00    +0.000 HD
BRANCH  19  22
ATOM     22  C   UNL     1      46.869   6.691  13.184  0.00  0.00    +0.000 A 
ATOM     23  C   UNL     1      46.190   7.651  12.444  0.00  0.00    +0.000 A 
ATOM     24  S   UNL     1      44.881   7.021  11.551  0.00  0.00    +0.000 S 
ATOM     25  C   UNL     1      45.203   5.439  12.089  0.00  0.00    +0.000 A 
ATOM     26  N   UNL     1      44.454   4.389  11.662  0.00  0.00    +0.000 NA
ATOM     27  C   UNL     1      44.836   3.239  12.111  0.00  0.00    +0.000 A 
ATOM     28  N   UNL     1      45.889   3.048  12.967  0.00  0.00    +0.000 N 
ATOM     29  C   UNL     1      46.616   4.089  13.494  0.00  0.00    +0.000 A 
ATOM     30  O   UNL     1      47.447   3.893  14.376  0.00  0.00    +0.000 OA
ATOM     31  C   UNL     1      46.272   5.397  12.965  0.00  0.00    +0.000 A 
ATOM     32  H   UNL     1      46.107   2.125  13.314  0.00  0.00    +0.000 HD
ENDBRANCH  19  22
ENDBRANCH   1  20
TORSDOF 7
ENDMDL
MODEL 8
REMARK VINA RESULT:    -7.047      4.008      8.663
REMARK INTER + INTRA:         -10.957
REMARK INTER:                 -10.042
REMARK INTRA:                  -0.914
REMARK UNBOUND:                -1.025
REMARK  Name = 
REMARK  7 active torsions:
REMARK  status: ('A' for Active; 'I' for Inactive)
REMARK    1  A    between atoms: C_2  and  C_19
REMARK    2  A    between atoms: N_3  and  C_4
REMARK    3  A    between atoms: C_4  and  C_5
REMARK    4  A    between atoms: C_9  and  C_10
REMARK    5  A    between atoms: C_10  and  N_11
REMARK    6  A    between atoms: N_11  and  C_12
REMARK    7  A    between atoms: C_12  and  C_13
REMARK                            x       y       z     vdW  Elec       q    Type
REMARK                         _______ _______ _______ _____ _____    ______ ____
ROOT
ATOM      1  C   UNL     1      48.980   6.773  15.891  0.00  0.00    +0.000 C 
ENDROOT
BRANCH   1   2
ATOM      2  C   UNL     1      49.257   5.503  16.652  0.00  0.00    +0.000 A 
ATOM      3  C   UNL     1      48.271   4.514  16.742  0.00  0.00    +0.000 A 
ATOM      4  C   UNL     1      48.528   3.318  17.408  0.00  0.00    +0.000 A 
ATOM      5  C   UNL     1      49.774   3.102  17.993  0.00  0.00    +0.000 A 
ATOM      6  C   UNL     1      50.778   4.083  17.930  0.00  0.00    +0.000 A 
ATOM      7  C   UNL     1      50.498   5.292  17.276  0.00  0.00    +0.000 A 
BRANCH   6   8
ATOM      8  C   UNL     1      52.156   3.788  18.481  0.00  0.00    +0.000 C 
BRANCH   8   9
ATOM      9  N   UNL     1      52.346   2.340  18.537  0.00  0.00    +0.000 NA
ATOM     10  H   UNL     1      51.476   1.902  18.237  0.00  0.00    +0.000 HD
BRANCH   9  11
ATOM     11  C   UNL     1      53.458   1.862  17.722  0.00  0.00    +0.000 C 
BRANCH  11  12
ATOM     12  C   UNL     1      53.247   0.379  17.293  0.00  0.00    +0.000 C 
ATOM     13  C   UNL     1      54.435  -0.257  16.577  0.00  0.00    +0.000 C 
ATOM     14  C   UNL     1      55.353  -0.661  17.713  0.00  0.00    +0.000 C 
ATOM     15  C   UNL     1      54.406  -0.973  18.863  0.00  0.00    +0.000 C 
ATOM     16  N   UNL     1      53.077  -0.527  18.441  0.00  0.00    +0.000 NA
ATOM     17  H   UNL     1      52.569  -0.086  19.205  0.00  0.00    +0.000 HD
ENDBRANCH  11  12
ENDBRANCH   9  11
ENDBRANCH   8   9
ENDBRANCH   6   8
ENDBRANCH   1   2
BRANCH   1  20
ATOM     18  O   UNL     1      48.992   6.242  13.122  0.00  0.00    +0.000 OA
ATOM     19  C   UNL     1      47.918   6.330  13.711  0.00  0.00    +0.000 C 
ATOM     20  N   UNL     1      47.828   6.636  15.041  0.00  0.00    +0.000 N 
ATOM     21  H   UNL     1      46.942   6.516  15.519  0.00  0.00    +0.000 HD
BRANCH  19  22
ATOM     22  C   UNL     1      46.640   6.172  13.004  0.00  0.00    +0.000 A 
ATOM     23  C   UNL     1      46.003   7.287  12.472  0.00  0.00    +0.000 A 
ATOM     24  S   UNL     1      44.529   6.922  11.697  0.00  0.00    +0.000 S 
ATOM     25  C   UNL     1      44.713   5.259  12.007  0.00  0.00    +0.000 A 
ATOM     26  N   UNL     1      43.793   4.360  11.570  0.00  0.00    +0.000 NA
ATOM     27  C   UNL     1      44.080   3.127  11.833  0.00  0.00    +0.000 A 
ATOM     28  N   UNL     1      45.195   2.715  12.515  0.00  0.00    +0.000 N 
ATOM     29  C   UNL     1      46.103   3.596  13.053  0.00  0.00    +0.000 A 
ATOM     30  O   UNL     1      47.002   3.200  13.789  0.00  0.00    +0.000 OA
ATOM     31  C   UNL     1      45.865   4.990  12.724  0.00  0.00    +0.000 A 
ATOM     32  H   UNL     1      45.335   1.738  12.725  0.00  0.00    +0.000 HD
ENDBRANCH  19  22
ENDBRANCH   1  20
TORSDOF 7
ENDMDL
MODEL 9
REMARK VINA RESULT:    -7.007      2.833      8.045
REMARK INTER + INTRA:         -10.899
REMARK INTER:                  -9.730
REMARK INTRA:                  -1.169
REMARK UNBOUND:                -1.025
REMARK  Name = 
REMARK  7 active torsions:
REMARK  status: ('A' for Active; 'I' for Inactive)
REMARK    1  A    between atoms: C_2  and  C_19
REMARK    2  A    between atoms: N_3  and  C_4
REMARK    3  A    between atoms: C_4  and  C_5
REMARK    4  A    between atoms: C_9  and  C_10
REMARK    5  A    between atoms: C_10  and  N_11
REMARK    6  A    between atoms: N_11  and  C_12
REMARK    7  A    between atoms: C_12  and  C_13
REMARK                            x       y       z     vdW  Elec       q    Type
REMARK                         _______ _______ _______ _____ _____    ______ ____
ROOT
ATOM      1  C   UNL     1      46.367   8.154  12.038  0.00  0.00    +0.000 C 
ENDROOT
BRANCH   1   2
ATOM      2  C   UNL     1      47.785   8.183  12.546  0.00  0.00    +0.000 A 
ATOM      3  C   UNL     1      48.777   8.840  11.809  0.00  0.00    +0.000 A 
ATOM      4  C   UNL     1      50.083   8.908  12.287  0.00  0.00    +0.000 A 
ATOM      5  C   UNL     1      50.410   8.318  13.505  0.00  0.00    +0.000 A 
ATOM      6  C   UNL     1      49.438   7.639  14.259  0.00  0.00    +0.000 A 
ATOM      7  C   UNL     1      48.131   7.557  13.755  0.00  0.00    +0.000 A 
BRANCH   6   8
ATOM      8  C   UNL     1      49.789   7.094  15.626  0.00  0.00    +0.000 C 
BRANCH   8   9
ATOM      9  N   UNL     1      48.564   6.956  16.411  0.00  0.00    +0.000 NA
ATOM     10  H   UNL     1      47.778   6.957  15.762  0.00  0.00    +0.000 HD
BRANCH   9  11
ATOM     11  C   UNL     1      48.530   5.757  17.242  0.00  0.00    +0.000 C 
BRANCH  11  12
ATOM     12  C   UNL     1      47.295   4.870  16.903  0.00  0.00    +0.000 C 
ATOM     13  C   UNL     1      47.508   3.886  15.756  0.00  0.00    +0.000 C 
ATOM     14  C   UNL     1      48.225   2.727  16.417  0.00  0.00    +0.000 C 
ATOM     15  C   UNL     1      47.695   2.727  17.844  0.00  0.00    +0.000 C 
ATOM     16  N   UNL     1      46.926   3.963  18.002  0.00  0.00    +0.000 NA
ATOM     17  H   UNL     1      47.079   4.386  18.915  0.00  0.00    +0.000 HD
ENDBRANCH  11  12
ENDBRANCH   9  11
ENDBRANCH   8   9
ENDBRANCH   6   8
ENDBRANCH   1   2
BRANCH   1  20
ATOM     18  O   UNL     1      43.757   7.352  11.335  0.00  0.00    +0.000 OA
ATOM     19  C   UNL     1      44.642   6.505  11.419  0.00  0.00    +0.000 C 
ATOM     20  N   UNL     1      45.920   6.808  11.804  0.00  0.00    +0.000 N 
ATOM     21  H   UNL     1      46.652   6.117  11.680  0.00  0.00    +0.000 HD
BRANCH  19  22
ATOM     22  C   UNL     1      44.371   5.083  11.169  0.00  0.00    +0.000 A 
ATOM     23  C   UNL     1      43.566   4.370  12.048  0.00  0.00    +0.000 A 
ATOM     24  S   UNL     1      43.366   2.733  11.611  0.00  0.00    +0.000 S 
ATOM     25  C   UNL     1      44.311   2.935  10.210  0.00  0.00    +0.000 A 
ATOM     26  N   UNL     1      44.516   1.903   9.350  0.00  0.00    +0.000 NA
ATOM     27  C   UNL     1      45.212   2.205   8.304  0.00  0.00    +0.000 A 
ATOM     28  N   UNL     1      45.743   3.444   8.053  0.00  0.00    +0.000 N 
ATOM     29  C   UNL     1      45.637   4.490   8.939  0.00  0.00    +0.000 A 
ATOM     30  O   UNL     1      46.256   5.534   8.755  0.00  0.00    +0.000 OA
ATOM     31  C   UNL     1      44.803   4.222  10.097  0.00  0.00    +0.000 A 
ATOM     32  H   UNL     1      46.315   3.600   7.237  0.00  0.00    +0.000 HD
ENDBRANCH  19  22
ENDBRANCH   1  20
TORSDOF 7
ENDMDL
