MODEL 1
REMARK VINA RESULT:    -7.853      0.000      0.000
REMARK INTER + INTRA:         -11.752
REMARK INTER:                 -11.067
REMARK INTRA:                  -0.685
REMARK UNBOUND:                -0.685
REMARK  Name = 
REMARK  8 active torsions:
REMARK  status: ('A' for Active; 'I' for Inactive)
REMARK    1  A    between atoms: C_1  and  C_2
REMARK    2  A    between atoms: C_2  and  N_3
REMARK    3  A    between atoms: N_3  and  C_4
REMARK    4  A    between atoms: C_8  and  C_9
REMARK    5  A    between atoms: C_9  and  C_10
REMARK    6  A    between atoms: C_10  and  N_11
REMARK    7  A    between atoms: N_11  and  C_12
REMARK    8  A    between atoms: C_15  and  C_16
REMARK                            x       y       z     vdW  Elec       q    Type
REMARK                         _______ _______ _______ _____ _____    ______ ____
ROOT
ATOM      1  C   UNL     1      43.300   4.963  12.603  0.00  0.00    +0.000 C 
ENDROOT
BRANCH   1   6
ATOM      2  C   UNL     1      46.861   5.070  14.029  0.00  0.00    +0.000 A 
ATOM      3  C   UNL     1      47.265   6.342  13.622  0.00  0.00    +0.000 A 
ATOM      4  C   UNL     1      46.408   7.156  12.873  0.00  0.00    +0.000 A 
ATOM      5  C   UNL     1      45.127   6.716  12.540  0.00  0.00    +0.000 A 
ATOM      6  C   UNL     1      44.690   5.451  12.946  0.00  0.00    +0.000 A 
ATOM      7  C   UNL     1      45.560   4.649  13.701  0.00  0.00    +0.000 A 
BRANCH   2   8
ATOM      8  N   UNL     1      47.639   4.235  14.851  0.00  0.00    +0.000 N 
ATOM      9  H   UNL     1      48.295   3.671  14.318  0.00  0.00    +0.000 HD
BRANCH   8  11
ATOM     10  C   UNL     1      49.068   5.273  16.565  0.00  0.00    +0.000 C 
ATOM     11  C   UNL     1      47.932   4.315  16.265  0.00  0.00    +0.000 C 
ATOM     12  C   UNL     1      46.693   4.347  17.189  0.00  0.00    +0.000 C 
ATOM     13  O   UNL     1      46.783   2.921  17.442  0.00  0.00    +0.000 OA
ATOM     14  C   UNL     1      48.107   2.890  16.855  0.00  0.00    +0.000 C 
ENDBRANCH   8  11
ENDBRANCH   2   8
ENDBRANCH   1   6
BRANCH   1  15
ATOM     15  C   UNL     1      43.297   4.024  11.392  0.00  0.00    +0.000 C 
BRANCH  15  16
ATOM     16  N   UNL     1      43.882   4.686  10.215  0.00  0.00    +0.000 N 
ATOM     17  H   UNL     1      44.327   5.571  10.451  0.00  0.00    +0.000 HD
BRANCH  16  18
ATOM     18  C   UNL     1      44.699   3.909   9.376  0.00  0.00    +0.000 A 
ATOM     19  C   UNL     1      45.561   4.460   8.423  0.00  0.00    +0.000 A 
ATOM     20  C   UNL     1      46.398   3.649   7.660  0.00  0.00    +0.000 A 
ATOM     21  C   UNL     1      46.378   2.282   7.890  0.00  0.00    +0.000 A 
ATOM     22  N   UNL     1      45.599   1.688   8.832  0.00  0.00    +0.000 NA
ATOM     23  C   UNL     1      44.804   2.521   9.554  0.00  0.00    +0.000 A 
BRANCH  21  24
ATOM     24  C   UNL     1      47.267   1.394   7.076  0.00  0.00    +0.000 C 
ATOM     25  N   UNL     1      48.302   2.019   6.441  0.00  0.00    +0.000 N 
ATOM     26  O   UNL     1      47.088   0.186   6.975  0.00  0.00    +0.000 OA
ATOM     27  H   UNL     1      48.412   3.024   6.539  0.00  0.00    +0.000 HD
ATOM     28  H   UNL     1      48.932   1.481   5.865  0.00  0.00    +0.000 HD
ENDBRANCH  21  24
ENDBRANCH  16  18
ENDBRANCH  15  16
ENDBRANCH   1  15
TORSDOF 7
ENDMDL
MODEL 2
REMARK VINA RESULT:    -7.788      3.503      5.030
REMARK INTER + INTRA:         -11.660
REMARK INTER:                 -10.998
REMARK INTRA:                  -0.661
REMARK UNBOUND:                -0.685
REMARK  Name = 
REMARK  8 active torsions:
REMARK  status: ('A' for Active; 'I' for Inactive)
REMARK    1  A    between atoms: C_1  and  C_2
REMARK    2  A    between atoms: C_2  and  N_3
REMARK    3  A    between atoms: N_3  and  C_4
REMARK    4  A    between atoms: C_8  and  C_9
REMARK    5  A    between atoms: C_9  and  C_10
REMARK    6  A    between atoms: C_10  and  N_11
REMARK    7  A    between atoms: N_11  and  C_12
REMARK    8  A    between atoms: C_15  and  C_16
REMARK                            x       y       z     vdW  Elec       q    Type
REMARK                         _______ _______ _______ _____ _____    ______ ____
ROOT
ATOM      1  C   UNL     1      45.413   4.906  11.818  0.00  0.00    +0.000 C 
ENDROOT
BRANCH   1   6
ATOM      2  C   UNL     1      45.385   8.677  12.530  0.00  0.00    +0.000 A 
ATOM      3  C   UNL     1      46.744   8.912  12.733  0.00  0.00    +0.000 A 
ATOM      4  C   UNL     1      47.667   7.863  12.665  0.00  0.00    +0.000 A 
ATOM      5  C   UNL     1      47.244   6.567  12.370  0.00  0.00    +0.000 A 
ATOM      6  C   UNL     1      45.888   6.303  12.149  0.00  0.00    +0.000 A 
ATOM      7  C   UNL     1      44.976   7.369  12.216  0.00  0.00    +0.000 A 
BRANCH   2   8
ATOM      8  N   UNL     1      44.416   9.696  12.504  0.00  0.00    +0.000 N 
ATOM      9  H   UNL     1      44.221  10.069  13.429  0.00  0.00    +0.000 HD
BRANCH   8  11
ATOM     10  C   UNL     1      45.023  11.514  10.960  0.00  0.00    +0.000 C 
ATOM     11  C   UNL     1      43.961  10.534  11.416  0.00  0.00    +0.000 C 
ATOM     12  C   UNL     1      43.133   9.806  10.333  0.00  0.00    +0.000 C 
ATOM     13  O   UNL     1      41.882  10.230  10.933  0.00  0.00    +0.000 OA
ATOM     14  C   UNL     1      42.592  11.174  11.772  0.00  0.00    +0.000 C 
ENDBRANCH   8  11
ENDBRANCH   2   8
ENDBRANCH   1   6
BRANCH   1  15
ATOM     15  C   UNL     1      43.943   4.880  11.386  0.00  0.00    +0.000 C 
BRANCH  15  16
ATOM     16  N   UNL     1      43.829   4.873   9.919  0.00  0.00    +0.000 N 
ATOM     17  H   UNL     1      43.896   5.809   9.521  0.00  0.00    +0.000 HD
BRANCH  16  18
ATOM     18  C   UNL     1      44.626   3.957   9.213  0.00  0.00    +0.000 A 
ATOM     19  C   UNL     1      45.627   4.345   8.316  0.00  0.00    +0.000 A 
ATOM     20  C   UNL     1      46.433   3.398   7.689  0.00  0.00    +0.000 A 
ATOM     21  C   UNL     1      46.241   2.061   8.000  0.00  0.00    +0.000 A 
ATOM     22  N   UNL     1      45.319   1.621   8.896  0.00  0.00    +0.000 NA
ATOM     23  C   UNL     1      44.560   2.582   9.485  0.00  0.00    +0.000 A 
BRANCH  21  24
ATOM     24  C   UNL     1      47.095   1.029   7.332  0.00  0.00    +0.000 C 
ATOM     25  N   UNL     1      46.808  -0.269   7.650  0.00  0.00    +0.000 N 
ATOM     26  O   UNL     1      47.996   1.314   6.552  0.00  0.00    +0.000 OA
ATOM     27  H   UNL     1      46.061  -0.466   8.309  0.00  0.00    +0.000 HD
ATOM     28  H   UNL     1      47.354  -1.014   7.245  0.00  0.00    +0.000 HD
ENDBRANCH  21  24
ENDBRANCH  16  18
ENDBRANCH  15  16
ENDBRANCH   1  15
TORSDOF 7
ENDMDL
MODEL 3
REMARK VINA RESULT:    -7.405      1.640      2.214
REMARK INTER + INTRA:         -11.120
REMARK INTER:                 -10.667
REMARK INTRA:                  -0.453
REMARK UNBOUND:                -0.685
REMARK  Name = 
REMARK  8 active torsions:
REMARK  status: ('A' for Active; 'I' for Inactive)
REMARK    1  A    between atoms: C_1  and  C_2
REMARK    2  A    between atoms: C_2  and  N_3
REMARK    3  A    between atoms: N_3  and  C_4
REMARK    4  A    between atoms: C_8  and  C_9
REMARK    5  A    between atoms: C_9  and  C_10
REMARK    6  A    between atoms: C_10  and  N_11
REMARK    7  A    between atoms: N_11  and  C_12
REMARK    8  A    between atoms: C_15  and  C_16
REMARK                            x       y       z     vdW  Elec       q    Type
REMARK                         _______ _______ _______ _____ _____    ______ ____
ROOT
ATOM      1  C   UNL     1      45.243   4.325  12.179  0.00  0.00    +0.000 C 
ENDROOT
BRANCH   1   6
ATOM      2  C   UNL     1      47.578   7.021  13.595  0.00  0.00    +0.000 A 
ATOM      3  C   UNL     1      46.840   8.172  13.320  0.00  0.00    +0.000 A 
ATOM      4  C   UNL     1      45.609   8.090  12.661  0.00  0.00    +0.000 A 
ATOM      5  C   UNL     1      45.087   6.850  12.290  0.00  0.00    +0.000 A 
ATOM      6  C   UNL     1      45.798   5.678  12.565  0.00  0.00    +0.000 A 
ATOM      7  C   UNL     1      47.030   5.778  13.231  0.00  0.00    +0.000 A 
BRANCH   2   8
ATOM      8  N   UNL     1      48.780   7.025  14.324  0.00  0.00    +0.000 N 
ATOM      9  H   UNL     1      49.580   7.281  13.750  0.00  0.00    +0.000 HD
BRANCH   8  11
ATOM     10  C   UNL     1      48.602   8.451  16.322  0.00  0.00    +0.000 C 
ATOM     11  C   UNL     1      49.018   7.111  15.748  0.00  0.00    +0.000 C 
ATOM     12  C   UNL     1      48.661   5.838  16.548  0.00  0.00    +0.000 C 
ATOM     13  O   UNL     1      50.040   5.384  16.536  0.00  0.00    +0.000 OA
ATOM     14  C   UNL     1      50.475   6.686  16.073  0.00  0.00    +0.000 C 
ENDBRANCH   8  11
ENDBRANCH   2   8
ENDBRANCH   1   6
BRANCH   1  15
ATOM     15  C   UNL     1      43.814   4.418  11.632  0.00  0.00    +0.000 C 
BRANCH  15  16
ATOM     16  N   UNL     1      43.825   4.657  10.180  0.00  0.00    +0.000 N 
ATOM     17  H   UNL     1      43.864   5.649   9.951  0.00  0.00    +0.000 HD
BRANCH  16  18
ATOM     18  C   UNL     1      44.738   3.918   9.409  0.00  0.00    +0.000 A 
ATOM     19  C   UNL     1      44.781   2.520   9.407  0.00  0.00    +0.000 A 
ATOM     20  C   UNL     1      45.662   1.832   8.577  0.00  0.00    +0.000 A 
ATOM     21  C   UNL     1      46.475   2.567   7.728  0.00  0.00    +0.000 A 
ATOM     22  N   UNL     1      46.450   3.923   7.647  0.00  0.00    +0.000 NA
ATOM     23  C   UNL     1      45.570   4.548   8.473  0.00  0.00    +0.000 A 
BRANCH  21  24
ATOM     24  C   UNL     1      47.433   1.845   6.832  0.00  0.00    +0.000 C 
ATOM     25  N   UNL     1      48.533   2.559   6.447  0.00  0.00    +0.000 N 
ATOM     26  O   UNL     1      47.254   0.691   6.459  0.00  0.00    +0.000 OA
ATOM     27  H   UNL     1      48.641   3.516   6.767  0.00  0.00    +0.000 HD
ATOM     28  H   UNL     1      49.212   2.136   5.832  0.00  0.00    +0.000 HD
ENDBRANCH  21  24
ENDBRANCH  16  18
ENDBRANCH  15  16
ENDBRANCH   1  15
TORSDOF 7
ENDMDL
MODEL 4
REMARK VINA RESULT:    -7.249      2.722      3.213
REMARK INTER + INTRA:         -10.899
REMARK INTER:                 -10.347
REMARK INTRA:                  -0.552
REMARK UNBOUND:                -0.685
REMARK  Name = 
REMARK  8 active torsions:
REMARK  status: ('A' for Active; 'I' for Inactive)
REMARK    1  A    between atoms: C_1  and  C_2
REMARK    2  A    between atoms: C_2  and  N_3
REMARK    3  A    between atoms: N_3  and  C_4
REMARK    4  A    between atoms: C_8  and  C_9
REMARK    5  A    between atoms: C_9  and  C_10
REMARK    6  A    between atoms: C_10  and  N_11
REMARK    7  A    between atoms: N_11  and  C_12
REMARK    8  A    between atoms: C_15  and  C_16
REMARK                            x       y       z     vdW  Elec       q    Type
REMARK                         _______ _______ _______ _____ _____    ______ ____
ROOT
ATOM      1  C   UNL     1      45.050   4.716  11.899  0.00  0.00    +0.000 C 
ENDROOT
BRANCH   1   6
ATOM      2  C   UNL     1      46.952   7.637  13.505  0.00  0.00    +0.000 A 
ATOM      3  C   UNL     1      46.250   8.722  12.981  0.00  0.00    +0.000 A 
ATOM      4  C   UNL     1      45.185   8.522  12.096  0.00  0.00    +0.000 A 
ATOM      5  C   UNL     1      44.793   7.230  11.742  0.00  0.00    +0.000 A 
ATOM      6  C   UNL     1      45.469   6.123  12.263  0.00  0.00    +0.000 A 
ATOM      7  C   UNL     1      46.533   6.342  13.153  0.00  0.00    +0.000 A 
BRANCH   2   8
ATOM      8  N   UNL     1      47.977   7.763  14.459  0.00  0.00    +0.000 N 
ATOM      9  H   UNL     1      47.709   7.391  15.367  0.00  0.00    +0.000 HD
BRANCH   8  11
ATOM     10  C   UNL     1      50.207   7.288  15.386  0.00  0.00    +0.000 C 
ATOM     11  C   UNL     1      49.400   7.958  14.291  0.00  0.00    +0.000 C 
ATOM     12  C   UNL     1      49.910   7.836  12.837  0.00  0.00    +0.000 C 
ATOM     13  O   UNL     1      49.882   9.275  12.654  0.00  0.00    +0.000 OA
ATOM     14  C   UNL     1      49.712   9.464  14.080  0.00  0.00    +0.000 C 
ENDBRANCH   8  11
ENDBRANCH   2   8
ENDBRANCH   1   6
BRANCH   1  15
ATOM     15  C   UNL     1      43.651   4.670  11.276  0.00  0.00    +0.000 C 
BRANCH  15  16
ATOM     16  N   UNL     1      43.727   4.779   9.810  0.00  0.00    +0.000 N 
ATOM     17  H   UNL     1      43.895   5.736   9.503  0.00  0.00    +0.000 HD
BRANCH  16  18
ATOM     18  C   UNL     1      44.558   3.870   9.136  0.00  0.00    +0.000 A 
ATOM     19  C   UNL     1      45.550   4.264   8.232  0.00  0.00    +0.000 A 
ATOM     20  C   UNL     1      46.391   3.326   7.638  0.00  0.00    +0.000 A 
ATOM     21  C   UNL     1      46.242   1.993   7.990  0.00  0.00    +0.000 A 
ATOM     22  N   UNL     1      45.331   1.550   8.895  0.00  0.00    +0.000 NA
ATOM     23  C   UNL     1      44.537   2.502   9.451  0.00  0.00    +0.000 A 
BRANCH  21  24
ATOM     24  C   UNL     1      47.134   0.970   7.357  0.00  0.00    +0.000 C 
ATOM     25  N   UNL     1      46.831  -0.332   7.640  0.00  0.00    +0.000 N 
ATOM     26  O   UNL     1      48.078   1.267   6.634  0.00  0.00    +0.000 OA
ATOM     27  H   UNL     1      46.047  -0.538   8.253  0.00  0.00    +0.000 HD
ATOM     28  H   UNL     1      47.400  -1.071   7.256  0.00  0.00    +0.000 HD
ENDBRANCH  21  24
ENDBRANCH  16  18
ENDBRANCH  15  16
ENDBRANCH   1  15
TORSDOF 7
ENDMDL
MODEL 5
REMARK VINA RESULT:    -7.118      2.340      3.193
REMARK INTER + INTRA:         -10.716
REMARK INTER:                 -10.035
REMARK INTRA:                  -0.681
REMARK UNBOUND:                -0.685
REMARK  Name = 
REMARK  8 active torsions:
REMARK  status: ('A' for Active; 'I' for Inactive)
REMARK    1  A    between atoms: C_1  and  C_2
REMARK    2  A    between atoms: C_2  and  N_3
REMARK    3  A    between atoms: N_3  and  C_4
REMARK    4  A    between atoms: C_8  and  C_9
REMARK    5  A    between atoms: C_9  and  C_10
REMARK    6  A    between atoms: C_10  and  N_11
REMARK    7  A    between atoms: N_11  and  C_12
REMARK    8  A    between atoms: C_15  and  C_16
REMARK                            x       y       z     vdW  Elec       q    Type
REMARK                         _______ _______ _______ _____ _____    ______ ____
ROOT
ATOM      1  C   UNL     1      45.495   5.954  11.107  0.00  0.00    +0.000 C 
ENDROOT
BRANCH   1   6
ATOM      2  C   UNL     1      47.466   5.888  14.399  0.00  0.00    +0.000 A 
ATOM      3  C   UNL     1      47.402   4.530  14.712  0.00  0.00    +0.000 A 
ATOM      4  C   UNL     1      46.710   3.640  13.884  0.00  0.00    +0.000 A 
ATOM      5  C   UNL     1      46.091   4.094  12.719  0.00  0.00    +0.000 A 
ATOM      6  C   UNL     1      46.151   5.447  12.373  0.00  0.00    +0.000 A 
ATOM      7  C   UNL     1      46.854   6.326  13.212  0.00  0.00    +0.000 A 
BRANCH   2   8
ATOM      8  N   UNL     1      48.212   6.821  15.142  0.00  0.00    +0.000 N 
ATOM      9  H   UNL     1      47.928   6.854  16.118  0.00  0.00    +0.000 HD
BRANCH   8  11
ATOM     10  C   UNL     1      50.575   6.927  15.820  0.00  0.00    +0.000 C 
ATOM     11  C   UNL     1      49.499   7.424  14.875  0.00  0.00    +0.000 C 
ATOM     12  C   UNL     1      49.858   7.564  13.378  0.00  0.00    +0.000 C 
ATOM     13  O   UNL     1      49.416   8.945  13.350  0.00  0.00    +0.000 OA
ATOM     14  C   UNL     1      49.360   8.967  14.798  0.00  0.00    +0.000 C 
ENDBRANCH   8  11
ENDBRANCH   2   8
ENDBRANCH   1   6
BRANCH   1  15
ATOM     15  C   UNL     1      44.024   5.536  11.008  0.00  0.00    +0.000 C 
BRANCH  15  16
ATOM     16  N   UNL     1      43.725   4.991   9.674  0.00  0.00    +0.000 N 
ATOM     17  H   UNL     1      43.574   5.724   8.982  0.00  0.00    +0.000 HD
BRANCH  16  18
ATOM     18  C   UNL     1      44.574   3.987   9.180  0.00  0.00    +0.000 A 
ATOM     19  C   UNL     1      44.480   2.646   9.568  0.00  0.00    +0.000 A 
ATOM     20  C   UNL     1      45.303   1.677   9.001  0.00  0.00    +0.000 A 
ATOM     21  C   UNL     1      46.199   2.068   8.018  0.00  0.00    +0.000 A 
ATOM     22  N   UNL     1      46.308   3.344   7.563  0.00  0.00    +0.000 NA
ATOM     23  C   UNL     1      45.480   4.252   8.143  0.00  0.00    +0.000 A 
BRANCH  21  24
ATOM     24  C   UNL     1      47.097   1.041   7.401  0.00  0.00    +0.000 C 
ATOM     25  N   UNL     1      46.742  -0.260   7.621  0.00  0.00    +0.000 N 
ATOM     26  O   UNL     1      48.088   1.333   6.742  0.00  0.00    +0.000 OA
ATOM     27  H   UNL     1      45.919  -0.463   8.181  0.00  0.00    +0.000 HD
ATOM     28  H   UNL     1      47.310  -1.003   7.243  0.00  0.00    +0.000 HD
ENDBRANCH  21  24
ENDBRANCH  16  18
ENDBRANCH  15  16
ENDBRANCH   1  15
TORSDOF 7
ENDMDL
MODEL 6
REMARK VINA RESULT:    -6.675      3.482      4.463
REMARK INTER + INTRA:         -10.091
REMARK INTER:                  -9.341
REMARK INTRA:                  -0.750
REMARK UNBOUND:                -0.685
REMARK  Name = 
REMARK  8 active torsions:
REMARK  status: ('A' for Active; 'I' for Inactive)
REMARK    1  A    between atoms: C_1  and  C_2
REMARK    2  A    between atoms: C_2  and  N_3
REMARK    3  A    between atoms: N_3  and  C_4
REMARK    4  A    between atoms: C_8  and  C_9
REMARK    5  A    between atoms: C_9  and  C_10
REMARK    6  A    between atoms: C_10  and  N_11
REMARK    7  A    between atoms: N_11  and  C_12
REMARK    8  A    between atoms: C_15  and  C_16
REMARK                            x       y       z     vdW  Elec       q    Type
REMARK                         _______ _______ _______ _____ _____    ______ ____
ROOT
ATOM      1  C   UNL     1      45.324   7.140  11.285  0.00  0.00    +0.000 C 
ENDROOT
BRANCH   1   6
ATOM      2  C   UNL     1      48.932   7.727  12.455  0.00  0.00    +0.000 A 
ATOM      3  C   UNL     1      48.709   8.438  13.634  0.00  0.00    +0.000 A 
ATOM      4  C   UNL     1      47.408   8.751  14.043  0.00  0.00    +0.000 A 
ATOM      5  C   UNL     1      46.311   8.334  13.288  0.00  0.00    +0.000 A 
ATOM      6  C   UNL     1      46.503   7.608  12.109  0.00  0.00    +0.000 A 
ATOM      7  C   UNL     1      47.815   7.299  11.716  0.00  0.00    +0.000 A 
BRANCH   2   8
ATOM      8  N   UNL     1      50.205   7.310  12.029  0.00  0.00    +0.000 N 
ATOM      9  H   UNL     1      50.287   6.297  11.985  0.00  0.00    +0.000 HD
BRANCH   8  11
ATOM     10  C   UNL     1      51.793   7.215  10.151  0.00  0.00    +0.000 C 
ATOM     11  C   UNL     1      51.236   8.022  11.307  0.00  0.00    +0.000 C 
ATOM     12  C   UNL     1      50.952   9.523  11.072  0.00  0.00    +0.000 C 
ATOM     13  O   UNL     1      51.754   9.905  12.219  0.00  0.00    +0.000 OA
ATOM     14  C   UNL     1      52.302   8.566  12.295  0.00  0.00    +0.000 C 
ENDBRANCH   8  11
ENDBRANCH   2   8
ENDBRANCH   1   6
BRANCH   1  15
ATOM     15  C   UNL     1      45.100   5.628  11.399  0.00  0.00    +0.000 C 
BRANCH  15  16
ATOM     16  N   UNL     1      44.424   5.108  10.199  0.00  0.00    +0.000 N 
ATOM     17  H   UNL     1      43.938   5.839   9.682  0.00  0.00    +0.000 HD
BRANCH  16  18
ATOM     18  C   UNL     1      45.172   4.284   9.342  0.00  0.00    +0.000 A 
ATOM     19  C   UNL     1      45.039   2.892   9.309  0.00  0.00    +0.000 A 
ATOM     20  C   UNL     1      45.757   2.125   8.395  0.00  0.00    +0.000 A 
ATOM     21  C   UNL     1      46.585   2.778   7.496  0.00  0.00    +0.000 A 
ATOM     22  N   UNL     1      46.724   4.129   7.443  0.00  0.00    +0.000 NA
ATOM     23  C   UNL     1      45.999   4.834   8.351  0.00  0.00    +0.000 A 
BRANCH  21  24
ATOM     24  C   UNL     1      47.369   1.969   6.509  0.00  0.00    +0.000 C 
ATOM     25  N   UNL     1      48.100   2.689   5.605  0.00  0.00    +0.000 N 
ATOM     26  O   UNL     1      47.364   0.744   6.500  0.00  0.00    +0.000 OA
ATOM     27  H   UNL     1      48.070   3.704   5.637  0.00  0.00    +0.000 HD
ATOM     28  H   UNL     1      48.641   2.206   4.905  0.00  0.00    +0.000 HD
ENDBRANCH  21  24
ENDBRANCH  16  18
ENDBRANCH  15  16
ENDBRANCH   1  15
TORSDOF 7
ENDMDL
MODEL 7
REMARK VINA RESULT:    -6.481      3.034      7.318
REMARK INTER + INTRA:          -9.818
REMARK INTER:                  -8.665
REMARK INTRA:                  -1.154
REMARK UNBOUND:                -0.685
REMARK  Name = 
REMARK  8 active torsions:
REMARK  status: ('A' for Active; 'I' for Inactive)
REMARK    1  A    between atoms: C_1  and  C_2
REMARK    2  A    between atoms: C_2  and  N_3
REMARK    3  A    between atoms: N_3  and  C_4
REMARK    4  A    between atoms: C_8  and  C_9
REMARK    5  A    between atoms: C_9  and  C_10
REMARK    6  A    between atoms: C_10  and  N_11
REMARK    7  A    between atoms: N_11  and  C_12
REMARK    8  A    between atoms: C_15  and  C_16
REMARK                            x       y       z     vdW  Elec       q    Type
REMARK                         _______ _______ _______ _____ _____    ______ ____
ROOT
ATOM      1  C   UNL     1      49.183   8.540  12.210  0.00  0.00    +0.000 C 
ENDROOT
BRANCH   1   6
ATOM      2  C   UNL     1      45.751   6.936  11.601  0.00  0.00    +0.000 A 
ATOM      3  C   UNL     1      44.908   8.007  11.899  0.00  0.00    +0.000 A 
ATOM      4  C   UNL     1      45.435   9.234  12.317  0.00  0.00    +0.000 A 
ATOM      5  C   UNL     1      46.815   9.412  12.420  0.00  0.00    +0.000 A 
ATOM      6  C   UNL     1      47.685   8.360  12.114  0.00  0.00    +0.000 A 
ATOM      7  C   UNL     1      47.139   7.138  11.692  0.00  0.00    +0.000 A 
BRANCH   2   8
ATOM      8  N   UNL     1      45.293   5.705  11.099  0.00  0.00    +0.000 N 
ATOM      9  H   UNL     1      45.856   5.371  10.321  0.00  0.00    +0.000 HD
BRANCH   8  11
ATOM     10  C   UNL     1      42.981   4.930  11.437  0.00  0.00    +0.000 C 
ATOM     11  C   UNL     1      44.455   4.694  11.705  0.00  0.00    +0.000 C 
ATOM     12  C   UNL     1      44.989   3.248  11.593  0.00  0.00    +0.000 C 
ATOM     13  O   UNL     1      45.562   3.304  12.924  0.00  0.00    +0.000 OA
ATOM     14  C   UNL     1      44.825   4.520  13.202  0.00  0.00    +0.000 C 
ENDBRANCH   8  11
ENDBRANCH   2   8
ENDBRANCH   1   6
BRANCH   1  15
ATOM     15  C   UNL     1      49.818   7.587  13.228  0.00  0.00    +0.000 C 
BRANCH  15  16
ATOM     16  N   UNL     1      49.336   7.879  14.588  0.00  0.00    +0.000 N 
ATOM     17  H   UNL     1      48.616   8.599  14.597  0.00  0.00    +0.000 HD
BRANCH  16  18
ATOM     18  C   UNL     1      48.978   6.786  15.395  0.00  0.00    +0.000 A 
ATOM     19  C   UNL     1      49.334   6.680  16.744  0.00  0.00    +0.000 A 
ATOM     20  C   UNL     1      48.899   5.607  17.517  0.00  0.00    +0.000 A 
ATOM     21  C   UNL     1      48.077   4.660  16.926  0.00  0.00    +0.000 A 
ATOM     22  N   UNL     1      47.656   4.728  15.636  0.00  0.00    +0.000 NA
ATOM     23  C   UNL     1      48.102   5.796  14.924  0.00  0.00    +0.000 A 
BRANCH  21  24
ATOM     24  C   UNL     1      47.604   3.497  17.741  0.00  0.00    +0.000 C 
ATOM     25  N   UNL     1      48.382   3.176  18.818  0.00  0.00    +0.000 N 
ATOM     26  O   UNL     1      46.590   2.864  17.472  0.00  0.00    +0.000 OA
ATOM     27  H   UNL     1      49.222   3.717  19.003  0.00  0.00    +0.000 HD
ATOM     28  H   UNL     1      48.128   2.394  19.403  0.00  0.00    +0.000 HD
ENDBRANCH  21  24
ENDBRANCH  16  18
ENDBRANCH  15  16
ENDBRANCH   1  15
TORSDOF 7
ENDMDL
MODEL 8
REMARK VINA RESULT:    -6.437      3.403      8.127
REMARK INTER + INTRA:          -9.756
REMARK INTER:                  -9.116
REMARK INTRA:                  -0.640
REMARK UNBOUND:                -0.685
REMARK  Name = 
REMARK  8 active torsions:
REMARK  status: ('A' for Active; 'I' for Inactive)
REMARK    1  A    between atoms: C_1  and  C_2
REMARK    2  A    between atoms: C_2  and  N_3
REMARK    3  A    between atoms: N_3  and  C_4
REMARK    4  A    between atoms: C_8  and  C_9
REMARK    5  A    between atoms: C_9  and  C_10
REMARK    6  A    between atoms: C_10  and  N_11
REMARK    7  A    between atoms: N_11  and  C_12
REMARK    8  A    between atoms: C_15  and  C_16
REMARK                            x       y       z     vdW  Elec       q    Type
REMARK                         _______ _______ _______ _____ _____    ______ ____
ROOT
ATOM      1  C   UNL     1      48.657   6.257  15.566  0.00  0.00    +0.000 C 
ENDROOT
BRANCH   1   6
ATOM      2  C   UNL     1      46.211   5.282  12.775  0.00  0.00    +0.000 A 
ATOM      3  C   UNL     1      46.519   6.244  11.813  0.00  0.00    +0.000 A 
ATOM      4  C   UNL     1      47.491   7.218  12.065  0.00  0.00    +0.000 A 
ATOM      5  C   UNL     1      48.185   7.228  13.275  0.00  0.00    +0.000 A 
ATOM      6  C   UNL     1      47.907   6.268  14.253  0.00  0.00    +0.000 A 
ATOM      7  C   UNL     1      46.932   5.294  13.982  0.00  0.00    +0.000 A 
BRANCH   2   8
ATOM      8  N   UNL     1      45.306   4.228  12.557  0.00  0.00    +0.000 N 
ATOM      9  H   UNL     1      45.561   3.387  13.067  0.00  0.00    +0.000 HD
BRANCH   8  11
ATOM     10  C   UNL     1      43.052   5.155  12.901  0.00  0.00    +0.000 C 
ATOM     11  C   UNL     1      43.941   4.244  12.078  0.00  0.00    +0.000 C 
ATOM     12  C   UNL     1      43.788   4.277  10.541  0.00  0.00    +0.000 C 
ATOM     13  O   UNL     1      43.594   2.841  10.479  0.00  0.00    +0.000 OA
ATOM     14  C   UNL     1      43.416   2.793  11.916  0.00  0.00    +0.000 C 
ENDBRANCH   8  11
ENDBRANCH   2   8
ENDBRANCH   1   6
BRANCH   1  15
ATOM     15  C   UNL     1      48.246   5.083  16.461  0.00  0.00    +0.000 C 
BRANCH  15  16
ATOM     16  N   UNL     1      49.145   4.969  17.621  0.00  0.00    +0.000 N 
ATOM     17  H   UNL     1      48.638   4.964  18.504  0.00  0.00    +0.000 HD
BRANCH  16  18
ATOM     18  C   UNL     1      50.123   3.961  17.585  0.00  0.00    +0.000 A 
ATOM     19  C   UNL     1      51.435   4.150  18.032  0.00  0.00    +0.000 A 
ATOM     20  C   UNL     1      52.349   3.099  18.034  0.00  0.00    +0.000 A 
ATOM     21  C   UNL     1      51.918   1.851  17.613  0.00  0.00    +0.000 A 
ATOM     22  N   UNL     1      50.646   1.589  17.211  0.00  0.00    +0.000 NA
ATOM     23  C   UNL     1      49.790   2.645  17.231  0.00  0.00    +0.000 A 
BRANCH  21  24
ATOM     24  C   UNL     1      52.888   0.711  17.604  0.00  0.00    +0.000 C 
ATOM     25  N   UNL     1      52.547  -0.359  18.382  0.00  0.00    +0.000 N 
ATOM     26  O   UNL     1      53.924   0.724  16.949  0.00  0.00    +0.000 OA
ATOM     27  H   UNL     1      51.685  -0.329  18.920  0.00  0.00    +0.000 HD
ATOM     28  H   UNL     1      53.162  -1.157  18.432  0.00  0.00    +0.000 HD
ENDBRANCH  21  24
ENDBRANCH  16  18
ENDBRANCH  15  16
ENDBRANCH   1  15
TORSDOF 7
ENDMDL
MODEL 9
REMARK VINA RESULT:    -6.368      2.780      4.277
REMARK INTER + INTRA:          -9.658
REMARK INTER:                  -8.685
REMARK INTRA:                  -0.973
REMARK UNBOUND:                -0.685
REMARK  Name = 
REMARK  8 active torsions:
REMARK  status: ('A' for Active; 'I' for Inactive)
REMARK    1  A    between atoms: C_1  and  C_2
REMARK    2  A    between atoms: C_2  and  N_3
REMARK    3  A    between atoms: N_3  and  C_4
REMARK    4  A    between atoms: C_8  and  C_9
REMARK    5  A    between atoms: C_9  and  C_10
REMARK    6  A    between atoms: C_10  and  N_11
REMARK    7  A    between atoms: N_11  and  C_12
REMARK    8  A    between atoms: C_15  and  C_16
REMARK                            x       y       z     vdW  Elec       q    Type
REMARK                         _______ _______ _______ _____ _____    ______ ____
ROOT
ATOM      1  C   UNL     1      48.382   7.826  12.919  0.00  0.00    +0.000 C 
ENDROOT
BRANCH   1   6
ATOM      2  C   UNL     1      49.092   6.493  16.446  0.00  0.00    +0.000 A 
ATOM      3  C   UNL     1      48.846   7.634  17.209  0.00  0.00    +0.000 A 
ATOM      4  C   UNL     1      48.476   8.835  16.595  0.00  0.00    +0.000 A 
ATOM      5  C   UNL     1      48.324   8.904  15.210  0.00  0.00    +0.000 A 
ATOM      6  C   UNL     1      48.552   7.772  14.421  0.00  0.00    +0.000 A 
ATOM      7  C   UNL     1      48.918   6.573  15.053  0.00  0.00    +0.000 A 
BRANCH   2   8
ATOM      8  N   UNL     1      49.388   5.236  17.003  0.00  0.00    +0.000 N 
ATOM      9  H   UNL     1      50.373   5.136  17.234  0.00  0.00    +0.000 HD
BRANCH   8  11
ATOM     10  C   UNL     1      48.858   4.063  19.101  0.00  0.00    +0.000 C 
ATOM     11  C   UNL     1      48.527   4.260  17.635  0.00  0.00    +0.000 C 
ATOM     12  C   UNL     1      47.037   4.346  17.233  0.00  0.00    +0.000 C 
ATOM     13  O   UNL     1      47.191   3.293  16.247  0.00  0.00    +0.000 OA
ATOM     14  C   UNL     1      48.490   2.957  16.794  0.00  0.00    +0.000 C 
ENDBRANCH   8  11
ENDBRANCH   2   8
ENDBRANCH   1   6
BRANCH   1  15
ATOM     15  C   UNL     1      46.993   8.327  12.509  0.00  0.00    +0.000 C 
BRANCH  15  16
ATOM     16  N   UNL     1      45.942   7.645  13.282  0.00  0.00    +0.000 N 
ATOM     17  H   UNL     1      45.222   8.288  13.607  0.00  0.00    +0.000 HD
BRANCH  16  18
ATOM     18  C   UNL     1      45.379   6.485  12.723  0.00  0.00    +0.000 A 
ATOM     19  C   UNL     1      44.956   6.404  11.392  0.00  0.00    +0.000 A 
ATOM     20  C   UNL     1      44.464   5.211  10.869  0.00  0.00    +0.000 A 
ATOM     21  C   UNL     1      44.433   4.095  11.691  0.00  0.00    +0.000 A 
ATOM     22  N   UNL     1      44.871   4.094  12.977  0.00  0.00    +0.000 NA
ATOM     23  C   UNL     1      45.347   5.280  13.441  0.00  0.00    +0.000 A 
BRANCH  21  24
ATOM     24  C   UNL     1      43.902   2.805  11.147  0.00  0.00    +0.000 C 
ATOM     25  N   UNL     1      44.556   2.314  10.052  0.00  0.00    +0.000 N 
ATOM     26  O   UNL     1      42.945   2.219  11.639  0.00  0.00    +0.000 OA
ATOM     27  H   UNL     1      45.339   2.833   9.666  0.00  0.00    +0.000 HD
ATOM     28  H   UNL     1      44.242   1.454   9.627  0.00  0.00    +0.000 HD
ENDBRANCH  21  24
ENDBRANCH  16  18
ENDBRANCH  15  16
ENDBRANCH   1  15
TORSDOF 7
ENDMDL
