MODEL 1
REMARK VINA RESULT:    -7.835      0.000      0.000
REMARK INTER + INTRA:         -10.746
REMARK INTER:                 -10.125
REMARK INTRA:                  -0.621
REMARK UNBOUND:                -0.621
REMARK  Name = 
REMARK  6 active torsions:
REMARK  status: ('A' for Active; 'I' for Inactive)
REMARK    1  A    between atoms: N_1  and  C_2
REMARK    2  A    between atoms: C_2  and  C_3
REMARK    3  A    between atoms: C_3  and  O_4
REMARK    4  A    between atoms: C_3  and  C_5
REMARK    5  A    between atoms: C_9  and  C_10
REMARK    6  A    between atoms: C_10  and  N_11
REMARK                            x       y       z     vdW  Elec       q    Type
REMARK                         _______ _______ _______ _____ _____    ______ ____
ROOT
ATOM      1  C   UNL     1      46.119   2.375   7.925  0.00  0.00    +0.000 A 
ATOM      2  C   UNL     1      46.320   3.725   7.602  0.00  0.00    +0.000 A 
ATOM      3  C   UNL     1      45.652   4.731   8.291  0.00  0.00    +0.000 A 
ATOM      4  C   UNL     1      44.773   4.395   9.321  0.00  0.00    +0.000 A 
ATOM      5  C   UNL     1      44.574   3.060   9.680  0.00  0.00    +0.000 A 
ATOM      6  C   UNL     1      45.247   2.050   8.976  0.00  0.00    +0.000 A 
ENDROOT
BRANCH   1   7
ATOM      7  C   UNL     1      46.816   1.288   7.145  0.00  0.00    +0.000 C 
BRANCH   7   8
ATOM      8  O   UNL     1      46.809   0.102   7.943  0.00  0.00    +0.000 OA
ATOM      9  H   UNL     1      46.041   0.182   8.536  0.00  0.00    +0.000 HD
ENDBRANCH   7   8
BRANCH   7  10
ATOM     10  C   UNL     1      48.261   1.713   6.781  0.00  0.00    +0.000 C 
BRANCH  10  11
ATOM     11  N   UNL     1      48.443   1.867   5.331  0.00  0.00    +0.000 NA
ATOM     12  H   UNL     1      48.727   0.965   4.943  0.00  0.00    +0.000 HD
ATOM     13  H   UNL     1      49.227   2.496   5.156  0.00  0.00    +0.000 HD
ENDBRANCH  10  11
ENDBRANCH   7  10
ENDBRANCH   1   7
BRANCH   5  14
ATOM     14  C   UNL     1      43.684   2.704  10.836  0.00  0.00    +0.000 C 
BRANCH  14  15
ATOM     15  N   UNL     1      43.745   3.665  11.933  0.00  0.00    +0.000 N 
ATOM     16  N   UNL     1      42.791   4.624  12.016  0.00  0.00    +0.000 NA
ATOM     17  C   UNL     1      43.397   5.615  12.671  0.00  0.00    +0.000 A 
ATOM     18  C   UNL     1      44.717   5.291  13.047  0.00  0.00    +0.000 A 
ATOM     19  C   UNL     1      45.792   5.973  13.642  0.00  0.00    +0.000 A 
ATOM     20  C   UNL     1      46.968   5.264  13.888  0.00  0.00    +0.000 A 
ATOM     21  F   UNL     1      48.019   5.909  14.411  0.00  0.00    +0.000 F 
ATOM     22  C   UNL     1      47.080   3.908  13.600  0.00  0.00    +0.000 A 
ATOM     23  C   UNL     1      46.031   3.223  12.979  0.00  0.00    +0.000 A 
ATOM     24  C   UNL     1      44.873   3.957  12.676  0.00  0.00    +0.000 A 
ENDBRANCH  14  15
ENDBRANCH   5  14
TORSDOF 6
ENDMDL
MODEL 2
REMARK VINA RESULT:    -7.450      3.360      6.417
REMARK INTER + INTRA:         -10.249
REMARK INTER:                  -9.729
REMARK INTRA:                  -0.520
REMARK UNBOUND:                -0.621
REMARK  Name = 
REMARK  6 active torsions:
REMARK  status: ('A' for Active; 'I' for Inactive)
REMARK    1  A    between atoms: N_1  and  C_2
REMARK    2  A    between atoms: C_2  and  C_3
REMARK    3  A    between atoms: C_3  and  O_4
REMARK    4  A    between atoms: C_3  and  C_5
REMARK    5  A    between atoms: C_9  and  C_10
REMARK    6  A    between atoms: C_10  and  N_11
REMARK                            x       y       z     vdW  Elec       q    Type
REMARK                         _______ _______ _______ _____ _____    ______ ____
ROOT
ATOM      1  C   UNL     1      47.278   6.174  12.722  0.00  0.00    +0.000 A 
ATOM      2  C   UNL     1      47.213   5.129  13.656  0.00  0.00    +0.000 A 
ATOM      3  C   UNL     1      46.235   4.147  13.560  0.00  0.00    +0.000 A 
ATOM      4  C   UNL     1      45.308   4.195  12.519  0.00  0.00    +0.000 A 
ATOM      5  C   UNL     1      45.366   5.209  11.561  0.00  0.00    +0.000 A 
ATOM      6  C   UNL     1      46.352   6.201  11.667  0.00  0.00    +0.000 A 
ENDROOT
BRANCH   1   7
ATOM      7  C   UNL     1      48.317   7.259  12.857  0.00  0.00    +0.000 C 
BRANCH   7   8
ATOM      8  O   UNL     1      49.605   6.647  12.772  0.00  0.00    +0.000 OA
ATOM      9  H   UNL     1      49.904   6.521  13.690  0.00  0.00    +0.000 HD
ENDBRANCH   7   8
BRANCH   7  10
ATOM     10  C   UNL     1      48.143   8.024  14.193  0.00  0.00    +0.000 C 
BRANCH  10  11
ATOM     11  N   UNL     1      46.906   8.815  14.221  0.00  0.00    +0.000 NA
ATOM     12  H   UNL     1      47.077   9.667  14.758  0.00  0.00    +0.000 HD
ATOM     13  H   UNL     1      46.193   8.304  14.743  0.00  0.00    +0.000 HD
ENDBRANCH  10  11
ENDBRANCH   7  10
ENDBRANCH   1   7
BRANCH   5  14
ATOM     14  C   UNL     1      44.413   5.220  10.399  0.00  0.00    +0.000 C 
BRANCH  14  15
ATOM     15  N   UNL     1      44.370   3.954   9.673  0.00  0.00    +0.000 N 
ATOM     16  N   UNL     1      43.687   2.915  10.212  0.00  0.00    +0.000 NA
ATOM     17  C   UNL     1      44.286   1.842   9.693  0.00  0.00    +0.000 A 
ATOM     18  C   UNL     1      45.321   2.178   8.794  0.00  0.00    +0.000 A 
ATOM     19  C   UNL     1      46.299   1.473   8.075  0.00  0.00    +0.000 A 
ATOM     20  C   UNL     1      47.148   2.194   7.235  0.00  0.00    +0.000 A 
ATOM     21  F   UNL     1      48.118   1.544   6.577  0.00  0.00    +0.000 F 
ATOM     22  C   UNL     1      47.020   3.568   7.068  0.00  0.00    +0.000 A 
ATOM     23  C   UNL     1      46.073   4.289   7.802  0.00  0.00    +0.000 A 
ATOM     24  C   UNL     1      45.263   3.567   8.692  0.00  0.00    +0.000 A 
ENDBRANCH  14  15
ENDBRANCH   5  14
TORSDOF 6
ENDMDL
MODEL 3
REMARK VINA RESULT:    -7.305      3.127      6.082
REMARK INTER + INTRA:         -10.061
REMARK INTER:                  -9.240
REMARK INTRA:                  -0.821
REMARK UNBOUND:                -0.621
REMARK  Name = 
REMARK  6 active torsions:
REMARK  status: ('A' for Active; 'I' for Inactive)
REMARK    1  A    between atoms: N_1  and  C_2
REMARK    2  A    between atoms: C_2  and  C_3
REMARK    3  A    between atoms: C_3  and  O_4
REMARK    4  A    between atoms: C_3  and  C_5
REMARK    5  A    between atoms: C_9  and  C_10
REMARK    6  A    between atoms: C_10  and  N_11
REMARK                            x       y       z     vdW  Elec       q    Type
REMARK                         _______ _______ _______ _____ _____    ______ ____
ROOT
ATOM      1  C   UNL     1      47.146   5.185  13.779  0.00  0.00    +0.000 A 
ATOM      2  C   UNL     1      48.009   6.170  13.274  0.00  0.00    +0.000 A 
ATOM      3  C   UNL     1      47.608   7.005  12.238  0.00  0.00    +0.000 A 
ATOM      4  C   UNL     1      46.331   6.867  11.695  0.00  0.00    +0.000 A 
ATOM      5  C   UNL     1      45.443   5.913  12.195  0.00  0.00    +0.000 A 
ATOM      6  C   UNL     1      45.856   5.069  13.237  0.00  0.00    +0.000 A 
ENDROOT
BRANCH   1   7
ATOM      7  C   UNL     1      47.602   4.255  14.876  0.00  0.00    +0.000 C 
BRANCH   7   8
ATOM      8  O   UNL     1      47.402   2.914  14.426  0.00  0.00    +0.000 OA
ATOM      9  H   UNL     1      47.765   2.339  15.123  0.00  0.00    +0.000 HD
ENDBRANCH   7   8
BRANCH   7  10
ATOM     10  C   UNL     1      46.826   4.531  16.188  0.00  0.00    +0.000 C 
BRANCH  10  11
ATOM     11  N   UNL     1      46.787   3.354  17.066  0.00  0.00    +0.000 NA
ATOM     12  H   UNL     1      47.351   2.614  16.642  0.00  0.00    +0.000 HD
ATOM     13  H   UNL     1      45.836   2.987  17.093  0.00  0.00    +0.000 HD
ENDBRANCH  10  11
ENDBRANCH   7  10
ENDBRANCH   1   7
BRANCH   5  14
ATOM     14  C   UNL     1      44.044   5.814  11.659  0.00  0.00    +0.000 C 
BRANCH  14  15
ATOM     15  N   UNL     1      43.778   4.561  10.959  0.00  0.00    +0.000 N 
ATOM     16  N   UNL     1      43.098   3.582  11.605  0.00  0.00    +0.000 NA
ATOM     17  C   UNL     1      43.514   2.464  11.008  0.00  0.00    +0.000 A 
ATOM     18  C   UNL     1      44.423   2.713   9.959  0.00  0.00    +0.000 A 
ATOM     19  C   UNL     1      45.213   1.928   9.103  0.00  0.00    +0.000 A 
ATOM     20  C   UNL     1      45.982   2.577   8.136  0.00  0.00    +0.000 A 
ATOM     21  F   UNL     1      46.778   1.848   7.341  0.00  0.00    +0.000 F 
ATOM     22  C   UNL     1      45.951   3.958   7.979  0.00  0.00    +0.000 A 
ATOM     23  C   UNL     1      45.195   4.755   8.845  0.00  0.00    +0.000 A 
ATOM     24  C   UNL     1      44.472   4.102   9.855  0.00  0.00    +0.000 A 
ENDBRANCH  14  15
ENDBRANCH   5  14
TORSDOF 6
ENDMDL
MODEL 4
REMARK VINA RESULT:    -6.836      1.766      2.343
REMARK INTER + INTRA:          -9.455
REMARK INTER:                  -8.752
REMARK INTRA:                  -0.703
REMARK UNBOUND:                -0.621
REMARK  Name = 
REMARK  6 active torsions:
REMARK  status: ('A' for Active; 'I' for Inactive)
REMARK    1  A    between atoms: N_1  and  C_2
REMARK    2  A    between atoms: C_2  and  C_3
REMARK    3  A    between atoms: C_3  and  O_4
REMARK    4  A    between atoms: C_3  and  C_5
REMARK    5  A    between atoms: C_9  and  C_10
REMARK    6  A    between atoms: C_10  and  N_11
REMARK                            x       y       z     vdW  Elec       q    Type
REMARK                         _______ _______ _______ _____ _____    ______ ____
ROOT
ATOM      1  C   UNL     1      46.006   3.227   8.240  0.00  0.00    +0.000 A 
ATOM      2  C   UNL     1      45.517   1.975   8.641  0.00  0.00    +0.000 A 
ATOM      3  C   UNL     1      44.524   1.874   9.609  0.00  0.00    +0.000 A 
ATOM      4  C   UNL     1      44.002   3.032  10.186  0.00  0.00    +0.000 A 
ATOM      5  C   UNL     1      44.453   4.292   9.786  0.00  0.00    +0.000 A 
ATOM      6  C   UNL     1      45.459   4.387   8.814  0.00  0.00    +0.000 A 
ENDROOT
BRANCH   1   7
ATOM      7  C   UNL     1      47.112   3.328   7.219  0.00  0.00    +0.000 C 
BRANCH   7   8
ATOM      8  O   UNL     1      46.673   4.206   6.181  0.00  0.00    +0.000 OA
ATOM      9  H   UNL     1      47.095   5.064   6.358  0.00  0.00    +0.000 HD
ENDBRANCH   7   8
BRANCH   7  10
ATOM     10  C   UNL     1      47.471   1.928   6.659  0.00  0.00    +0.000 C 
BRANCH  10  11
ATOM     11  N   UNL     1      48.509   1.997   5.622  0.00  0.00    +0.000 NA
ATOM     12  H   UNL     1      48.196   2.639   4.891  0.00  0.00    +0.000 HD
ATOM     13  H   UNL     1      48.591   1.088   5.167  0.00  0.00    +0.000 HD
ENDBRANCH  10  11
ENDBRANCH   7  10
ENDBRANCH   1   7
BRANCH   5  14
ATOM     14  C   UNL     1      43.839   5.540  10.355  0.00  0.00    +0.000 C 
BRANCH  14  15
ATOM     15  N   UNL     1      44.692   6.213  11.330  0.00  0.00    +0.000 N 
ATOM     16  N   UNL     1      45.332   7.350  10.964  0.00  0.00    +0.000 NA
ATOM     17  C   UNL     1      46.401   7.380  11.760  0.00  0.00    +0.000 A 
ATOM     18  C   UNL     1      46.438   6.296  12.663  0.00  0.00    +0.000 A 
ATOM     19  C   UNL     1      47.349   5.806  13.613  0.00  0.00    +0.000 A 
ATOM     20  C   UNL     1      46.986   4.683  14.357  0.00  0.00    +0.000 A 
ATOM     21  F   UNL     1      47.861   4.173  15.234  0.00  0.00    +0.000 F 
ATOM     22  C   UNL     1      45.744   4.076  14.209  0.00  0.00    +0.000 A 
ATOM     23  C   UNL     1      44.839   4.532  13.245  0.00  0.00    +0.000 A 
ATOM     24  C   UNL     1      45.235   5.623  12.456  0.00  0.00    +0.000 A 
ENDBRANCH  14  15
ENDBRANCH   5  14
TORSDOF 6
ENDMDL
MODEL 5
REMARK VINA RESULT:    -6.511      3.243      6.328
REMARK INTER + INTRA:          -9.036
REMARK INTER:                  -8.647
REMARK INTRA:                  -0.388
REMARK UNBOUND:                -0.621
REMARK  Name = 
REMARK  6 active torsions:
REMARK  status: ('A' for Active; 'I' for Inactive)
REMARK    1  A    between atoms: N_1  and  C_2
REMARK    2  A    between atoms: C_2  and  C_3
REMARK    3  A    between atoms: C_3  and  O_4
REMARK    4  A    between atoms: C_3  and  C_5
REMARK    5  A    between atoms: C_9  and  C_10
REMARK    6  A    between atoms: C_10  and  N_11
REMARK                            x       y       z     vdW  Elec       q    Type
REMARK                         _______ _______ _______ _____ _____    ______ ____
ROOT
ATOM      1  C   UNL     1      45.441   5.228  12.915  0.00  0.00    +0.000 A 
ATOM      2  C   UNL     1      44.236   4.924  13.567  0.00  0.00    +0.000 A 
ATOM      3  C   UNL     1      43.086   4.636  12.841  0.00  0.00    +0.000 A 
ATOM      4  C   UNL     1      43.129   4.644  11.447  0.00  0.00    +0.000 A 
ATOM      5  C   UNL     1      44.321   4.918  10.773  0.00  0.00    +0.000 A 
ATOM      6  C   UNL     1      45.477   5.214  11.511  0.00  0.00    +0.000 A 
ENDROOT
BRANCH   1   7
ATOM      7  C   UNL     1      46.675   5.579  13.709  0.00  0.00    +0.000 C 
BRANCH   7   8
ATOM      8  O   UNL     1      47.766   5.697  12.794  0.00  0.00    +0.000 OA
ATOM      9  H   UNL     1      48.399   5.000  13.039  0.00  0.00    +0.000 HD
ENDBRANCH   7   8
BRANCH   7  10
ATOM     10  C   UNL     1      46.958   4.505  14.788  0.00  0.00    +0.000 C 
BRANCH  10  11
ATOM     11  N   UNL     1      47.384   3.228  14.199  0.00  0.00    +0.000 NA
ATOM     12  H   UNL     1      46.554   2.656  14.030  0.00  0.00    +0.000 HD
ATOM     13  H   UNL     1      47.935   2.710  14.884  0.00  0.00    +0.000 HD
ENDBRANCH  10  11
ENDBRANCH   7  10
ENDBRANCH   1   7
BRANCH   5  14
ATOM     14  C   UNL     1      44.384   4.856   9.274  0.00  0.00    +0.000 C 
BRANCH  14  15
ATOM     15  N   UNL     1      44.593   3.506   8.758  0.00  0.00    +0.000 N 
ATOM     16  N   UNL     1      44.121   2.454   9.470  0.00  0.00    +0.000 NA
ATOM     17  C   UNL     1      44.921   1.449   9.113  0.00  0.00    +0.000 A 
ATOM     18  C   UNL     1      45.877   1.830   8.148  0.00  0.00    +0.000 A 
ATOM     19  C   UNL     1      46.979   1.221   7.526  0.00  0.00    +0.000 A 
ATOM     20  C   UNL     1      47.678   1.950   6.562  0.00  0.00    +0.000 A 
ATOM     21  F   UNL     1      48.760   1.403   5.991  0.00  0.00    +0.000 F 
ATOM     22  C   UNL     1      47.286   3.228   6.183  0.00  0.00    +0.000 A 
ATOM     23  C   UNL     1      46.211   3.860   6.817  0.00  0.00    +0.000 A 
ATOM     24  C   UNL     1      45.551   3.147   7.829  0.00  0.00    +0.000 A 
ENDBRANCH  14  15
ENDBRANCH   5  14
TORSDOF 6
ENDMDL
MODEL 6
REMARK VINA RESULT:    -6.305      4.046      6.810
REMARK INTER + INTRA:          -8.769
REMARK INTER:                  -8.448
REMARK INTRA:                  -0.321
REMARK UNBOUND:                -0.621
REMARK  Name = 
REMARK  6 active torsions:
REMARK  status: ('A' for Active; 'I' for Inactive)
REMARK    1  A    between atoms: N_1  and  C_2
REMARK    2  A    between atoms: C_2  and  C_3
REMARK    3  A    between atoms: C_3  and  O_4
REMARK    4  A    between atoms: C_3  and  C_5
REMARK    5  A    between atoms: C_9  and  C_10
REMARK    6  A    between atoms: C_10  and  N_11
REMARK                            x       y       z     vdW  Elec       q    Type
REMARK                         _______ _______ _______ _____ _____    ______ ____
ROOT
ATOM      1  C   UNL     1      47.577   7.456  13.875  0.00  0.00    +0.000 A 
ATOM      2  C   UNL     1      47.890   6.148  14.274  0.00  0.00    +0.000 A 
ATOM      3  C   UNL     1      47.225   5.057  13.726  0.00  0.00    +0.000 A 
ATOM      4  C   UNL     1      46.238   5.263  12.762  0.00  0.00    +0.000 A 
ATOM      5  C   UNL     1      45.926   6.553  12.327  0.00  0.00    +0.000 A 
ATOM      6  C   UNL     1      46.596   7.650  12.889  0.00  0.00    +0.000 A 
ENDROOT
BRANCH   1   7
ATOM      7  C   UNL     1      48.274   8.637  14.504  0.00  0.00    +0.000 C 
BRANCH   7   8
ATOM      8  O   UNL     1      47.388   9.205  15.470  0.00  0.00    +0.000 OA
ATOM      9  H   UNL     1      46.565   8.688  15.417  0.00  0.00    +0.000 HD
ENDBRANCH   7   8
BRANCH   7  10
ATOM     10  C   UNL     1      48.675   9.676  13.427  0.00  0.00    +0.000 C 
BRANCH  10  11
ATOM     11  N   UNL     1      48.152  11.015  13.729  0.00  0.00    +0.000 NA
ATOM     12  H   UNL     1      48.914  11.690  13.637  0.00  0.00    +0.000 HD
ATOM     13  H   UNL     1      47.875  11.054  14.710  0.00  0.00    +0.000 HD
ENDBRANCH  10  11
ENDBRANCH   7  10
ENDBRANCH   1   7
BRANCH   5  14
ATOM     14  C   UNL     1      44.915   6.769  11.237  0.00  0.00    +0.000 C 
BRANCH  14  15
ATOM     15  N   UNL     1      44.169   5.564  10.891  0.00  0.00    +0.000 N 
ATOM     16  N   UNL     1      43.211   5.121  11.741  0.00  0.00    +0.000 NA
ATOM     17  C   UNL     1      43.151   3.812  11.494  0.00  0.00    +0.000 A 
ATOM     18  C   UNL     1      44.032   3.411  10.467  0.00  0.00    +0.000 A 
ATOM     19  C   UNL     1      44.429   2.189   9.901  0.00  0.00    +0.000 A 
ATOM     20  C   UNL     1      45.332   2.218   8.837  0.00  0.00    +0.000 A 
ATOM     21  F   UNL     1      45.758   1.060   8.314  0.00  0.00    +0.000 F 
ATOM     22  C   UNL     1      45.805   3.414   8.309  0.00  0.00    +0.000 A 
ATOM     23  C   UNL     1      45.443   4.637   8.883  0.00  0.00    +0.000 A 
ATOM     24  C   UNL     1      44.584   4.599   9.992  0.00  0.00    +0.000 A 
ENDBRANCH  14  15
ENDBRANCH   5  14
TORSDOF 6
ENDMDL
MODEL 7
REMARK VINA RESULT:    -6.250      4.026      6.225
REMARK INTER + INTRA:          -8.699
REMARK INTER:                  -8.372
REMARK INTRA:                  -0.326
REMARK UNBOUND:                -0.621
REMARK  Name = 
REMARK  6 active torsions:
REMARK  status: ('A' for Active; 'I' for Inactive)
REMARK    1  A    between atoms: N_1  and  C_2
REMARK    2  A    between atoms: C_2  and  C_3
REMARK    3  A    between atoms: C_3  and  O_4
REMARK    4  A    between atoms: C_3  and  C_5
REMARK    5  A    between atoms: C_9  and  C_10
REMARK    6  A    between atoms: C_10  and  N_11
REMARK                            x       y       z     vdW  Elec       q    Type
REMARK                         _______ _______ _______ _____ _____    ______ ____
ROOT
ATOM      1  C   UNL     1      47.969   7.989  12.163  0.00  0.00    +0.000 A 
ATOM      2  C   UNL     1      47.050   9.048  12.202  0.00  0.00    +0.000 A 
ATOM      3  C   UNL     1      45.722   8.826  12.547  0.00  0.00    +0.000 A 
ATOM      4  C   UNL     1      45.297   7.536  12.864  0.00  0.00    +0.000 A 
ATOM      5  C   UNL     1      46.197   6.469  12.859  0.00  0.00    +0.000 A 
ATOM      6  C   UNL     1      47.535   6.698  12.504  0.00  0.00    +0.000 A 
ENDROOT
BRANCH   1   7
ATOM      7  C   UNL     1      49.400   8.231  11.748  0.00  0.00    +0.000 C 
BRANCH   7   8
ATOM      8  O   UNL     1      50.173   7.105  12.166  0.00  0.00    +0.000 OA
ATOM      9  H   UNL     1      49.878   6.895  13.069  0.00  0.00    +0.000 HD
ENDBRANCH   7   8
BRANCH   7  10
ATOM     10  C   UNL     1      49.937   9.545  12.369  0.00  0.00    +0.000 C 
BRANCH  10  11
ATOM     11  N   UNL     1      51.287   9.383  12.923  0.00  0.00    +0.000 NA
ATOM     12  H   UNL     1      51.388  10.011  13.724  0.00  0.00    +0.000 HD
ATOM     13  H   UNL     1      51.973   9.706  12.239  0.00  0.00    +0.000 HD
ENDBRANCH  10  11
ENDBRANCH   7  10
ENDBRANCH   1   7
BRANCH   5  14
ATOM     14  C   UNL     1      45.756   5.093  13.270  0.00  0.00    +0.000 C 
BRANCH  14  15
ATOM     15  N   UNL     1      44.776   4.503  12.364  0.00  0.00    +0.000 N 
ATOM     16  N   UNL     1      43.880   3.614  12.858  0.00  0.00    +0.000 NA
ATOM     17  C   UNL     1      43.567   2.862  11.802  0.00  0.00    +0.000 A 
ATOM     18  C   UNL     1      44.220   3.281  10.623  0.00  0.00    +0.000 A 
ATOM     19  C   UNL     1      44.325   2.805   9.306  0.00  0.00    +0.000 A 
ATOM     20  C   UNL     1      45.067   3.552   8.392  0.00  0.00    +0.000 A 
ATOM     21  F   UNL     1      45.217   3.090   7.143  0.00  0.00    +0.000 F 
ATOM     22  C   UNL     1      45.660   4.760   8.743  0.00  0.00    +0.000 A 
ATOM     23  C   UNL     1      45.592   5.231  10.058  0.00  0.00    +0.000 A 
ATOM     24  C   UNL     1      44.897   4.443  10.988  0.00  0.00    +0.000 A 
ENDBRANCH  14  15
ENDBRANCH   5  14
TORSDOF 6
ENDMDL
MODEL 8
REMARK VINA RESULT:    -6.123      4.195      5.736
REMARK INTER + INTRA:          -8.534
REMARK INTER:                  -7.900
REMARK INTRA:                  -0.634
REMARK UNBOUND:                -0.621
REMARK  Name = 
REMARK  6 active torsions:
REMARK  status: ('A' for Active; 'I' for Inactive)
REMARK    1  A    between atoms: N_1  and  C_2
REMARK    2  A    between atoms: C_2  and  C_3
REMARK    3  A    between atoms: C_3  and  O_4
REMARK    4  A    between atoms: C_3  and  C_5
REMARK    5  A    between atoms: C_9  and  C_10
REMARK    6  A    between atoms: C_10  and  N_11
REMARK                            x       y       z     vdW  Elec       q    Type
REMARK                         _______ _______ _______ _____ _____    ______ ____
ROOT
ATOM      1  C   UNL     1      44.486   5.614  11.754  0.00  0.00    +0.000 A 
ATOM      2  C   UNL     1      44.232   6.964  11.469  0.00  0.00    +0.000 A 
ATOM      3  C   UNL     1      45.159   7.948  11.793  0.00  0.00    +0.000 A 
ATOM      4  C   UNL     1      46.361   7.590  12.404  0.00  0.00    +0.000 A 
ATOM      5  C   UNL     1      46.650   6.251  12.675  0.00  0.00    +0.000 A 
ATOM      6  C   UNL     1      45.708   5.264  12.352  0.00  0.00    +0.000 A 
ENDROOT
BRANCH   1   7
ATOM      7  C   UNL     1      43.458   4.557  11.438  0.00  0.00    +0.000 C 
BRANCH   7   8
ATOM      8  O   UNL     1      42.169   5.092  11.747  0.00  0.00    +0.000 OA
ATOM      9  H   UNL     1      41.694   4.389  12.225  0.00  0.00    +0.000 HD
ENDBRANCH   7   8
BRANCH   7  10
ATOM     10  C   UNL     1      43.738   3.261  12.239  0.00  0.00    +0.000 C 
BRANCH  10  11
ATOM     11  N   UNL     1      43.033   2.101  11.677  0.00  0.00    +0.000 NA
ATOM     12  H   UNL     1      43.642   1.651  10.992  0.00  0.00    +0.000 HD
ATOM     13  H   UNL     1      42.223   2.424  11.147  0.00  0.00    +0.000 HD
ENDBRANCH  10  11
ENDBRANCH   7  10
ENDBRANCH   1   7
BRANCH   5  14
ATOM     14  C   UNL     1      47.974   5.859  13.266  0.00  0.00    +0.000 C 
BRANCH  14  15
ATOM     15  N   UNL     1      48.087   6.163  14.690  0.00  0.00    +0.000 N 
ATOM     16  N   UNL     1      48.794   7.255  15.071  0.00  0.00    +0.000 NA
ATOM     17  C   UNL     1      49.201   6.951  16.304  0.00  0.00    +0.000 A 
ATOM     18  C   UNL     1      48.731   5.693  16.738  0.00  0.00    +0.000 A 
ATOM     19  C   UNL     1      48.933   4.874  17.861  0.00  0.00    +0.000 A 
ATOM     20  C   UNL     1      48.232   3.671  17.935  0.00  0.00    +0.000 A 
ATOM     21  F   UNL     1      48.447   2.855  18.976  0.00  0.00    +0.000 F 
ATOM     22  C   UNL     1      47.321   3.292  16.955  0.00  0.00    +0.000 A 
ATOM     23  C   UNL     1      47.133   4.080  15.815  0.00  0.00    +0.000 A 
ATOM     24  C   UNL     1      47.889   5.259  15.716  0.00  0.00    +0.000 A 
ENDBRANCH  14  15
ENDBRANCH   5  14
TORSDOF 6
ENDMDL
MODEL 9
REMARK VINA RESULT:    -5.790      3.008      4.292
REMARK INTER + INTRA:          -8.103
REMARK INTER:                  -7.542
REMARK INTRA:                  -0.562
REMARK UNBOUND:                -0.621
REMARK  Name = 
REMARK  6 active torsions:
REMARK  status: ('A' for Active; 'I' for Inactive)
REMARK    1  A    between atoms: N_1  and  C_2
REMARK    2  A    between atoms: C_2  and  C_3
REMARK    3  A    between atoms: C_3  and  O_4
REMARK    4  A    between atoms: C_3  and  C_5
REMARK    5  A    between atoms: C_9  and  C_10
REMARK    6  A    between atoms: C_10  and  N_11
REMARK                            x       y       z     vdW  Elec       q    Type
REMARK                         _______ _______ _______ _____ _____    ______ ____
ROOT
ATOM      1  C   UNL     1      44.699   4.085   9.855  0.00  0.00    +0.000 A 
ATOM      2  C   UNL     1      44.003   3.078  10.541  0.00  0.00    +0.000 A 
ATOM      3  C   UNL     1      43.860   3.125  11.922  0.00  0.00    +0.000 A 
ATOM      4  C   UNL     1      44.409   4.189  12.638  0.00  0.00    +0.000 A 
ATOM      5  C   UNL     1      45.084   5.218  11.977  0.00  0.00    +0.000 A 
ATOM      6  C   UNL     1      45.230   5.162  10.583  0.00  0.00    +0.000 A 
ENDROOT
BRANCH   1   7
ATOM      7  C   UNL     1      44.886   4.006   8.360  0.00  0.00    +0.000 C 
BRANCH   7   8
ATOM      8  O   UNL     1      44.040   2.965   7.866  0.00  0.00    +0.000 OA
ATOM      9  H   UNL     1      44.526   2.549   7.133  0.00  0.00    +0.000 HD
ENDBRANCH   7   8
BRANCH   7  10
ATOM     10  C   UNL     1      46.370   3.742   8.005  0.00  0.00    +0.000 C 
BRANCH  10  11
ATOM     11  N   UNL     1      46.707   4.208   6.653  0.00  0.00    +0.000 NA
ATOM     12  H   UNL     1      46.349   3.530   5.977  0.00  0.00    +0.000 HD
ATOM     13  H   UNL     1      47.721   4.195   6.536  0.00  0.00    +0.000 HD
ENDBRANCH  10  11
ENDBRANCH   7  10
ENDBRANCH   1   7
BRANCH   5  14
ATOM     14  C   UNL     1      45.612   6.400  12.739  0.00  0.00    +0.000 C 
BRANCH  14  15
ATOM     15  N   UNL     1      46.977   6.216  13.221  0.00  0.00    +0.000 N 
ATOM     16  N   UNL     1      47.173   5.598  14.412  0.00  0.00    +0.000 NA
ATOM     17  C   UNL     1      48.341   6.085  14.831  0.00  0.00    +0.000 A 
ATOM     18  C   UNL     1      48.921   6.979  13.907  0.00  0.00    +0.000 A 
ATOM     19  C   UNL     1      50.046   7.820  13.888  0.00  0.00    +0.000 A 
ATOM     20  C   UNL     1      50.306   8.549  12.727  0.00  0.00    +0.000 A 
ATOM     21  F   UNL     1      51.347   9.391  12.707  0.00  0.00    +0.000 F 
ATOM     22  C   UNL     1      49.509   8.430  11.594  0.00  0.00    +0.000 A 
ATOM     23  C   UNL     1      48.367   7.623  11.608  0.00  0.00    +0.000 A 
ATOM     24  C   UNL     1      48.076   6.940  12.800  0.00  0.00    +0.000 A 
ENDBRANCH  14  15
ENDBRANCH   5  14
TORSDOF 6
ENDMDL
