MODEL 1
REMARK VINA RESULT:    -8.286      0.000      0.000
REMARK INTER + INTRA:         -13.409
REMARK INTER:                 -12.161
REMARK INTRA:                  -1.248
REMARK UNBOUND:                -1.248
REMARK  Name = 
REMARK  9 active torsions:
REMARK  status: ('A' for Active; 'I' for Inactive)
REMARK    1  A    between atoms: C_1  and  C_2
REMARK    2  A    between atoms: C_2  and  C_3
REMARK    3  A    between atoms: C_2  and  C_26
REMARK    4  A    between atoms: C_3  and  N_4
REMARK    5  A    between atoms: N_4  and  C_5
REMARK    6  A    between atoms: C_5  and  C_6
REMARK    7  A    between atoms: C_9  and  C_10
REMARK    8  A    between atoms: C_10  and  N_11
REMARK    9  A    between atoms: C_12  and  C_14
REMARK                            x       y       z     vdW  Elec       q    Type
REMARK                         _______ _______ _______ _____ _____    ______ ____
ROOT
ATOM      1  C   UNL     1      44.637   4.044  12.817  0.00  0.00    +0.000 A 
ATOM      2  N   UNL     1      45.801   3.528  13.268  0.00  0.00    +0.000 NA
ATOM      3  C   UNL     1      46.777   4.408  13.563  0.00  0.00    +0.000 A 
ATOM      4  C   UNL     1      46.653   5.769  13.410  0.00  0.00    +0.000 A 
ATOM      5  C   UNL     1      45.446   6.189  12.893  0.00  0.00    +0.000 A 
ATOM      6  N   UNL     1      44.419   5.356  12.596  0.00  0.00    +0.000 NA
ENDROOT
BRANCH   1   7
ATOM      7  C   UNL     1      43.501   3.068  12.502  0.00  0.00    +0.000 C 
BRANCH   7   8
ATOM      8  N   UNL     1      43.145   3.037  11.075  0.00  0.00    +0.000 NA
ATOM      9  H   UNL     1      42.255   2.547  10.995  0.00  0.00    +0.000 HD
BRANCH   8  10
ATOM     10  C   UNL     1      44.176   2.431  10.241  0.00  0.00    +0.000 C 
BRANCH  10  12
ATOM     11  C   UNL     1      44.161   4.687   9.012  0.00  0.00    +0.000 C 
ATOM     12  C   UNL     1      45.014   3.508   9.505  0.00  0.00    +0.000 C 
BRANCH  12  13
ATOM     13  C   UNL     1      45.797   2.886   8.357  0.00  0.00    +0.000 A 
ATOM     14  C   UNL     1      46.154   1.530   8.410  0.00  0.00    +0.000 A 
ATOM     15  C   UNL     1      46.849   0.935   7.357  0.00  0.00    +0.000 A 
ATOM     16  C   UNL     1      47.194   1.686   6.235  0.00  0.00    +0.000 A 
ATOM     17  C   UNL     1      46.850   3.034   6.170  0.00  0.00    +0.000 A 
ATOM     18  C   UNL     1      46.158   3.632   7.225  0.00  0.00    +0.000 A 
ENDBRANCH  12  13
ENDBRANCH  10  12
ENDBRANCH   8  10
ENDBRANCH   7   8
ENDBRANCH   1   7
BRANCH   4  19
ATOM     19  C   UNL     1      47.772   6.696  13.749  0.00  0.00    +0.000 C 
BRANCH  19  20
ATOM     20  N   UNL     1      47.897   6.899  15.171  0.00  0.00    +0.000 N 
ATOM     21  C   UNL     1      49.135   6.896  15.768  0.00  0.00    +0.000 C 
ATOM     22  O   UNL     1      50.160   6.721  15.115  0.00  0.00    +0.000 OA
ATOM     23  H   UNL     1      47.107   7.295  15.669  0.00  0.00    +0.000 HD
BRANCH  21  24
ATOM     24  C   UNL     1      49.169   7.019  17.231  0.00  0.00    +0.000 A 
ATOM     25  C   UNL     1      49.694   8.160  17.823  0.00  0.00    +0.000 A 
ATOM     26  S   UNL     1      49.936   8.000  19.505  0.00  0.00    +0.000 S 
ATOM     27  C   UNL     1      49.289   6.426  19.499  0.00  0.00    +0.000 A 
ATOM     28  N   UNL     1      49.296   5.650  20.617  0.00  0.00    +0.000 NA
ATOM     29  C   UNL     1      48.724   4.501  20.469  0.00  0.00    +0.000 A 
ATOM     30  N   UNL     1      48.102   4.077  19.320  0.00  0.00    +0.000 N 
ATOM     31  C   UNL     1      48.045   4.843  18.185  0.00  0.00    +0.000 A 
ATOM     32  O   UNL     1      47.392   4.495  17.203  0.00  0.00    +0.000 OA
ATOM     33  C   UNL     1      48.783   6.086  18.259  0.00  0.00    +0.000 A 
ATOM     34  H   UNL     1      47.600   3.202  19.299  0.00  0.00    +0.000 HD
ENDBRANCH  21  24
ENDBRANCH  19  20
ENDBRANCH   4  19
TORSDOF 8
ENDMDL
MODEL 2
REMARK VINA RESULT:    -7.979      1.859      2.071
REMARK INTER + INTRA:         -12.959
REMARK INTER:                 -11.923
REMARK INTRA:                  -1.036
REMARK UNBOUND:                -1.248
REMARK  Name = 
REMARK  9 active torsions:
REMARK  status: ('A' for Active; 'I' for Inactive)
REMARK    1  A    between atoms: C_1  and  C_2
REMARK    2  A    between atoms: C_2  and  C_3
REMARK    3  A    between atoms: C_2  and  C_26
REMARK    4  A    between atoms: C_3  and  N_4
REMARK    5  A    between atoms: N_4  and  C_5
REMARK    6  A    between atoms: C_5  and  C_6
REMARK    7  A    between atoms: C_9  and  C_10
REMARK    8  A    between atoms: C_10  and  N_11
REMARK    9  A    between atoms: C_12  and  C_14
REMARK                            x       y       z     vdW  Elec       q    Type
REMARK                         _______ _______ _______ _____ _____    ______ ____
ROOT
ATOM      1  C   UNL     1      44.626   5.845  12.034  0.00  0.00    +0.000 A 
ATOM      2  N   UNL     1      45.468   5.099  12.782  0.00  0.00    +0.000 NA
ATOM      3  C   UNL     1      46.502   5.745  13.353  0.00  0.00    +0.000 A 
ATOM      4  C   UNL     1      46.747   7.089  13.196  0.00  0.00    +0.000 A 
ATOM      5  C   UNL     1      45.862   7.749  12.369  0.00  0.00    +0.000 A 
ATOM      6  N   UNL     1      44.791   7.161  11.783  0.00  0.00    +0.000 NA
ENDROOT
BRANCH   1   7
ATOM      7  C   UNL     1      43.425   5.142  11.397  0.00  0.00    +0.000 C 
BRANCH   7   8
ATOM      8  N   UNL     1      43.505   5.077   9.929  0.00  0.00    +0.000 NA
ATOM      9  H   UNL     1      42.691   4.557   9.604  0.00  0.00    +0.000 HD
BRANCH   8  10
ATOM     10  C   UNL     1      44.751   4.492   9.449  0.00  0.00    +0.000 C 
BRANCH  10  12
ATOM     11  C   UNL     1      44.257   2.008   9.878  0.00  0.00    +0.000 C 
ATOM     12  C   UNL     1      44.514   3.094   8.822  0.00  0.00    +0.000 C 
BRANCH  12  13
ATOM     13  C   UNL     1      45.677   2.710   7.918  0.00  0.00    +0.000 A 
ATOM     14  C   UNL     1      46.326   1.479   8.101  0.00  0.00    +0.000 A 
ATOM     15  C   UNL     1      47.377   1.097   7.266  0.00  0.00    +0.000 A 
ATOM     16  C   UNL     1      47.793   1.939   6.236  0.00  0.00    +0.000 A 
ATOM     17  C   UNL     1      47.161   3.166   6.046  0.00  0.00    +0.000 A 
ATOM     18  C   UNL     1      46.112   3.551   6.882  0.00  0.00    +0.000 A 
ENDBRANCH  12  13
ENDBRANCH  10  12
ENDBRANCH   8  10
ENDBRANCH   7   8
ENDBRANCH   1   7
BRANCH   4  19
ATOM     19  C   UNL     1      47.914   7.751  13.849  0.00  0.00    +0.000 C 
BRANCH  19  20
ATOM     20  N   UNL     1      48.645   6.845  14.700  0.00  0.00    +0.000 N 
ATOM     21  C   UNL     1      48.964   7.205  15.987  0.00  0.00    +0.000 C 
ATOM     22  O   UNL     1      48.640   8.297  16.445  0.00  0.00    +0.000 OA
ATOM     23  H   UNL     1      48.688   5.867  14.432  0.00  0.00    +0.000 HD
BRANCH  21  24
ATOM     24  C   UNL     1      49.787   6.263  16.757  0.00  0.00    +0.000 A 
ATOM     25  C   UNL     1      50.996   6.678  17.300  0.00  0.00    +0.000 A 
ATOM     26  S   UNL     1      51.952   5.390  17.885  0.00  0.00    +0.000 S 
ATOM     27  C   UNL     1      50.752   4.250  17.485  0.00  0.00    +0.000 A 
ATOM     28  N   UNL     1      50.967   2.914  17.620  0.00  0.00    +0.000 NA
ATOM     29  C   UNL     1      49.946   2.180  17.325  0.00  0.00    +0.000 A 
ATOM     30  N   UNL     1      48.714   2.662  16.954  0.00  0.00    +0.000 N 
ATOM     31  C   UNL     1      48.450   4.002  16.839  0.00  0.00    +0.000 A 
ATOM     32  O   UNL     1      47.316   4.420  16.613  0.00  0.00    +0.000 OA
ATOM     33  C   UNL     1      49.598   4.862  17.034  0.00  0.00    +0.000 A 
ATOM     34  H   UNL     1      47.934   2.036  16.820  0.00  0.00    +0.000 HD
ENDBRANCH  21  24
ENDBRANCH  19  20
ENDBRANCH   4  19
TORSDOF 8
ENDMDL
MODEL 3
REMARK VINA RESULT:    -7.700      1.911      2.710
REMARK INTER + INTRA:         -12.549
REMARK INTER:                 -11.607
REMARK INTRA:                  -0.943
REMARK UNBOUND:                -1.248
REMARK  Name = 
REMARK  9 active torsions:
REMARK  status: ('A' for Active; 'I' for Inactive)
REMARK    1  A    between atoms: C_1  and  C_2
REMARK    2  A    between atoms: C_2  and  C_3
REMARK    3  A    between atoms: C_2  and  C_26
REMARK    4  A    between atoms: C_3  and  N_4
REMARK    5  A    between atoms: N_4  and  C_5
REMARK    6  A    between atoms: C_5  and  C_6
REMARK    7  A    between atoms: C_9  and  C_10
REMARK    8  A    between atoms: C_10  and  N_11
REMARK    9  A    between atoms: C_12  and  C_14
REMARK                            x       y       z     vdW  Elec       q    Type
REMARK                         _______ _______ _______ _____ _____    ______ ____
ROOT
ATOM      1  C   UNL     1      44.705   5.619  12.349  0.00  0.00    +0.000 A 
ATOM      2  N   UNL     1      45.336   4.639  13.031  0.00  0.00    +0.000 NA
ATOM      3  C   UNL     1      46.496   4.970  13.630  0.00  0.00    +0.000 A 
ATOM      4  C   UNL     1      47.063   6.221  13.562  0.00  0.00    +0.000 A 
ATOM      5  C   UNL     1      46.369   7.135  12.796  0.00  0.00    +0.000 A 
ATOM      6  N   UNL     1      45.188   6.869  12.187  0.00  0.00    +0.000 NA
ENDROOT
BRANCH   1   7
ATOM      7  C   UNL     1      43.370   5.278  11.682  0.00  0.00    +0.000 C 
BRANCH   7   8
ATOM      8  N   UNL     1      43.446   5.259  10.213  0.00  0.00    +0.000 NA
ATOM      9  H   UNL     1      42.605   4.793   9.873  0.00  0.00    +0.000 HD
BRANCH   8  10
ATOM     10  C   UNL     1      44.659   4.626   9.710  0.00  0.00    +0.000 C 
BRANCH  10  12
ATOM     11  C   UNL     1      44.233   2.186  10.392  0.00  0.00    +0.000 C 
ATOM     12  C   UNL     1      44.383   3.178   9.229  0.00  0.00    +0.000 C 
BRANCH  12  13
ATOM     13  C   UNL     1      45.465   2.721   8.261  0.00  0.00    +0.000 A 
ATOM     14  C   UNL     1      45.950   3.606   7.287  0.00  0.00    +0.000 A 
ATOM     15  C   UNL     1      46.960   3.214   6.407  0.00  0.00    +0.000 A 
ATOM     16  C   UNL     1      47.500   1.933   6.491  0.00  0.00    +0.000 A 
ATOM     17  C   UNL     1      47.026   1.041   7.449  0.00  0.00    +0.000 A 
ATOM     18  C   UNL     1      46.013   1.431   8.328  0.00  0.00    +0.000 A 
ENDBRANCH  12  13
ENDBRANCH  10  12
ENDBRANCH   8  10
ENDBRANCH   7   8
ENDBRANCH   1   7
BRANCH   4  19
ATOM     19  C   UNL     1      48.355   6.530  14.242  0.00  0.00    +0.000 C 
BRANCH  19  20
ATOM     20  N   UNL     1      48.166   6.902  15.622  0.00  0.00    +0.000 N 
ATOM     21  C   UNL     1      48.730   6.153  16.628  0.00  0.00    +0.000 C 
ATOM     22  O   UNL     1      49.402   5.156  16.383  0.00  0.00    +0.000 OA
ATOM     23  H   UNL     1      47.843   7.843  15.825  0.00  0.00    +0.000 HD
BRANCH  21  24
ATOM     24  C   UNL     1      48.414   6.547  18.007  0.00  0.00    +0.000 A 
ATOM     25  C   UNL     1      48.149   5.577  18.965  0.00  0.00    +0.000 A 
ATOM     26  S   UNL     1      47.505   6.214  20.413  0.00  0.00    +0.000 S 
ATOM     27  C   UNL     1      47.620   7.806  19.823  0.00  0.00    +0.000 A 
ATOM     28  N   UNL     1      47.128   8.862  20.525  0.00  0.00    +0.000 NA
ATOM     29  C   UNL     1      47.336  10.011  19.972  0.00  0.00    +0.000 A 
ATOM     30  N   UNL     1      48.034  10.205  18.805  0.00  0.00    +0.000 N 
ATOM     31  C   UNL     1      48.573   9.170  18.086  0.00  0.00    +0.000 A 
ATOM     32  O   UNL     1      49.287   9.367  17.105  0.00  0.00    +0.000 OA
ATOM     33  C   UNL     1      48.257   7.852  18.597  0.00  0.00    +0.000 A 
ATOM     34  H   UNL     1      48.234  11.136  18.472  0.00  0.00    +0.000 HD
ENDBRANCH  21  24
ENDBRANCH  19  20
ENDBRANCH   4  19
TORSDOF 8
ENDMDL
MODEL 4
REMARK VINA RESULT:    -7.696      3.332      4.167
REMARK INTER + INTRA:         -12.543
REMARK INTER:                 -11.289
REMARK INTRA:                  -1.254
REMARK UNBOUND:                -1.248
REMARK  Name = 
REMARK  9 active torsions:
REMARK  status: ('A' for Active; 'I' for Inactive)
REMARK    1  A    between atoms: C_1  and  C_2
REMARK    2  A    between atoms: C_2  and  C_3
REMARK    3  A    between atoms: C_2  and  C_26
REMARK    4  A    between atoms: C_3  and  N_4
REMARK    5  A    between atoms: N_4  and  C_5
REMARK    6  A    between atoms: C_5  and  C_6
REMARK    7  A    between atoms: C_9  and  C_10
REMARK    8  A    between atoms: C_10  and  N_11
REMARK    9  A    between atoms: C_12  and  C_14
REMARK                            x       y       z     vdW  Elec       q    Type
REMARK                         _______ _______ _______ _____ _____    ______ ____
ROOT
ATOM      1  C   UNL     1      47.123   4.449  14.582  0.00  0.00    +0.000 A 
ATOM      2  N   UNL     1      46.898   3.675  15.665  0.00  0.00    +0.000 NA
ATOM      3  C   UNL     1      47.435   4.091  16.828  0.00  0.00    +0.000 A 
ATOM      4  C   UNL     1      48.199   5.228  16.954  0.00  0.00    +0.000 A 
ATOM      5  C   UNL     1      48.415   5.918  15.780  0.00  0.00    +0.000 A 
ATOM      6  N   UNL     1      47.886   5.561  14.585  0.00  0.00    +0.000 NA
ENDROOT
BRANCH   1   7
ATOM      7  C   UNL     1      46.500   4.013  13.253  0.00  0.00    +0.000 C 
BRANCH   7   8
ATOM      8  N   UNL     1      45.043   4.207  13.207  0.00  0.00    +0.000 NA
ATOM      9  H   UNL     1      44.612   3.288  13.306  0.00  0.00    +0.000 HD
BRANCH   8  10
ATOM     10  C   UNL     1      44.594   4.891  12.000  0.00  0.00    +0.000 C 
BRANCH  10  12
ATOM     11  C   UNL     1      43.355   2.654  11.760  0.00  0.00    +0.000 C 
ATOM     12  C   UNL     1      43.844   3.924  11.049  0.00  0.00    +0.000 C 
BRANCH  12  13
ATOM     13  C   UNL     1      44.712   3.575   9.848  0.00  0.00    +0.000 A 
ATOM     14  C   UNL     1      44.897   2.233   9.486  0.00  0.00    +0.000 A 
ATOM     15  C   UNL     1      45.668   1.894   8.373  0.00  0.00    +0.000 A 
ATOM     16  C   UNL     1      46.264   2.893   7.606  0.00  0.00    +0.000 A 
ATOM     17  C   UNL     1      46.093   4.231   7.955  0.00  0.00    +0.000 A 
ATOM     18  C   UNL     1      45.325   4.571   9.071  0.00  0.00    +0.000 A 
ENDBRANCH  12  13
ENDBRANCH  10  12
ENDBRANCH   8  10
ENDBRANCH   7   8
ENDBRANCH   1   7
BRANCH   4  19
ATOM     19  C   UNL     1      48.774   5.638  18.269  0.00  0.00    +0.000 C 
BRANCH  19  20
ATOM     20  N   UNL     1      49.828   4.755  18.700  0.00  0.00    +0.000 N 
ATOM     21  C   UNL     1      51.131   4.997  18.336  0.00  0.00    +0.000 C 
ATOM     22  O   UNL     1      51.432   5.962  17.640  0.00  0.00    +0.000 OA
ATOM     23  H   UNL     1      49.637   4.121  19.470  0.00  0.00    +0.000 HD
BRANCH  21  24
ATOM     24  C   UNL     1      52.131   4.000  18.740  0.00  0.00    +0.000 A 
ATOM     25  C   UNL     1      53.113   4.333  19.665  0.00  0.00    +0.000 A 
ATOM     26  S   UNL     1      54.357   3.169  19.779  0.00  0.00    +0.000 S 
ATOM     27  C   UNL     1      53.587   2.161  18.643  0.00  0.00    +0.000 A 
ATOM     28  N   UNL     1      54.178   1.024  18.187  0.00  0.00    +0.000 NA
ATOM     29  C   UNL     1      53.450   0.339  17.368  0.00  0.00    +0.000 A 
ATOM     30  N   UNL     1      52.166   0.662  17.003  0.00  0.00    +0.000 N 
ATOM     31  C   UNL     1      51.525   1.782  17.467  0.00  0.00    +0.000 A 
ATOM     32  O   UNL     1      50.341   1.999  17.218  0.00  0.00    +0.000 OA
ATOM     33  C   UNL     1      52.345   2.649  18.286  0.00  0.00    +0.000 A 
ATOM     34  H   UNL     1      51.621   0.039  16.426  0.00  0.00    +0.000 HD
ENDBRANCH  21  24
ENDBRANCH  19  20
ENDBRANCH   4  19
TORSDOF 8
ENDMDL
MODEL 5
REMARK VINA RESULT:    -7.293      3.458      8.606
REMARK INTER + INTRA:         -11.952
REMARK INTER:                 -10.743
REMARK INTRA:                  -1.209
REMARK UNBOUND:                -1.248
REMARK  Name = 
REMARK  9 active torsions:
REMARK  status: ('A' for Active; 'I' for Inactive)
REMARK    1  A    between atoms: C_1  and  C_2
REMARK    2  A    between atoms: C_2  and  C_3
REMARK    3  A    between atoms: C_2  and  C_26
REMARK    4  A    between atoms: C_3  and  N_4
REMARK    5  A    between atoms: N_4  and  C_5
REMARK    6  A    between atoms: C_5  and  C_6
REMARK    7  A    between atoms: C_9  and  C_10
REMARK    8  A    between atoms: C_10  and  N_11
REMARK    9  A    between atoms: C_12  and  C_14
REMARK                            x       y       z     vdW  Elec       q    Type
REMARK                         _______ _______ _______ _____ _____    ______ ____
ROOT
ATOM      1  C   UNL     1      48.749   7.410  16.154  0.00  0.00    +0.000 A 
ATOM      2  N   UNL     1      48.911   6.396  15.277  0.00  0.00    +0.000 NA
ATOM      3  C   UNL     1      48.695   6.680  13.978  0.00  0.00    +0.000 A 
ATOM      4  C   UNL     1      48.307   7.917  13.520  0.00  0.00    +0.000 A 
ATOM      5  C   UNL     1      48.116   8.868  14.500  0.00  0.00    +0.000 A 
ATOM      6  N   UNL     1      48.336   8.650  15.819  0.00  0.00    +0.000 NA
ENDROOT
BRANCH   1   7
ATOM      7  C   UNL     1      49.016   7.121  17.634  0.00  0.00    +0.000 C 
BRANCH   7   8
ATOM      8  N   UNL     1      47.951   6.331  18.269  0.00  0.00    +0.000 NA
ATOM      9  H   UNL     1      47.553   6.903  19.014  0.00  0.00    +0.000 HD
BRANCH   8  10
ATOM     10  C   UNL     1      48.414   5.040  18.764  0.00  0.00    +0.000 C 
BRANCH  10  12
ATOM     11  C   UNL     1      47.495   2.982  17.531  0.00  0.00    +0.000 C 
ATOM     12  C   UNL     1      48.615   4.030  17.605  0.00  0.00    +0.000 C 
BRANCH  12  13
ATOM     13  C   UNL     1      49.979   3.361  17.710  0.00  0.00    +0.000 A 
ATOM     14  C   UNL     1      50.146   2.041  17.266  0.00  0.00    +0.000 A 
ATOM     15  C   UNL     1      51.394   1.420  17.329  0.00  0.00    +0.000 A 
ATOM     16  C   UNL     1      52.493   2.111  17.835  0.00  0.00    +0.000 A 
ATOM     17  C   UNL     1      52.342   3.420  18.284  0.00  0.00    +0.000 A 
ATOM     18  C   UNL     1      51.093   4.042  18.224  0.00  0.00    +0.000 A 
ENDBRANCH  12  13
ENDBRANCH  10  12
ENDBRANCH   8  10
ENDBRANCH   7   8
ENDBRANCH   1   7
BRANCH   4  19
ATOM     19  C   UNL     1      48.077   8.174  12.068  0.00  0.00    +0.000 C 
BRANCH  19  20
ATOM     20  N   UNL     1      47.521   7.026  11.396  0.00  0.00    +0.000 N 
ATOM     21  C   UNL     1      46.161   6.837  11.350  0.00  0.00    +0.000 C 
ATOM     22  O   UNL     1      45.387   7.633  11.875  0.00  0.00    +0.000 OA
ATOM     23  H   UNL     1      48.115   6.515  10.750  0.00  0.00    +0.000 HD
BRANCH  21  24
ATOM     24  C   UNL     1      45.681   5.598  10.726  0.00  0.00    +0.000 A 
ATOM     25  C   UNL     1      45.765   5.433   9.349  0.00  0.00    +0.000 A 
ATOM     26  S   UNL     1      44.889   4.085   8.774  0.00  0.00    +0.000 S 
ATOM     27  C   UNL     1      44.426   3.649  10.353  0.00  0.00    +0.000 A 
ATOM     28  N   UNL     1      43.558   2.627  10.583  0.00  0.00    +0.000 NA
ATOM     29  C   UNL     1      43.344   2.383  11.834  0.00  0.00    +0.000 A 
ATOM     30  N   UNL     1      43.956   3.036  12.875  0.00  0.00    +0.000 N 
ATOM     31  C   UNL     1      44.860   4.049  12.684  0.00  0.00    +0.000 A 
ATOM     32  O   UNL     1      45.480   4.548  13.621  0.00  0.00    +0.000 OA
ATOM     33  C   UNL     1      45.037   4.445  11.303  0.00  0.00    +0.000 A 
ATOM     34  H   UNL     1      43.808   2.740  13.828  0.00  0.00    +0.000 HD
ENDBRANCH  21  24
ENDBRANCH  19  20
ENDBRANCH   4  19
TORSDOF 8
ENDMDL
MODEL 6
REMARK VINA RESULT:    -7.141      5.398      7.356
REMARK INTER + INTRA:         -11.730
REMARK INTER:                 -10.687
REMARK INTRA:                  -1.043
REMARK UNBOUND:                -1.248
REMARK  Name = 
REMARK  9 active torsions:
REMARK  status: ('A' for Active; 'I' for Inactive)
REMARK    1  A    between atoms: C_1  and  C_2
REMARK    2  A    between atoms: C_2  and  C_3
REMARK    3  A    between atoms: C_2  and  C_26
REMARK    4  A    between atoms: C_3  and  N_4
REMARK    5  A    between atoms: N_4  and  C_5
REMARK    6  A    between atoms: C_5  and  C_6
REMARK    7  A    between atoms: C_9  and  C_10
REMARK    8  A    between atoms: C_10  and  N_11
REMARK    9  A    between atoms: C_12  and  C_14
REMARK                            x       y       z     vdW  Elec       q    Type
REMARK                         _______ _______ _______ _____ _____    ______ ____
ROOT
ATOM      1  C   UNL     1      46.679   6.806  12.668  0.00  0.00    +0.000 A 
ATOM      2  N   UNL     1      47.704   6.017  13.057  0.00  0.00    +0.000 NA
ATOM      3  C   UNL     1      48.945   6.510  12.885  0.00  0.00    +0.000 A 
ATOM      4  C   UNL     1      49.210   7.739  12.326  0.00  0.00    +0.000 A 
ATOM      5  C   UNL     1      48.099   8.442  11.912  0.00  0.00    +0.000 A 
ATOM      6  N   UNL     1      46.825   8.009  12.076  0.00  0.00    +0.000 NA
ENDROOT
BRANCH   1   7
ATOM      7  C   UNL     1      45.257   6.281  12.879  0.00  0.00    +0.000 C 
BRANCH   7   8
ATOM      8  N   UNL     1      44.983   5.040  12.139  0.00  0.00    +0.000 NA
ATOM      9  H   UNL     1      45.711   4.371  12.390  0.00  0.00    +0.000 HD
BRANCH   8  10
ATOM     10  C   UNL     1      44.901   5.239  10.698  0.00  0.00    +0.000 C 
BRANCH  10  12
ATOM     11  C   UNL     1      43.725   2.974  10.991  0.00  0.00    +0.000 C 
ATOM     12  C   UNL     1      44.240   4.025   9.996  0.00  0.00    +0.000 C 
BRANCH  12  13
ATOM     13  C   UNL     1      45.200   3.400   8.993  0.00  0.00    +0.000 A 
ATOM     14  C   UNL     1      45.402   2.011   8.991  0.00  0.00    +0.000 A 
ATOM     15  C   UNL     1      46.257   1.417   8.063  0.00  0.00    +0.000 A 
ATOM     16  C   UNL     1      46.921   2.202   7.123  0.00  0.00    +0.000 A 
ATOM     17  C   UNL     1      46.735   3.582   7.115  0.00  0.00    +0.000 A 
ATOM     18  C   UNL     1      45.882   4.178   8.046  0.00  0.00    +0.000 A 
ENDBRANCH  12  13
ENDBRANCH  10  12
ENDBRANCH   8  10
ENDBRANCH   7   8
ENDBRANCH   1   7
BRANCH   4  19
ATOM     19  C   UNL     1      50.608   8.232  12.155  0.00  0.00    +0.000 C 
BRANCH  19  20
ATOM     20  N   UNL     1      51.120   7.963  10.834  0.00  0.00    +0.000 N 
ATOM     21  C   UNL     1      52.447   8.177  10.545  0.00  0.00    +0.000 C 
ATOM     22  O   UNL     1      53.226   8.600  11.394  0.00  0.00    +0.000 OA
ATOM     23  H   UNL     1      50.565   7.382  10.214  0.00  0.00    +0.000 HD
BRANCH  21  24
ATOM     24  C   UNL     1      52.867   7.965   9.154  0.00  0.00    +0.000 A 
ATOM     25  C   UNL     1      52.790   9.005   8.237  0.00  0.00    +0.000 A 
ATOM     26  S   UNL     1      53.020   8.501   6.622  0.00  0.00    +0.000 S 
ATOM     27  C   UNL     1      53.291   6.892   7.109  0.00  0.00    +0.000 A 
ATOM     28  N   UNL     1      53.446   5.891   6.202  0.00  0.00    +0.000 NA
ATOM     29  C   UNL     1      53.695   4.736   6.723  0.00  0.00    +0.000 A 
ATOM     30  N   UNL     1      53.851   4.500   8.067  0.00  0.00    +0.000 N 
ATOM     31  C   UNL     1      53.736   5.488   9.010  0.00  0.00    +0.000 A 
ATOM     32  O   UNL     1      53.986   5.283  10.196  0.00  0.00    +0.000 OA
ATOM     33  C   UNL     1      53.331   6.776   8.486  0.00  0.00    +0.000 A 
ATOM     34  H   UNL     1      54.129   3.589   8.402  0.00  0.00    +0.000 HD
ENDBRANCH  21  24
ENDBRANCH  19  20
ENDBRANCH   4  19
TORSDOF 8
ENDMDL
MODEL 7
REMARK VINA RESULT:    -7.135      3.419      9.035
REMARK INTER + INTRA:         -11.720
REMARK INTER:                 -10.282
REMARK INTRA:                  -1.437
REMARK UNBOUND:                -1.248
REMARK  Name = 
REMARK  9 active torsions:
REMARK  status: ('A' for Active; 'I' for Inactive)
REMARK    1  A    between atoms: C_1  and  C_2
REMARK    2  A    between atoms: C_2  and  C_3
REMARK    3  A    between atoms: C_2  and  C_26
REMARK    4  A    between atoms: C_3  and  N_4
REMARK    5  A    between atoms: N_4  and  C_5
REMARK    6  A    between atoms: C_5  and  C_6
REMARK    7  A    between atoms: C_9  and  C_10
REMARK    8  A    between atoms: C_10  and  N_11
REMARK    9  A    between atoms: C_12  and  C_14
REMARK                            x       y       z     vdW  Elec       q    Type
REMARK                         _______ _______ _______ _____ _____    ______ ____
ROOT
ATOM      1  C   UNL     1      50.455   7.156  15.468  0.00  0.00    +0.000 A 
ATOM      2  N   UNL     1      50.978   7.946  14.505  0.00  0.00    +0.000 NA
ATOM      3  C   UNL     1      50.263   8.070  13.371  0.00  0.00    +0.000 A 
ATOM      4  C   UNL     1      49.067   7.430  13.146  0.00  0.00    +0.000 A 
ATOM      5  C   UNL     1      48.647   6.605  14.168  0.00  0.00    +0.000 A 
ATOM      6  N   UNL     1      49.310   6.454  15.340  0.00  0.00    +0.000 NA
ENDROOT
BRANCH   1   7
ATOM      7  C   UNL     1      51.233   7.020  16.779  0.00  0.00    +0.000 C 
BRANCH   7   8
ATOM      8  N   UNL     1      51.835   5.690  16.958  0.00  0.00    +0.000 NA
ATOM      9  H   UNL     1      51.304   5.037  16.381  0.00  0.00    +0.000 HD
BRANCH   8  10
ATOM     10  C   UNL     1      51.884   5.266  18.352  0.00  0.00    +0.000 C 
BRANCH  10  12
ATOM     11  C   UNL     1      52.012   2.748  17.861  0.00  0.00    +0.000 C 
ATOM     12  C   UNL     1      51.225   3.876  18.545  0.00  0.00    +0.000 C 
BRANCH  12  13
ATOM     13  C   UNL     1      49.780   3.899  18.066  0.00  0.00    +0.000 A 
ATOM     14  C   UNL     1      49.348   2.972  17.106  0.00  0.00    +0.000 A 
ATOM     15  C   UNL     1      48.021   2.960  16.674  0.00  0.00    +0.000 A 
ATOM     16  C   UNL     1      47.108   3.873  17.198  0.00  0.00    +0.000 A 
ATOM     17  C   UNL     1      47.523   4.802  18.149  0.00  0.00    +0.000 A 
ATOM     18  C   UNL     1      48.851   4.817  18.579  0.00  0.00    +0.000 A 
ENDBRANCH  12  13
ENDBRANCH  10  12
ENDBRANCH   8  10
ENDBRANCH   7   8
ENDBRANCH   1   7
BRANCH   4  19
ATOM     19  C   UNL     1      48.320   7.601  11.865  0.00  0.00    +0.000 C 
BRANCH  19  20
ATOM     20  N   UNL     1      47.283   6.613  11.706  0.00  0.00    +0.000 N 
ATOM     21  C   UNL     1      45.961   6.989  11.681  0.00  0.00    +0.000 C 
ATOM     22  O   UNL     1      45.629   8.165  11.794  0.00  0.00    +0.000 OA
ATOM     23  H   UNL     1      47.545   5.696  11.358  0.00  0.00    +0.000 HD
BRANCH  21  24
ATOM     24  C   UNL     1      44.965   5.913  11.607  0.00  0.00    +0.000 A 
ATOM     25  C   UNL     1      44.009   5.777  12.606  0.00  0.00    +0.000 A 
ATOM     26  S   UNL     1      43.144   4.308  12.520  0.00  0.00    +0.000 S 
ATOM     27  C   UNL     1      43.977   3.841  11.111  0.00  0.00    +0.000 A 
ATOM     28  N   UNL     1      43.800   2.613  10.555  0.00  0.00    +0.000 NA
ATOM     29  C   UNL     1      44.462   2.424   9.462  0.00  0.00    +0.000 A 
ATOM     30  N   UNL     1      45.247   3.370   8.848  0.00  0.00    +0.000 N 
ATOM     31  C   UNL     1      45.423   4.629   9.359  0.00  0.00    +0.000 A 
ATOM     32  O   UNL     1      46.038   5.497   8.743  0.00  0.00    +0.000 OA
ATOM     33  C   UNL     1      44.805   4.847  10.650  0.00  0.00    +0.000 A 
ATOM     34  H   UNL     1      45.669   3.186   7.950  0.00  0.00    +0.000 HD
ENDBRANCH  21  24
ENDBRANCH  19  20
ENDBRANCH   4  19
TORSDOF 8
ENDMDL
MODEL 8
REMARK VINA RESULT:    -7.112      3.592      8.782
REMARK INTER + INTRA:         -11.686
REMARK INTER:                 -10.250
REMARK INTRA:                  -1.436
REMARK UNBOUND:                -1.248
REMARK  Name = 
REMARK  9 active torsions:
REMARK  status: ('A' for Active; 'I' for Inactive)
REMARK    1  A    between atoms: C_1  and  C_2
REMARK    2  A    between atoms: C_2  and  C_3
REMARK    3  A    between atoms: C_2  and  C_26
REMARK    4  A    between atoms: C_3  and  N_4
REMARK    5  A    between atoms: N_4  and  C_5
REMARK    6  A    between atoms: C_5  and  C_6
REMARK    7  A    between atoms: C_9  and  C_10
REMARK    8  A    between atoms: C_10  and  N_11
REMARK    9  A    between atoms: C_12  and  C_14
REMARK                            x       y       z     vdW  Elec       q    Type
REMARK                         _______ _______ _______ _____ _____    ______ ____
ROOT
ATOM      1  C   UNL     1      50.792   7.353  15.311  0.00  0.00    +0.000 A 
ATOM      2  N   UNL     1      51.105   8.346  14.451  0.00  0.00    +0.000 NA
ATOM      3  C   UNL     1      50.171   8.671  13.538  0.00  0.00    +0.000 A 
ATOM      4  C   UNL     1      48.953   8.041  13.431  0.00  0.00    +0.000 A 
ATOM      5  C   UNL     1      48.752   7.006  14.319  0.00  0.00    +0.000 A 
ATOM      6  N   UNL     1      49.645   6.644  15.273  0.00  0.00    +0.000 NA
ENDROOT
BRANCH   1   7
ATOM      7  C   UNL     1      51.825   6.982  16.378  0.00  0.00    +0.000 C 
BRANCH   7   8
ATOM      8  N   UNL     1      51.846   5.544  16.687  0.00  0.00    +0.000 NA
ATOM      9  H   UNL     1      51.034   5.125  16.234  0.00  0.00    +0.000 HD
BRANCH   8  10
ATOM     10  C   UNL     1      51.873   5.266  18.118  0.00  0.00    +0.000 C 
BRANCH  10  12
ATOM     11  C   UNL     1      52.017   2.713  17.877  0.00  0.00    +0.000 C 
ATOM     12  C   UNL     1      51.219   3.898  18.440  0.00  0.00    +0.000 C 
BRANCH  12  13
ATOM     13  C   UNL     1      49.778   3.865  17.951  0.00  0.00    +0.000 A 
ATOM     14  C   UNL     1      48.883   4.871  18.345  0.00  0.00    +0.000 A 
ATOM     15  C   UNL     1      47.565   4.873  17.886  0.00  0.00    +0.000 A 
ATOM     16  C   UNL     1      47.125   3.870  17.025  0.00  0.00    +0.000 A 
ATOM     17  C   UNL     1      48.000   2.862  16.629  0.00  0.00    +0.000 A 
ATOM     18  C   UNL     1      49.318   2.857  17.090  0.00  0.00    +0.000 A 
ENDBRANCH  12  13
ENDBRANCH  10  12
ENDBRANCH   8  10
ENDBRANCH   7   8
ENDBRANCH   1   7
BRANCH   4  19
ATOM     19  C   UNL     1      47.957   8.441  12.394  0.00  0.00    +0.000 C 
BRANCH  19  20
ATOM     20  N   UNL     1      47.452   7.307  11.661  0.00  0.00    +0.000 N 
ATOM     21  C   UNL     1      46.129   6.947  11.761  0.00  0.00    +0.000 C 
ATOM     22  O   UNL     1      45.348   7.573  12.471  0.00  0.00    +0.000 OA
ATOM     23  H   UNL     1      48.007   6.951  10.889  0.00  0.00    +0.000 HD
BRANCH  21  24
ATOM     24  C   UNL     1      45.717   5.728  11.054  0.00  0.00    +0.000 A 
ATOM     25  C   UNL     1      45.919   5.614   9.684  0.00  0.00    +0.000 A 
ATOM     26  S   UNL     1      45.108   4.283   8.989  0.00  0.00    +0.000 S 
ATOM     27  C   UNL     1      44.516   3.786  10.506  0.00  0.00    +0.000 A 
ATOM     28  N   UNL     1      43.642   2.751  10.624  0.00  0.00    +0.000 NA
ATOM     29  C   UNL     1      43.324   2.460  11.842  0.00  0.00    +0.000 A 
ATOM     30  N   UNL     1      43.839   3.079  12.955  0.00  0.00    +0.000 N 
ATOM     31  C   UNL     1      44.746   4.103  12.878  0.00  0.00    +0.000 A 
ATOM     32  O   UNL     1      45.279   4.572  13.882  0.00  0.00    +0.000 OA
ATOM     33  C   UNL     1      45.037   4.551  11.532  0.00  0.00    +0.000 A 
ATOM     34  H   UNL     1      43.613   2.746  13.880  0.00  0.00    +0.000 HD
ENDBRANCH  21  24
ENDBRANCH  19  20
ENDBRANCH   4  19
TORSDOF 8
ENDMDL
MODEL 9
REMARK VINA RESULT:    -7.007      2.835      3.791
REMARK INTER + INTRA:         -11.533
REMARK INTER:                 -10.526
REMARK INTRA:                  -1.007
REMARK UNBOUND:                -1.248
REMARK  Name = 
REMARK  9 active torsions:
REMARK  status: ('A' for Active; 'I' for Inactive)
REMARK    1  A    between atoms: C_1  and  C_2
REMARK    2  A    between atoms: C_2  and  C_3
REMARK    3  A    between atoms: C_2  and  C_26
REMARK    4  A    between atoms: C_3  and  N_4
REMARK    5  A    between atoms: N_4  and  C_5
REMARK    6  A    between atoms: C_5  and  C_6
REMARK    7  A    between atoms: C_9  and  C_10
REMARK    8  A    between atoms: C_10  and  N_11
REMARK    9  A    between atoms: C_12  and  C_14
REMARK                            x       y       z     vdW  Elec       q    Type
REMARK                         _______ _______ _______ _____ _____    ______ ____
ROOT
ATOM      1  C   UNL     1      47.810   6.675  12.840  0.00  0.00    +0.000 A 
ATOM      2  N   UNL     1      48.849   7.423  12.411  0.00  0.00    +0.000 NA
ATOM      3  C   UNL     1      49.801   7.711  13.319  0.00  0.00    +0.000 A 
ATOM      4  C   UNL     1      49.754   7.307  14.633  0.00  0.00    +0.000 A 
ATOM      5  C   UNL     1      48.625   6.596  14.983  0.00  0.00    +0.000 A 
ATOM      6  N   UNL     1      47.643   6.258  14.112  0.00  0.00    +0.000 NA
ENDROOT
BRANCH   1   7
ATOM      7  C   UNL     1      46.727   6.309  11.821  0.00  0.00    +0.000 C 
BRANCH   7   8
ATOM      8  N   UNL     1      45.553   5.667  12.431  0.00  0.00    +0.000 NA
ATOM      9  H   UNL     1      45.614   5.818  13.438  0.00  0.00    +0.000 HD
BRANCH   8  10
ATOM     10  C   UNL     1      45.437   4.252  12.100  0.00  0.00    +0.000 C 
BRANCH  10  12
ATOM     11  C   UNL     1      43.266   3.059  11.423  0.00  0.00    +0.000 C 
ATOM     12  C   UNL     1      44.385   4.016  10.987  0.00  0.00    +0.000 C 
BRANCH  12  13
ATOM     13  C   UNL     1      45.056   3.524   9.712  0.00  0.00    +0.000 A 
ATOM     14  C   UNL     1      45.550   4.450   8.781  0.00  0.00    +0.000 A 
ATOM     15  C   UNL     1      46.192   4.018   7.619  0.00  0.00    +0.000 A 
ATOM     16  C   UNL     1      46.350   2.656   7.374  0.00  0.00    +0.000 A 
ATOM     17  C   UNL     1      45.861   1.725   8.287  0.00  0.00    +0.000 A 
ATOM     18  C   UNL     1      45.216   2.155   9.448  0.00  0.00    +0.000 A 
ENDBRANCH  12  13
ENDBRANCH  10  12
ENDBRANCH   8  10
ENDBRANCH   7   8
ENDBRANCH   1   7
BRANCH   4  19
ATOM     19  C   UNL     1      50.836   7.661  15.597  0.00  0.00    +0.000 C 
BRANCH  19  20
ATOM     20  N   UNL     1      51.393   6.496  16.238  0.00  0.00    +0.000 N 
ATOM     21  C   UNL     1      51.024   6.164  17.520  0.00  0.00    +0.000 C 
ATOM     22  O   UNL     1      50.219   6.843  18.149  0.00  0.00    +0.000 OA
ATOM     23  H   UNL     1      51.845   5.798  15.655  0.00  0.00    +0.000 HD
BRANCH  21  24
ATOM     24  C   UNL     1      51.706   5.016  18.132  0.00  0.00    +0.000 A 
ATOM     25  C   UNL     1      52.763   5.220  19.010  0.00  0.00    +0.000 A 
ATOM     26  S   UNL     1      53.624   3.792  19.375  0.00  0.00    +0.000 S 
ATOM     27  C   UNL     1      52.572   2.853  18.421  0.00  0.00    +0.000 A 
ATOM     28  N   UNL     1      52.801   1.530  18.201  0.00  0.00    +0.000 NA
ATOM     29  C   UNL     1      51.889   0.942  17.500  0.00  0.00    +0.000 A 
ATOM     30  N   UNL     1      50.743   1.545  17.041  0.00  0.00    +0.000 N 
ATOM     31  C   UNL     1      50.460   2.867  17.271  0.00  0.00    +0.000 A 
ATOM     32  O   UNL     1      49.383   3.363  16.949  0.00  0.00    +0.000 OA
ATOM     33  C   UNL     1      51.513   3.601  17.942  0.00  0.00    +0.000 A 
ATOM     34  H   UNL     1      50.030   1.008  16.572  0.00  0.00    +0.000 HD
ENDBRANCH  21  24
ENDBRANCH  19  20
ENDBRANCH   4  19
TORSDOF 8
ENDMDL
