MODEL 1
REMARK VINA RESULT:    -8.303      0.000      0.000
REMARK INTER + INTRA:         -12.809
REMARK INTER:                 -11.701
REMARK INTRA:                  -1.108
REMARK UNBOUND:                -1.108
REMARK  Name = 
REMARK  7 active torsions:
REMARK  status: ('A' for Active; 'I' for Inactive)
REMARK    1  A    between atoms: C_2  and  C_3
REMARK    2  A    between atoms: C_6  and  N_7
REMARK    3  A    between atoms: N_7  and  C_8
REMARK    4  A    between atoms: C_8  and  C_9
REMARK    5  A    between atoms: C_13  and  C_14
REMARK    6  A    between atoms: C_18  and  O_19
REMARK    7  A    between atoms: O_19  and  C_20
REMARK                            x       y       z     vdW  Elec       q    Type
REMARK                         _______ _______ _______ _____ _____    ______ ____
ROOT
ATOM      1  C   UNL     1      45.153   5.257  11.802  0.00  0.00    +0.000 A 
ATOM      2  C   UNL     1      45.424   4.374  12.858  0.00  0.00    +0.000 A 
ATOM      3  C   UNL     1      46.584   4.503  13.620  0.00  0.00    +0.000 A 
ATOM      4  C   UNL     1      47.485   5.535  13.351  0.00  0.00    +0.000 A 
ATOM      5  C   UNL     1      47.261   6.443  12.305  0.00  0.00    +0.000 A 
ATOM      6  C   UNL     1      46.113   6.246  11.517  0.00  0.00    +0.000 A 
ENDROOT
BRANCH   5   7
ATOM      7  C   UNL     1      48.118   7.632  12.100  0.00  0.00    +0.000 A 
ATOM      8  C   UNL     1      47.570   8.925  12.189  0.00  0.00    +0.000 A 
ATOM      9  C   UNL     1      48.341  10.061  11.946  0.00  0.00    +0.000 A 
ATOM     10  C   UNL     1      49.677   9.925  11.588  0.00  0.00    +0.000 A 
ATOM     11  C   UNL     1      50.245   8.660  11.454  0.00  0.00    +0.000 A 
ATOM     12  C   UNL     1      49.477   7.523  11.734  0.00  0.00    +0.000 A 
BRANCH  11  13
ATOM     13  O   UNL     1      51.559   8.660  11.080  0.00  0.00    +0.000 OA
BRANCH  13  14
ATOM     14  C   UNL     1      51.999   7.532  10.341  0.00  0.00    +0.000 C 
ATOM     15  F   UNL     1      52.277   7.904   9.066  0.00  0.00    +0.000 F 
ATOM     16  F   UNL     1      53.173   7.125  10.890  0.00  0.00    +0.000 F 
ENDBRANCH  13  14
ENDBRANCH  11  13
ENDBRANCH   5   7
BRANCH   1  17
ATOM     17  C   UNL     1      43.830   5.232  11.042  0.00  0.00    +0.000 C 
ATOM     18  C   UNL     1      42.542   5.292  11.859  0.00  0.00    +0.000 C 
ATOM     19  C   UNL     1      42.999   6.500  11.116  0.00  0.00    +0.000 C 
BRANCH  17  20
ATOM     20  N   UNL     1      43.780   4.240   9.960  0.00  0.00    +0.000 N 
ATOM     21  H   UNL     1      43.133   3.462  10.140  0.00  0.00    +0.000 HD
BRANCH  20  25
ATOM     22  C   UNL     1      46.725   2.760   7.475  0.00  0.00    +0.000 A 
ATOM     23  N   UNL     1      46.614   4.107   7.539  0.00  0.00    +0.000 NA
ATOM     24  C   UNL     1      45.672   4.591   8.386  0.00  0.00    +0.000 A 
ATOM     25  C   UNL     1      44.858   3.806   9.173  0.00  0.00    +0.000 A 
ATOM     26  C   UNL     1      45.101   2.444   9.008  0.00  0.00    +0.000 A 
ATOM     27  F   UNL     1      44.356   1.592   9.735  0.00  0.00    +0.000 F 
ATOM     28  N   UNL     1      46.013   1.886   8.192  0.00  0.00    +0.000 NA
BRANCH  22  30
ATOM     29  N   UNL     1      48.379   1.746   5.738  0.00  0.00    +0.000 NA
ATOM     30  C   UNL     1      47.650   2.208   6.516  0.00  0.00    +0.000 C 
ENDBRANCH  22  30
ENDBRANCH  20  25
ENDBRANCH  17  20
ENDBRANCH   1  17
TORSDOF 7
ENDMDL
MODEL 2
REMARK VINA RESULT:    -8.114      4.068      7.244
REMARK INTER + INTRA:         -12.542
REMARK INTER:                 -11.025
REMARK INTRA:                  -1.517
REMARK UNBOUND:                -1.108
REMARK  Name = 
REMARK  7 active torsions:
REMARK  status: ('A' for Active; 'I' for Inactive)
REMARK    1  A    between atoms: C_2  and  C_3
REMARK    2  A    between atoms: C_6  and  N_7
REMARK    3  A    between atoms: N_7  and  C_8
REMARK    4  A    between atoms: C_8  and  C_9
REMARK    5  A    between atoms: C_13  and  C_14
REMARK    6  A    between atoms: C_18  and  O_19
REMARK    7  A    between atoms: O_19  and  C_20
REMARK                            x       y       z     vdW  Elec       q    Type
REMARK                         _______ _______ _______ _____ _____    ______ ____
ROOT
ATOM      1  C   UNL     1      45.372   6.599  11.893  0.00  0.00    +0.000 A 
ATOM      2  C   UNL     1      44.038   6.725  12.308  0.00  0.00    +0.000 A 
ATOM      3  C   UNL     1      43.029   5.965  11.718  0.00  0.00    +0.000 A 
ATOM      4  C   UNL     1      43.343   5.048  10.713  0.00  0.00    +0.000 A 
ATOM      5  C   UNL     1      44.662   4.885  10.262  0.00  0.00    +0.000 A 
ATOM      6  C   UNL     1      45.644   5.711  10.835  0.00  0.00    +0.000 A 
ENDROOT
BRANCH   5   7
ATOM      7  C   UNL     1      45.041   3.814   9.313  0.00  0.00    +0.000 A 
ATOM      8  C   UNL     1      44.832   2.464   9.649  0.00  0.00    +0.000 A 
ATOM      9  C   UNL     1      45.230   1.432   8.799  0.00  0.00    +0.000 A 
ATOM     10  C   UNL     1      45.865   1.732   7.600  0.00  0.00    +0.000 A 
ATOM     11  C   UNL     1      46.121   3.056   7.250  0.00  0.00    +0.000 A 
ATOM     12  C   UNL     1      45.688   4.090   8.089  0.00  0.00    +0.000 A 
BRANCH  11  13
ATOM     13  O   UNL     1      46.767   3.217   6.057  0.00  0.00    +0.000 OA
BRANCH  13  14
ATOM     14  C   UNL     1      47.765   2.256   5.752  0.00  0.00    +0.000 C 
ATOM     15  F   UNL     1      48.237   2.472   4.499  0.00  0.00    +0.000 F 
ATOM     16  F   UNL     1      48.803   2.472   6.599  0.00  0.00    +0.000 F 
ENDBRANCH  13  14
ENDBRANCH  11  13
ENDBRANCH   5   7
BRANCH   1  17
ATOM     17  C   UNL     1      46.516   7.307  12.612  0.00  0.00    +0.000 C 
ATOM     18  C   UNL     1      47.044   8.603  12.002  0.00  0.00    +0.000 C 
ATOM     19  C   UNL     1      46.183   8.659  13.217  0.00  0.00    +0.000 C 
BRANCH  17  20
ATOM     20  N   UNL     1      47.586   6.408  13.067  0.00  0.00    +0.000 N 
ATOM     21  H   UNL     1      47.908   5.751  12.346  0.00  0.00    +0.000 HD
BRANCH  20  25
ATOM     22  C   UNL     1      48.037   4.423  16.658  0.00  0.00    +0.000 A 
ATOM     23  N   UNL     1      48.733   5.574  16.516  0.00  0.00    +0.000 NA
ATOM     24  C   UNL     1      48.552   6.245  15.351  0.00  0.00    +0.000 A 
ATOM     25  C   UNL     1      47.709   5.835  14.342  0.00  0.00    +0.000 A 
ATOM     26  C   UNL     1      47.052   4.643  14.641  0.00  0.00    +0.000 A 
ATOM     27  F   UNL     1      46.203   4.158  13.716  0.00  0.00    +0.000 F 
ATOM     28  N   UNL     1      47.175   3.921  15.768  0.00  0.00    +0.000 NA
BRANCH  22  30
ATOM     29  N   UNL     1      48.462   3.022  18.810  0.00  0.00    +0.000 NA
ATOM     30  C   UNL     1      48.275   3.636  17.842  0.00  0.00    +0.000 C 
ENDBRANCH  22  30
ENDBRANCH  20  25
ENDBRANCH  17  20
ENDBRANCH   1  17
TORSDOF 7
ENDMDL
MODEL 3
REMARK VINA RESULT:    -7.386      4.415      7.657
REMARK INTER + INTRA:         -11.517
REMARK INTER:                  -9.916
REMARK INTRA:                  -1.601
REMARK UNBOUND:                -1.108
REMARK  Name = 
REMARK  7 active torsions:
REMARK  status: ('A' for Active; 'I' for Inactive)
REMARK    1  A    between atoms: C_2  and  C_3
REMARK    2  A    between atoms: C_6  and  N_7
REMARK    3  A    between atoms: N_7  and  C_8
REMARK    4  A    between atoms: C_8  and  C_9
REMARK    5  A    between atoms: C_13  and  C_14
REMARK    6  A    between atoms: C_18  and  O_19
REMARK    7  A    between atoms: O_19  and  C_20
REMARK                            x       y       z     vdW  Elec       q    Type
REMARK                         _______ _______ _______ _____ _____    ______ ____
ROOT
ATOM      1  C   UNL     1      47.249   8.009  12.159  0.00  0.00    +0.000 A 
ATOM      2  C   UNL     1      46.218   8.899  12.497  0.00  0.00    +0.000 A 
ATOM      3  C   UNL     1      44.897   8.634  12.138  0.00  0.00    +0.000 A 
ATOM      4  C   UNL     1      44.583   7.461  11.450  0.00  0.00    +0.000 A 
ATOM      5  C   UNL     1      45.578   6.540  11.088  0.00  0.00    +0.000 A 
ATOM      6  C   UNL     1      46.906   6.868  11.411  0.00  0.00    +0.000 A 
ENDROOT
BRANCH   5   7
ATOM      7  C   UNL     1      45.250   5.222  10.498  0.00  0.00    +0.000 A 
ATOM      8  C   UNL     1      44.804   4.171  11.320  0.00  0.00    +0.000 A 
ATOM      9  C   UNL     1      44.542   2.903  10.801  0.00  0.00    +0.000 A 
ATOM     10  C   UNL     1      44.741   2.656   9.448  0.00  0.00    +0.000 A 
ATOM     11  C   UNL     1      45.217   3.663   8.610  0.00  0.00    +0.000 A 
ATOM     12  C   UNL     1      45.445   4.943   9.128  0.00  0.00    +0.000 A 
BRANCH  11  13
ATOM     13  O   UNL     1      45.389   3.288   7.308  0.00  0.00    +0.000 OA
BRANCH  13  14
ATOM     14  C   UNL     1      46.712   3.369   6.803  0.00  0.00    +0.000 C 
ATOM     15  F   UNL     1      47.494   2.453   7.427  0.00  0.00    +0.000 F 
ATOM     16  F   UNL     1      46.666   3.012   5.494  0.00  0.00    +0.000 F 
ENDBRANCH  13  14
ENDBRANCH  11  13
ENDBRANCH   5   7
BRANCH   1  17
ATOM     17  C   UNL     1      48.678   8.196  12.659  0.00  0.00    +0.000 C 
ATOM     18  C   UNL     1      49.662   8.920  11.743  0.00  0.00    +0.000 C 
ATOM     19  C   UNL     1      49.105   9.627  12.929  0.00  0.00    +0.000 C 
BRANCH  17  20
ATOM     20  N   UNL     1      49.253   7.000  13.290  0.00  0.00    +0.000 N 
ATOM     21  H   UNL     1      49.277   6.178  12.674  0.00  0.00    +0.000 HD
BRANCH  20  25
ATOM     22  C   UNL     1      48.845   5.508  17.117  0.00  0.00    +0.000 A 
ATOM     23  N   UNL     1      49.764   6.487  16.948  0.00  0.00    +0.000 NA
ATOM     24  C   UNL     1      49.868   7.003  15.698  0.00  0.00    +0.000 A 
ATOM     25  C   UNL     1      49.098   6.605  14.628  0.00  0.00    +0.000 A 
ATOM     26  C   UNL     1      48.189   5.603  14.961  0.00  0.00    +0.000 A 
ATOM     27  F   UNL     1      47.388   5.146  13.981  0.00  0.00    +0.000 F 
ATOM     28  N   UNL     1      48.023   5.042  16.171  0.00  0.00    +0.000 NA
BRANCH  22  30
ATOM     29  N   UNL     1      48.728   4.375  19.458  0.00  0.00    +0.000 NA
ATOM     30  C   UNL     1      48.771   4.872  18.408  0.00  0.00    +0.000 C 
ENDBRANCH  22  30
ENDBRANCH  20  25
ENDBRANCH  17  20
ENDBRANCH   1  17
TORSDOF 7
ENDMDL
MODEL 4
REMARK VINA RESULT:    -7.250      2.467      2.903
REMARK INTER + INTRA:         -11.325
REMARK INTER:                 -10.313
REMARK INTRA:                  -1.012
REMARK UNBOUND:                -1.108
REMARK  Name = 
REMARK  7 active torsions:
REMARK  status: ('A' for Active; 'I' for Inactive)
REMARK    1  A    between atoms: C_2  and  C_3
REMARK    2  A    between atoms: C_6  and  N_7
REMARK    3  A    between atoms: N_7  and  C_8
REMARK    4  A    between atoms: C_8  and  C_9
REMARK    5  A    between atoms: C_13  and  C_14
REMARK    6  A    between atoms: C_18  and  O_19
REMARK    7  A    between atoms: O_19  and  C_20
REMARK                            x       y       z     vdW  Elec       q    Type
REMARK                         _______ _______ _______ _____ _____    ______ ____
ROOT
ATOM      1  C   UNL     1      45.227   4.707  12.041  0.00  0.00    +0.000 A 
ATOM      2  C   UNL     1      45.609   3.642  12.870  0.00  0.00    +0.000 A 
ATOM      3  C   UNL     1      46.761   3.719  13.652  0.00  0.00    +0.000 A 
ATOM      4  C   UNL     1      47.542   4.876  13.632  0.00  0.00    +0.000 A 
ATOM      5  C   UNL     1      47.204   5.969  12.818  0.00  0.00    +0.000 A 
ATOM      6  C   UNL     1      46.071   5.833  11.997  0.00  0.00    +0.000 A 
ENDROOT
BRANCH   5   7
ATOM      7  C   UNL     1      47.925   7.259  12.897  0.00  0.00    +0.000 A 
ATOM      8  C   UNL     1      48.152   8.015  11.733  0.00  0.00    +0.000 A 
ATOM      9  C   UNL     1      48.877   9.206  11.768  0.00  0.00    +0.000 A 
ATOM     10  C   UNL     1      49.409   9.655  12.971  0.00  0.00    +0.000 A 
ATOM     11  C   UNL     1      49.237   8.913  14.138  0.00  0.00    +0.000 A 
ATOM     12  C   UNL     1      48.478   7.737  14.105  0.00  0.00    +0.000 A 
BRANCH  11  13
ATOM     13  O   UNL     1      49.824   9.451  15.249  0.00  0.00    +0.000 OA
BRANCH  13  14
ATOM     14  C   UNL     1      49.775   8.661  16.426  0.00  0.00    +0.000 C 
ATOM     15  F   UNL     1      50.805   7.778  16.424  0.00  0.00    +0.000 F 
ATOM     16  F   UNL     1      49.982   9.495  17.478  0.00  0.00    +0.000 F 
ENDBRANCH  13  14
ENDBRANCH  11  13
ENDBRANCH   5   7
BRANCH   1  17
ATOM     17  C   UNL     1      43.902   4.713  11.286  0.00  0.00    +0.000 C 
ATOM     18  C   UNL     1      42.651   5.138  12.050  0.00  0.00    +0.000 C 
ATOM     19  C   UNL     1      43.268   6.075  11.069  0.00  0.00    +0.000 C 
BRANCH  17  20
ATOM     20  N   UNL     1      43.687   3.527  10.445  0.00  0.00    +0.000 N 
ATOM     21  H   UNL     1      43.228   2.749  10.935  0.00  0.00    +0.000 HD
BRANCH  20  25
ATOM     22  C   UNL     1      46.476   2.301   7.660  0.00  0.00    +0.000 A 
ATOM     23  N   UNL     1      45.873   1.325   8.376  0.00  0.00    +0.000 NA
ATOM     24  C   UNL     1      44.928   1.728   9.262  0.00  0.00    +0.000 A 
ATOM     25  C   UNL     1      44.552   3.039   9.453  0.00  0.00    +0.000 A 
ATOM     26  C   UNL     1      45.250   3.924   8.634  0.00  0.00    +0.000 A 
ATOM     27  F   UNL     1      44.953   5.231   8.746  0.00  0.00    +0.000 F 
ATOM     28  N   UNL     1      46.196   3.606   7.734  0.00  0.00    +0.000 NA
BRANCH  22  30
ATOM     29  N   UNL     1      48.419   1.636   6.060  0.00  0.00    +0.000 NA
ATOM     30  C   UNL     1      47.550   1.920   6.777  0.00  0.00    +0.000 C 
ENDBRANCH  22  30
ENDBRANCH  20  25
ENDBRANCH  17  20
ENDBRANCH   1  17
TORSDOF 7
ENDMDL
MODEL 5
REMARK VINA RESULT:    -7.082      4.743      8.261
REMARK INTER + INTRA:         -11.088
REMARK INTER:                  -9.539
REMARK INTRA:                  -1.549
REMARK UNBOUND:                -1.108
REMARK  Name = 
REMARK  7 active torsions:
REMARK  status: ('A' for Active; 'I' for Inactive)
REMARK    1  A    between atoms: C_2  and  C_3
REMARK    2  A    between atoms: C_6  and  N_7
REMARK    3  A    between atoms: N_7  and  C_8
REMARK    4  A    between atoms: C_8  and  C_9
REMARK    5  A    between atoms: C_13  and  C_14
REMARK    6  A    between atoms: C_18  and  O_19
REMARK    7  A    between atoms: O_19  and  C_20
REMARK                            x       y       z     vdW  Elec       q    Type
REMARK                         _______ _______ _______ _____ _____    ______ ____
ROOT
ATOM      1  C   UNL     1      47.896   8.062  12.062  0.00  0.00    +0.000 A 
ATOM      2  C   UNL     1      47.228   9.290  12.180  0.00  0.00    +0.000 A 
ATOM      3  C   UNL     1      45.838   9.358  12.113  0.00  0.00    +0.000 A 
ATOM      4  C   UNL     1      45.089   8.192  11.948  0.00  0.00    +0.000 A 
ATOM      5  C   UNL     1      45.709   6.939  11.824  0.00  0.00    +0.000 A 
ATOM      6  C   UNL     1      47.115   6.914  11.833  0.00  0.00    +0.000 A 
ENDROOT
BRANCH   5   7
ATOM      7  C   UNL     1      44.934   5.677  11.804  0.00  0.00    +0.000 A 
ATOM      8  C   UNL     1      44.124   5.328  12.900  0.00  0.00    +0.000 A 
ATOM      9  C   UNL     1      43.427   4.120  12.932  0.00  0.00    +0.000 A 
ATOM     10  C   UNL     1      43.544   3.226  11.875  0.00  0.00    +0.000 A 
ATOM     11  C   UNL     1      44.367   3.522  10.790  0.00  0.00    +0.000 A 
ATOM     12  C   UNL     1      45.036   4.751  10.744  0.00  0.00    +0.000 A 
BRANCH  11  13
ATOM     13  O   UNL     1      44.411   2.555   9.826  0.00  0.00    +0.000 OA
BRANCH  13  14
ATOM     14  C   UNL     1      45.429   2.694   8.847  0.00  0.00    +0.000 C 
ATOM     15  F   UNL     1      45.915   1.470   8.520  0.00  0.00    +0.000 F 
ATOM     16  F   UNL     1      44.844   3.190   7.727  0.00  0.00    +0.000 F 
ENDBRANCH  13  14
ENDBRANCH  11  13
ENDBRANCH   5   7
BRANCH   1  17
ATOM     17  C   UNL     1      49.402   7.933  12.273  0.00  0.00    +0.000 C 
ATOM     18  C   UNL     1      50.281   7.774  11.035  0.00  0.00    +0.000 C 
ATOM     19  C   UNL     1      50.246   9.081  11.749  0.00  0.00    +0.000 C 
BRANCH  17  20
ATOM     20  N   UNL     1      49.778   7.026  13.367  0.00  0.00    +0.000 N 
ATOM     21  H   UNL     1      49.562   6.040  13.179  0.00  0.00    +0.000 HD
BRANCH  20  25
ATOM     22  C   UNL     1      49.545   7.469  17.464  0.00  0.00    +0.000 A 
ATOM     23  N   UNL     1      50.491   8.202  16.834  0.00  0.00    +0.000 NA
ATOM     24  C   UNL     1      50.539   8.085  15.483  0.00  0.00    +0.000 A 
ATOM     25  C   UNL     1      49.690   7.294  14.742  0.00  0.00    +0.000 A 
ATOM     26  C   UNL     1      48.762   6.614  15.529  0.00  0.00    +0.000 A 
ATOM     27  F   UNL     1      47.886   5.814  14.896  0.00  0.00    +0.000 F 
ATOM     28  N   UNL     1      48.649   6.676  16.867  0.00  0.00    +0.000 NA
BRANCH  22  30
ATOM     29  N   UNL     1      49.502   7.494  20.067  0.00  0.00    +0.000 NA
ATOM     30  C   UNL     1      49.525   7.496  18.905  0.00  0.00    +0.000 C 
ENDBRANCH  22  30
ENDBRANCH  20  25
ENDBRANCH  17  20
ENDBRANCH   1  17
TORSDOF 7
ENDMDL
MODEL 6
REMARK VINA RESULT:    -7.068      4.895      7.909
REMARK INTER + INTRA:         -11.069
REMARK INTER:                 -10.600
REMARK INTRA:                  -0.469
REMARK UNBOUND:                -1.108
REMARK  Name = 
REMARK  7 active torsions:
REMARK  status: ('A' for Active; 'I' for Inactive)
REMARK    1  A    between atoms: C_2  and  C_3
REMARK    2  A    between atoms: C_6  and  N_7
REMARK    3  A    between atoms: N_7  and  C_8
REMARK    4  A    between atoms: C_8  and  C_9
REMARK    5  A    between atoms: C_13  and  C_14
REMARK    6  A    between atoms: C_18  and  O_19
REMARK    7  A    between atoms: O_19  and  C_20
REMARK                            x       y       z     vdW  Elec       q    Type
REMARK                         _______ _______ _______ _____ _____    ______ ____
ROOT
ATOM      1  C   UNL     1      48.254   7.389  13.984  0.00  0.00    +0.000 A 
ATOM      2  C   UNL     1      48.987   7.879  12.893  0.00  0.00    +0.000 A 
ATOM      3  C   UNL     1      48.611   7.580  11.584  0.00  0.00    +0.000 A 
ATOM      4  C   UNL     1      47.479   6.799  11.345  0.00  0.00    +0.000 A 
ATOM      5  C   UNL     1      46.713   6.283  12.402  0.00  0.00    +0.000 A 
ATOM      6  C   UNL     1      47.157   6.553  13.708  0.00  0.00    +0.000 A 
ENDROOT
BRANCH   5   7
ATOM      7  C   UNL     1      45.428   5.585  12.173  0.00  0.00    +0.000 A 
ATOM      8  C   UNL     1      44.322   5.848  13.002  0.00  0.00    +0.000 A 
ATOM      9  C   UNL     1      43.116   5.166  12.845  0.00  0.00    +0.000 A 
ATOM     10  C   UNL     1      42.999   4.188  11.863  0.00  0.00    +0.000 A 
ATOM     11  C   UNL     1      44.084   3.876  11.047  0.00  0.00    +0.000 A 
ATOM     12  C   UNL     1      45.281   4.588  11.185  0.00  0.00    +0.000 A 
BRANCH  11  13
ATOM     13  O   UNL     1      43.846   2.886  10.135  0.00  0.00    +0.000 OA
BRANCH  13  14
ATOM     14  C   UNL     1      44.875   2.647   9.189  0.00  0.00    +0.000 C 
ATOM     15  F   UNL     1      44.896   1.331   8.862  0.00  0.00    +0.000 F 
ATOM     16  F   UNL     1      44.545   3.322   8.058  0.00  0.00    +0.000 F 
ENDBRANCH  13  14
ENDBRANCH  11  13
ENDBRANCH   5   7
BRANCH   1  17
ATOM     17  C   UNL     1      48.552   7.814  15.419  0.00  0.00    +0.000 C 
ATOM     18  C   UNL     1      49.919   8.430  15.707  0.00  0.00    +0.000 C 
ATOM     19  C   UNL     1      48.715   9.305  15.649  0.00  0.00    +0.000 C 
BRANCH  17  20
ATOM     20  N   UNL     1      48.138   6.833  16.432  0.00  0.00    +0.000 N 
ATOM     21  H   UNL     1      47.707   7.255  17.264  0.00  0.00    +0.000 HD
BRANCH  20  25
ATOM     22  C   UNL     1      50.044   3.238  17.125  0.00  0.00    +0.000 A 
ATOM     23  N   UNL     1      50.775   4.357  17.340  0.00  0.00    +0.000 NA
ATOM     24  C   UNL     1      50.134   5.537  17.150  0.00  0.00    +0.000 A 
ATOM     25  C   UNL     1      48.813   5.652  16.776  0.00  0.00    +0.000 A 
ATOM     26  C   UNL     1      48.191   4.416  16.608  0.00  0.00    +0.000 A 
ATOM     27  F   UNL     1      46.897   4.422  16.244  0.00  0.00    +0.000 F 
ATOM     28  N   UNL     1      48.754   3.207  16.777  0.00  0.00    +0.000 NA
BRANCH  22  30
ATOM     29  N   UNL     1      51.271   0.951  17.328  0.00  0.00    +0.000 NA
ATOM     30  C   UNL     1      50.718   1.967  17.226  0.00  0.00    +0.000 C 
ENDBRANCH  22  30
ENDBRANCH  20  25
ENDBRANCH  17  20
ENDBRANCH   1  17
TORSDOF 7
ENDMDL
MODEL 7
REMARK VINA RESULT:    -7.038      4.118      7.275
REMARK INTER + INTRA:         -11.026
REMARK INTER:                  -9.754
REMARK INTRA:                  -1.273
REMARK UNBOUND:                -1.108
REMARK  Name = 
REMARK  7 active torsions:
REMARK  status: ('A' for Active; 'I' for Inactive)
REMARK    1  A    between atoms: C_2  and  C_3
REMARK    2  A    between atoms: C_6  and  N_7
REMARK    3  A    between atoms: N_7  and  C_8
REMARK    4  A    between atoms: C_8  and  C_9
REMARK    5  A    between atoms: C_13  and  C_14
REMARK    6  A    between atoms: C_18  and  O_19
REMARK    7  A    between atoms: O_19  and  C_20
REMARK                            x       y       z     vdW  Elec       q    Type
REMARK                         _______ _______ _______ _____ _____    ______ ____
ROOT
ATOM      1  C   UNL     1      44.883   6.733  11.899  0.00  0.00    +0.000 A 
ATOM      2  C   UNL     1      43.879   6.367  12.807  0.00  0.00    +0.000 A 
ATOM      3  C   UNL     1      43.161   5.183  12.644  0.00  0.00    +0.000 A 
ATOM      4  C   UNL     1      43.453   4.333  11.576  0.00  0.00    +0.000 A 
ATOM      5  C   UNL     1      44.446   4.654  10.639  0.00  0.00    +0.000 A 
ATOM      6  C   UNL     1      45.107   5.885  10.799  0.00  0.00    +0.000 A 
ENDROOT
BRANCH   5   7
ATOM      7  C   UNL     1      44.877   3.699   9.593  0.00  0.00    +0.000 A 
ATOM      8  C   UNL     1      44.634   2.322   9.748  0.00  0.00    +0.000 A 
ATOM      9  C   UNL     1      45.077   1.394   8.806  0.00  0.00    +0.000 A 
ATOM     10  C   UNL     1      45.794   1.826   7.696  0.00  0.00    +0.000 A 
ATOM     11  C   UNL     1      46.086   3.178   7.528  0.00  0.00    +0.000 A 
ATOM     12  C   UNL     1      45.608   4.110   8.457  0.00  0.00    +0.000 A 
BRANCH  11  13
ATOM     13  O   UNL     1      46.812   3.471   6.408  0.00  0.00    +0.000 OA
BRANCH  13  14
ATOM     14  C   UNL     1      47.625   2.425   5.900  0.00  0.00    +0.000 C 
ATOM     15  F   UNL     1      47.965   2.698   4.615  0.00  0.00    +0.000 F 
ATOM     16  F   UNL     1      48.779   2.430   6.615  0.00  0.00    +0.000 F 
ENDBRANCH  13  14
ENDBRANCH  11  13
ENDBRANCH   5   7
BRANCH   1  17
ATOM     17  C   UNL     1      45.781   7.946  12.126  0.00  0.00    +0.000 C 
ATOM     18  C   UNL     1      45.361   9.270  11.493  0.00  0.00    +0.000 C 
ATOM     19  C   UNL     1      45.185   9.066  12.958  0.00  0.00    +0.000 C 
BRANCH  17  20
ATOM     20  N   UNL     1      47.215   7.665  11.974  0.00  0.00    +0.000 N 
ATOM     21  H   UNL     1      47.452   7.180  11.100  0.00  0.00    +0.000 HD
BRANCH  20  25
ATOM     22  C   UNL     1      49.846   6.922  15.067  0.00  0.00    +0.000 A 
ATOM     23  N   UNL     1      48.716   6.179  15.048  0.00  0.00    +0.000 NA
ATOM     24  C   UNL     1      47.873   6.397  14.009  0.00  0.00    +0.000 A 
ATOM     25  C   UNL     1      48.107   7.298  12.994  0.00  0.00    +0.000 A 
ATOM     26  C   UNL     1      49.317   7.975  13.144  0.00  0.00    +0.000 A 
ATOM     27  F   UNL     1      49.639   8.878  12.201  0.00  0.00    +0.000 F 
ATOM     28  N   UNL     1      50.205   7.816  14.140  0.00  0.00    +0.000 NA
BRANCH  22  30
ATOM     29  N   UNL     1      51.425   6.649  17.119  0.00  0.00    +0.000 NA
ATOM     30  C   UNL     1      50.721   6.784  16.205  0.00  0.00    +0.000 C 
ENDBRANCH  22  30
ENDBRANCH  20  25
ENDBRANCH  17  20
ENDBRANCH   1  17
TORSDOF 7
ENDMDL
MODEL 8
REMARK VINA RESULT:    -6.602      3.906      5.644
REMARK INTER + INTRA:         -10.411
REMARK INTER:                  -8.892
REMARK INTRA:                  -1.519
REMARK UNBOUND:                -1.108
REMARK  Name = 
REMARK  7 active torsions:
REMARK  status: ('A' for Active; 'I' for Inactive)
REMARK    1  A    between atoms: C_2  and  C_3
REMARK    2  A    between atoms: C_6  and  N_7
REMARK    3  A    between atoms: N_7  and  C_8
REMARK    4  A    between atoms: C_8  and  C_9
REMARK    5  A    between atoms: C_13  and  C_14
REMARK    6  A    between atoms: C_18  and  O_19
REMARK    7  A    between atoms: O_19  and  C_20
REMARK                            x       y       z     vdW  Elec       q    Type
REMARK                         _______ _______ _______ _____ _____    ______ ____
ROOT
ATOM      1  C   UNL     1      47.083   8.158  12.771  0.00  0.00    +0.000 A 
ATOM      2  C   UNL     1      48.099   8.307  11.814  0.00  0.00    +0.000 A 
ATOM      3  C   UNL     1      49.434   8.076  12.144  0.00  0.00    +0.000 A 
ATOM      4  C   UNL     1      49.773   7.671  13.436  0.00  0.00    +0.000 A 
ATOM      5  C   UNL     1      48.795   7.509  14.430  0.00  0.00    +0.000 A 
ATOM      6  C   UNL     1      47.467   7.810  14.079  0.00  0.00    +0.000 A 
ENDROOT
BRANCH   5   7
ATOM      7  C   UNL     1      49.111   6.933  15.756  0.00  0.00    +0.000 A 
ATOM      8  C   UNL     1      49.965   7.618  16.640  0.00  0.00    +0.000 A 
ATOM      9  C   UNL     1      50.324   7.074  17.873  0.00  0.00    +0.000 A 
ATOM     10  C   UNL     1      49.852   5.819  18.238  0.00  0.00    +0.000 A 
ATOM     11  C   UNL     1      49.034   5.095  17.373  0.00  0.00    +0.000 A 
ATOM     12  C   UNL     1      48.646   5.660  16.152  0.00  0.00    +0.000 A 
BRANCH  11  13
ATOM     13  O   UNL     1      48.652   3.869  17.840  0.00  0.00    +0.000 OA
BRANCH  13  14
ATOM     14  C   UNL     1      47.906   3.063  16.942  0.00  0.00    +0.000 C 
ATOM     15  F   UNL     1      48.701   2.083  16.443  0.00  0.00    +0.000 F 
ATOM     16  F   UNL     1      46.939   2.444  17.667  0.00  0.00    +0.000 F 
ENDBRANCH  13  14
ENDBRANCH  11  13
ENDBRANCH   5   7
BRANCH   1  17
ATOM     17  C   UNL     1      45.605   8.262  12.408  0.00  0.00    +0.000 C 
ATOM     18  C   UNL     1      44.914   9.606  12.628  0.00  0.00    +0.000 C 
ATOM     19  C   UNL     1      45.270   9.179  11.246  0.00  0.00    +0.000 C 
BRANCH  17  20
ATOM     20  N   UNL     1      44.797   7.119  12.855  0.00  0.00    +0.000 N 
ATOM     21  H   UNL     1      44.780   6.997  13.875  0.00  0.00    +0.000 HD
BRANCH  20  25
ATOM     22  C   UNL     1      44.483   3.638  10.659  0.00  0.00    +0.000 A 
ATOM     23  N   UNL     1      45.426   3.654  11.629  0.00  0.00    +0.000 NA
ATOM     24  C   UNL     1      45.500   4.784  12.375  0.00  0.00    +0.000 A 
ATOM     25  C   UNL     1      44.679   5.877  12.211  0.00  0.00    +0.000 A 
ATOM     26  C   UNL     1      43.751   5.705  11.186  0.00  0.00    +0.000 A 
ATOM     27  F   UNL     1      42.900   6.720  10.947  0.00  0.00    +0.000 F 
ATOM     28  N   UNL     1      43.613   4.620  10.404  0.00  0.00    +0.000 NA
BRANCH  22  30
ATOM     29  N   UNL     1      44.398   1.583   9.063  0.00  0.00    +0.000 NA
ATOM     30  C   UNL     1      44.437   2.492   9.786  0.00  0.00    +0.000 C 
ENDBRANCH  22  30
ENDBRANCH  20  25
ENDBRANCH  17  20
ENDBRANCH   1  17
TORSDOF 7
ENDMDL
MODEL 9
REMARK VINA RESULT:    -6.353      4.052      7.288
REMARK INTER + INTRA:         -10.061
REMARK INTER:                  -8.924
REMARK INTRA:                  -1.137
REMARK UNBOUND:                -1.108
REMARK  Name = 
REMARK  7 active torsions:
REMARK  status: ('A' for Active; 'I' for Inactive)
REMARK    1  A    between atoms: C_2  and  C_3
REMARK    2  A    between atoms: C_6  and  N_7
REMARK    3  A    between atoms: N_7  and  C_8
REMARK    4  A    between atoms: C_8  and  C_9
REMARK    5  A    between atoms: C_13  and  C_14
REMARK    6  A    between atoms: C_18  and  O_19
REMARK    7  A    between atoms: O_19  and  C_20
REMARK                            x       y       z     vdW  Elec       q    Type
REMARK                         _______ _______ _______ _____ _____    ______ ____
ROOT
ATOM      1  C   UNL     1      47.376   8.051  12.719  0.00  0.00    +0.000 A 
ATOM      2  C   UNL     1      46.450   9.104  12.759  0.00  0.00    +0.000 A 
ATOM      3  C   UNL     1      45.207   8.989  12.140  0.00  0.00    +0.000 A 
ATOM      4  C   UNL     1      44.860   7.806  11.486  0.00  0.00    +0.000 A 
ATOM      5  C   UNL     1      45.751   6.724  11.416  0.00  0.00    +0.000 A 
ATOM      6  C   UNL     1      47.019   6.897  11.998  0.00  0.00    +0.000 A 
ENDROOT
BRANCH   5   7
ATOM      7  C   UNL     1      45.348   5.409  10.866  0.00  0.00    +0.000 A 
ATOM      8  C   UNL     1      44.999   4.357  11.731  0.00  0.00    +0.000 A 
ATOM      9  C   UNL     1      44.670   3.092  11.242  0.00  0.00    +0.000 A 
ATOM     10  C   UNL     1      44.704   2.850   9.874  0.00  0.00    +0.000 A 
ATOM     11  C   UNL     1      45.081   3.859   8.989  0.00  0.00    +0.000 A 
ATOM     12  C   UNL     1      45.375   5.136   9.481  0.00  0.00    +0.000 A 
BRANCH  11  13
ATOM     13  O   UNL     1      45.093   3.490   7.674  0.00  0.00    +0.000 OA
BRANCH  13  14
ATOM     14  C   UNL     1      46.362   3.173   7.125  0.00  0.00    +0.000 C 
ATOM     15  F   UNL     1      47.183   4.247   7.229  0.00  0.00    +0.000 F 
ATOM     16  F   UNL     1      46.902   2.196   7.899  0.00  0.00    +0.000 F 
ENDBRANCH  13  14
ENDBRANCH  11  13
ENDBRANCH   5   7
BRANCH   1  17
ATOM     17  C   UNL     1      48.683   8.089  13.505  0.00  0.00    +0.000 C 
ATOM     18  C   UNL     1      48.595   8.197  15.025  0.00  0.00    +0.000 C 
ATOM     19  C   UNL     1      48.955   6.893  14.399  0.00  0.00    +0.000 C 
BRANCH  17  20
ATOM     20  N   UNL     1      49.705   8.970  12.924  0.00  0.00    +0.000 N 
ATOM     21  H   UNL     1      49.319   9.743  12.367  0.00  0.00    +0.000 HD
BRANCH  20  25
ATOM     22  C   UNL     1      53.290   7.979  11.133  0.00  0.00    +0.000 A 
ATOM     23  N   UNL     1      53.369   8.627  12.318  0.00  0.00    +0.000 NA
ATOM     24  C   UNL     1      52.191   8.916  12.923  0.00  0.00    +0.000 A 
ATOM     25  C   UNL     1      50.955   8.580  12.417  0.00  0.00    +0.000 A 
ATOM     26  C   UNL     1      51.037   7.904  11.201  0.00  0.00    +0.000 A 
ATOM     27  F   UNL     1      49.880   7.531  10.624  0.00  0.00    +0.000 F 
ATOM     28  N   UNL     1      52.161   7.580  10.539  0.00  0.00    +0.000 NA
BRANCH  22  30
ATOM     29  N   UNL     1      55.504   7.566   9.826  0.00  0.00    +0.000 NA
ATOM     30  C   UNL     1      54.517   7.739  10.416  0.00  0.00    +0.000 C 
ENDBRANCH  22  30
ENDBRANCH  20  25
ENDBRANCH  17  20
ENDBRANCH   1  17
TORSDOF 7
ENDMDL
