MODEL 1
REMARK VINA RESULT:    -8.225      0.000      0.000
REMARK INTER + INTRA:         -12.676
REMARK INTER:                 -11.591
REMARK INTRA:                  -1.085
REMARK UNBOUND:                -1.085
REMARK  Name = 
REMARK  7 active torsions:
REMARK  status: ('A' for Active; 'I' for Inactive)
REMARK    1  A    between atoms: C_2  and  C_3
REMARK    2  A    between atoms: C_5  and  C_6
REMARK    3  A    between atoms: C_6  and  N_7
REMARK    4  A    between atoms: C_8  and  C_10
REMARK    5  A    between atoms: C_22  and  C_23
REMARK    6  A    between atoms: C_23  and  N_24
REMARK    7  A    between atoms: C_25  and  C_27
REMARK                            x       y       z     vdW  Elec       q    Type
REMARK                         _______ _______ _______ _____ _____    ______ ____
ROOT
ATOM      1  C   UNL     1      45.743   5.601  12.490  0.00  0.00    +0.000 A 
ATOM      2  C   UNL     1      46.560   6.452  13.260  0.00  0.00    +0.000 A 
ATOM      3  C   UNL     1      46.545   7.840  13.071  0.00  0.00    +0.000 A 
ATOM      4  C   UNL     1      45.714   8.365  12.076  0.00  0.00    +0.000 A 
ATOM      5  C   UNL     1      44.901   7.528  11.304  0.00  0.00    +0.000 A 
ATOM      6  C   UNL     1      44.892   6.136  11.504  0.00  0.00    +0.000 A 
ENDROOT
BRANCH   1   8
ATOM      7  N   UNL     1      45.855   3.052  12.976  0.00  0.00    +0.000 NA
ATOM      8  C   UNL     1      45.812   4.189  12.756  0.00  0.00    +0.000 C 
ENDBRANCH   1   8
BRANCH   3   9
ATOM      9  C   UNL     1      47.447   8.741  13.884  0.00  0.00    +0.000 C 
BRANCH   9  10
ATOM     10  N   UNL     1      47.733   8.158  15.170  0.00  0.00    +0.000 N 
ATOM     11  C   UNL     1      48.896   7.470  15.420  0.00  0.00    +0.000 C 
ATOM     12  O   UNL     1      49.772   7.343  14.575  0.00  0.00    +0.000 OA
ATOM     13  H   UNL     1      46.941   8.018  15.790  0.00  0.00    +0.000 HD
BRANCH  11  14
ATOM     14  C   UNL     1      49.057   6.946  16.786  0.00  0.00    +0.000 A 
ATOM     15  C   UNL     1      49.554   7.766  17.789  0.00  0.00    +0.000 A 
ATOM     16  S   UNL     1      49.636   7.008  19.317  0.00  0.00    +0.000 S 
ATOM     17  C   UNL     1      49.055   5.540  18.679  0.00  0.00    +0.000 A 
ATOM     18  N   UNL     1      48.911   4.440  19.467  0.00  0.00    +0.000 NA
ATOM     19  C   UNL     1      48.480   3.392  18.850  0.00  0.00    +0.000 A 
ATOM     20  N   UNL     1      48.171   3.347  17.516  0.00  0.00    +0.000 N 
ATOM     21  C   UNL     1      48.271   4.437  16.688  0.00  0.00    +0.000 A 
ATOM     22  O   UNL     1      47.934   4.373  15.511  0.00  0.00    +0.000 OA
ATOM     23  C   UNL     1      48.773   5.637  17.328  0.00  0.00    +0.000 A 
ATOM     24  H   UNL     1      47.821   2.498  17.095  0.00  0.00    +0.000 HD
ENDBRANCH  11  14
ENDBRANCH   9  10
ENDBRANCH   3   9
BRANCH   6  25
ATOM     25  C   UNL     1      43.985   5.290  10.637  0.00  0.00    +0.000 C 
BRANCH  25  26
ATOM     26  N   UNL     1      44.714   4.613   9.591  0.00  0.00    +0.000 N 
ATOM     27  C   UNL     1      44.684   3.252   9.388  0.00  0.00    +0.000 C 
ATOM     28  O   UNL     1      43.982   2.493  10.050  0.00  0.00    +0.000 OA
ATOM     29  H   UNL     1      45.278   5.178   8.979  0.00  0.00    +0.000 HD
BRANCH  27  30
ATOM     30  C   UNL     1      45.553   2.789   8.321  0.00  0.00    +0.000 A 
ATOM     31  C   UNL     1      46.011   3.417   7.172  0.00  0.00    +0.000 A 
ATOM     32  C   UNL     1      46.825   2.507   6.456  0.00  0.00    +0.000 A 
ATOM     33  C   UNL     1      46.865   1.341   7.183  0.00  0.00    +0.000 A 
ATOM     34  N   UNL     1      46.114   1.525   8.315  0.00  0.00    +0.000 N 
ATOM     35  H   UNL     1      45.973   0.839   9.049  0.00  0.00    +0.000 HD
ENDBRANCH  27  30
ENDBRANCH  25  26
ENDBRANCH   6  25
TORSDOF 7
ENDMDL
MODEL 2
REMARK VINA RESULT:    -8.223      1.265      1.322
REMARK INTER + INTRA:         -12.673
REMARK INTER:                 -11.369
REMARK INTRA:                  -1.304
REMARK UNBOUND:                -1.085
REMARK  Name = 
REMARK  7 active torsions:
REMARK  status: ('A' for Active; 'I' for Inactive)
REMARK    1  A    between atoms: C_2  and  C_3
REMARK    2  A    between atoms: C_5  and  C_6
REMARK    3  A    between atoms: C_6  and  N_7
REMARK    4  A    between atoms: C_8  and  C_10
REMARK    5  A    between atoms: C_22  and  C_23
REMARK    6  A    between atoms: C_23  and  N_24
REMARK    7  A    between atoms: C_25  and  C_27
REMARK                            x       y       z     vdW  Elec       q    Type
REMARK                         _______ _______ _______ _____ _____    ______ ____
ROOT
ATOM      1  C   UNL     1      44.638   5.748  12.300  0.00  0.00    +0.000 A 
ATOM      2  C   UNL     1      45.419   6.569  13.138  0.00  0.00    +0.000 A 
ATOM      3  C   UNL     1      46.547   7.242  12.650  0.00  0.00    +0.000 A 
ATOM      4  C   UNL     1      46.900   7.058  11.308  0.00  0.00    +0.000 A 
ATOM      5  C   UNL     1      46.132   6.243  10.469  0.00  0.00    +0.000 A 
ATOM      6  C   UNL     1      44.984   5.584  10.945  0.00  0.00    +0.000 A 
ENDROOT
BRANCH   1   8
ATOM      7  N   UNL     1      42.570   4.573  13.343  0.00  0.00    +0.000 NA
ATOM      8  C   UNL     1      43.490   5.104  12.879  0.00  0.00    +0.000 C 
ENDBRANCH   1   8
BRANCH   3   9
ATOM      9  C   UNL     1      47.394   8.096  13.565  0.00  0.00    +0.000 C 
BRANCH   9  10
ATOM     10  N   UNL     1      47.715   7.389  14.778  0.00  0.00    +0.000 N 
ATOM     11  C   UNL     1      48.960   6.852  15.004  0.00  0.00    +0.000 C 
ATOM     12  O   UNL     1      49.878   6.975  14.203  0.00  0.00    +0.000 OA
ATOM     13  H   UNL     1      46.932   7.047  15.325  0.00  0.00    +0.000 HD
BRANCH  11  14
ATOM     14  C   UNL     1      49.147   6.172  16.296  0.00  0.00    +0.000 A 
ATOM     15  C   UNL     1      50.087   6.647  17.200  0.00  0.00    +0.000 A 
ATOM     16  S   UNL     1      50.141   5.764  18.660  0.00  0.00    +0.000 S 
ATOM     17  C   UNL     1      48.943   4.685  18.114  0.00  0.00    +0.000 A 
ATOM     18  N   UNL     1      48.532   3.642  18.887  0.00  0.00    +0.000 NA
ATOM     19  C   UNL     1      47.634   2.892  18.341  0.00  0.00    +0.000 A 
ATOM     20  N   UNL     1      47.102   3.098  17.095  0.00  0.00    +0.000 N 
ATOM     21  C   UNL     1      47.462   4.151  16.292  0.00  0.00    +0.000 A 
ATOM     22  O   UNL     1      46.926   4.333  15.206  0.00  0.00    +0.000 OA
ATOM     23  C   UNL     1      48.487   5.012  16.850  0.00  0.00    +0.000 A 
ATOM     24  H   UNL     1      46.388   2.484  16.731  0.00  0.00    +0.000 HD
ENDBRANCH  11  14
ENDBRANCH   9  10
ENDBRANCH   3   9
BRANCH   6  25
ATOM     25  C   UNL     1      44.198   4.722   9.982  0.00  0.00    +0.000 C 
BRANCH  25  26
ATOM     26  N   UNL     1      45.029   4.201   8.922  0.00  0.00    +0.000 N 
ATOM     27  C   UNL     1      45.259   2.861   8.712  0.00  0.00    +0.000 C 
ATOM     28  O   UNL     1      44.727   1.978   9.380  0.00  0.00    +0.000 OA
ATOM     29  H   UNL     1      45.464   4.866   8.304  0.00  0.00    +0.000 HD
BRANCH  27  30
ATOM     30  C   UNL     1      46.184   2.576   7.630  0.00  0.00    +0.000 A 
ATOM     31  C   UNL     1      46.515   3.296   6.492  0.00  0.00    +0.000 A 
ATOM     32  C   UNL     1      47.468   2.556   5.752  0.00  0.00    +0.000 A 
ATOM     33  C   UNL     1      47.717   1.401   6.454  0.00  0.00    +0.000 A 
ATOM     34  N   UNL     1      46.957   1.429   7.594  0.00  0.00    +0.000 N 
ATOM     35  H   UNL     1      46.945   0.716   8.315  0.00  0.00    +0.000 HD
ENDBRANCH  27  30
ENDBRANCH  25  26
ENDBRANCH   6  25
TORSDOF 7
ENDMDL
MODEL 3
REMARK VINA RESULT:    -7.840      1.840      2.186
REMARK INTER + INTRA:         -12.133
REMARK INTER:                 -10.906
REMARK INTRA:                  -1.227
REMARK UNBOUND:                -1.085
REMARK  Name = 
REMARK  7 active torsions:
REMARK  status: ('A' for Active; 'I' for Inactive)
REMARK    1  A    between atoms: C_2  and  C_3
REMARK    2  A    between atoms: C_5  and  C_6
REMARK    3  A    between atoms: C_6  and  N_7
REMARK    4  A    between atoms: C_8  and  C_10
REMARK    5  A    between atoms: C_22  and  C_23
REMARK    6  A    between atoms: C_23  and  N_24
REMARK    7  A    between atoms: C_25  and  C_27
REMARK                            x       y       z     vdW  Elec       q    Type
REMARK                         _______ _______ _______ _____ _____    ______ ____
ROOT
ATOM      1  C   UNL     1      46.063   5.139  12.825  0.00  0.00    +0.000 A 
ATOM      2  C   UNL     1      46.495   6.415  13.236  0.00  0.00    +0.000 A 
ATOM      3  C   UNL     1      45.939   7.581  12.691  0.00  0.00    +0.000 A 
ATOM      4  C   UNL     1      44.957   7.448  11.704  0.00  0.00    +0.000 A 
ATOM      5  C   UNL     1      44.523   6.184  11.288  0.00  0.00    +0.000 A 
ATOM      6  C   UNL     1      45.058   5.010  11.848  0.00  0.00    +0.000 A 
ENDROOT
BRANCH   1   8
ATOM      7  N   UNL     1      47.163   3.072  13.949  0.00  0.00    +0.000 NA
ATOM      8  C   UNL     1      46.678   3.995  13.444  0.00  0.00    +0.000 C 
ENDBRANCH   1   8
BRANCH   3   9
ATOM      9  C   UNL     1      46.431   8.945  13.119  0.00  0.00    +0.000 C 
BRANCH   9  10
ATOM     10  N   UNL     1      47.168   8.863  14.354  0.00  0.00    +0.000 N 
ATOM     11  C   UNL     1      48.337   9.556  14.556  0.00  0.00    +0.000 C 
ATOM     12  O   UNL     1      48.800  10.312  13.711  0.00  0.00    +0.000 OA
ATOM     13  H   UNL     1      46.964   8.068  14.951  0.00  0.00    +0.000 HD
BRANCH  11  14
ATOM     14  C   UNL     1      48.970   9.387  15.874  0.00  0.00    +0.000 A 
ATOM     15  C   UNL     1      49.001  10.448  16.769  0.00  0.00    +0.000 A 
ATOM     16  S   UNL     1      49.736  10.063  18.261  0.00  0.00    +0.000 S 
ATOM     17  C   UNL     1      50.084   8.480  17.743  0.00  0.00    +0.000 A 
ATOM     18  N   UNL     1      50.747   7.606  18.550  0.00  0.00    +0.000 NA
ATOM     19  C   UNL     1      50.961   6.447  18.023  0.00  0.00    +0.000 A 
ATOM     20  N   UNL     1      50.561   6.079  16.765  0.00  0.00    +0.000 N 
ATOM     21  C   UNL     1      49.864   6.913  15.928  0.00  0.00    +0.000 A 
ATOM     22  O   UNL     1      49.476   6.531  14.830  0.00  0.00    +0.000 OA
ATOM     23  C   UNL     1      49.617   8.239  16.463  0.00  0.00    +0.000 A 
ATOM     24  H   UNL     1      50.744   5.149  16.416  0.00  0.00    +0.000 HD
ENDBRANCH  11  14
ENDBRANCH   9  10
ENDBRANCH   3   9
BRANCH   6  25
ATOM     25  C   UNL     1      44.540   3.678  11.354  0.00  0.00    +0.000 C 
BRANCH  25  26
ATOM     26  N   UNL     1      45.350   3.146  10.283  0.00  0.00    +0.000 N 
ATOM     27  C   UNL     1      45.102   3.367   8.948  0.00  0.00    +0.000 C 
ATOM     28  O   UNL     1      44.195   4.090   8.546  0.00  0.00    +0.000 OA
ATOM     29  H   UNL     1      46.141   2.579  10.538  0.00  0.00    +0.000 HD
BRANCH  27  30
ATOM     30  C   UNL     1      46.009   2.673   8.050  0.00  0.00    +0.000 A 
ATOM     31  C   UNL     1      46.767   3.126   6.980  0.00  0.00    +0.000 A 
ATOM     32  C   UNL     1      47.469   2.027   6.429  0.00  0.00    +0.000 A 
ATOM     33  C   UNL     1      47.142   0.922   7.178  0.00  0.00    +0.000 A 
ATOM     34  N   UNL     1      46.279   1.322   8.165  0.00  0.00    +0.000 N 
ATOM     35  H   UNL     1      45.880   0.723   8.880  0.00  0.00    +0.000 HD
ENDBRANCH  27  30
ENDBRANCH  25  26
ENDBRANCH   6  25
TORSDOF 7
ENDMDL
MODEL 4
REMARK VINA RESULT:    -7.815      3.461      4.956
REMARK INTER + INTRA:         -12.098
REMARK INTER:                 -10.918
REMARK INTRA:                  -1.180
REMARK UNBOUND:                -1.085
REMARK  Name = 
REMARK  7 active torsions:
REMARK  status: ('A' for Active; 'I' for Inactive)
REMARK    1  A    between atoms: C_2  and  C_3
REMARK    2  A    between atoms: C_5  and  C_6
REMARK    3  A    between atoms: C_6  and  N_7
REMARK    4  A    between atoms: C_8  and  C_10
REMARK    5  A    between atoms: C_22  and  C_23
REMARK    6  A    between atoms: C_23  and  N_24
REMARK    7  A    between atoms: C_25  and  C_27
REMARK                            x       y       z     vdW  Elec       q    Type
REMARK                         _______ _______ _______ _____ _____    ______ ____
ROOT
ATOM      1  C   UNL     1      45.927   5.203  12.833  0.00  0.00    +0.000 A 
ATOM      2  C   UNL     1      46.328   6.519  13.133  0.00  0.00    +0.000 A 
ATOM      3  C   UNL     1      45.697   7.623  12.543  0.00  0.00    +0.000 A 
ATOM      4  C   UNL     1      44.669   7.387  11.623  0.00  0.00    +0.000 A 
ATOM      5  C   UNL     1      44.266   6.082  11.318  0.00  0.00    +0.000 A 
ATOM      6  C   UNL     1      44.877   4.970  11.924  0.00  0.00    +0.000 A 
ENDROOT
BRANCH   1   8
ATOM      7  N   UNL     1      47.182   3.258  14.012  0.00  0.00    +0.000 NA
ATOM      8  C   UNL     1      46.619   4.128  13.492  0.00  0.00    +0.000 C 
ENDBRANCH   1   8
BRANCH   3   9
ATOM      9  C   UNL     1      46.155   9.031  12.850  0.00  0.00    +0.000 C 
BRANCH   9  10
ATOM     10  N   UNL     1      47.397   9.325  12.181  0.00  0.00    +0.000 N 
ATOM     11  C   UNL     1      48.448   9.934  12.824  0.00  0.00    +0.000 C 
ATOM     12  O   UNL     1      48.402  10.231  14.011  0.00  0.00    +0.000 OA
ATOM     13  H   UNL     1      47.374   9.337  11.167  0.00  0.00    +0.000 HD
BRANCH  11  14
ATOM     14  C   UNL     1      49.659  10.154  12.018  0.00  0.00    +0.000 A 
ATOM     15  C   UNL     1      50.078  11.447  11.735  0.00  0.00    +0.000 A 
ATOM     16  S   UNL     1      51.521  11.516  10.825  0.00  0.00    +0.000 S 
ATOM     17  C   UNL     1      51.609   9.818  10.735  0.00  0.00    +0.000 A 
ATOM     18  N   UNL     1      52.613   9.202  10.054  0.00  0.00    +0.000 NA
ATOM     19  C   UNL     1      52.546   7.913  10.051  0.00  0.00    +0.000 A 
ATOM     20  N   UNL     1      51.569   7.184  10.676  0.00  0.00    +0.000 N 
ATOM     21  C   UNL     1      50.554   7.758  11.400  0.00  0.00    +0.000 A 
ATOM     22  O   UNL     1      49.729   7.073  11.991  0.00  0.00    +0.000 OA
ATOM     23  C   UNL     1      50.571   9.209  11.416  0.00  0.00    +0.000 A 
ATOM     24  H   UNL     1      51.581   6.174  10.651  0.00  0.00    +0.000 HD
ENDBRANCH  11  14
ENDBRANCH   9  10
ENDBRANCH   3   9
BRANCH   6  25
ATOM     25  C   UNL     1      44.388   3.588  11.551  0.00  0.00    +0.000 C 
BRANCH  25  26
ATOM     26  N   UNL     1      45.189   2.995  10.506  0.00  0.00    +0.000 N 
ATOM     27  C   UNL     1      45.001   3.229   9.164  0.00  0.00    +0.000 C 
ATOM     28  O   UNL     1      44.162   4.016   8.733  0.00  0.00    +0.000 OA
ATOM     29  H   UNL     1      45.928   2.372  10.787  0.00  0.00    +0.000 HD
BRANCH  27  30
ATOM     30  C   UNL     1      45.881   2.468   8.296  0.00  0.00    +0.000 A 
ATOM     31  C   UNL     1      46.737   2.864   7.279  0.00  0.00    +0.000 A 
ATOM     32  C   UNL     1      47.356   1.713   6.736  0.00  0.00    +0.000 A 
ATOM     33  C   UNL     1      46.881   0.630   7.437  0.00  0.00    +0.000 A 
ATOM     34  N   UNL     1      46.010   1.093   8.388  0.00  0.00    +0.000 N 
ATOM     35  H   UNL     1      45.516   0.523   9.066  0.00  0.00    +0.000 HD
ENDBRANCH  27  30
ENDBRANCH  25  26
ENDBRANCH   6  25
TORSDOF 7
ENDMDL
MODEL 5
REMARK VINA RESULT:    -7.552      3.678      8.531
REMARK INTER + INTRA:         -11.727
REMARK INTER:                 -10.453
REMARK INTRA:                  -1.274
REMARK UNBOUND:                -1.085
REMARK  Name = 
REMARK  7 active torsions:
REMARK  status: ('A' for Active; 'I' for Inactive)
REMARK    1  A    between atoms: C_2  and  C_3
REMARK    2  A    between atoms: C_5  and  C_6
REMARK    3  A    between atoms: C_6  and  N_7
REMARK    4  A    between atoms: C_8  and  C_10
REMARK    5  A    between atoms: C_22  and  C_23
REMARK    6  A    between atoms: C_23  and  N_24
REMARK    7  A    between atoms: C_25  and  C_27
REMARK                            x       y       z     vdW  Elec       q    Type
REMARK                         _______ _______ _______ _____ _____    ______ ____
ROOT
ATOM      1  C   UNL     1      48.223   4.902  16.560  0.00  0.00    +0.000 A 
ATOM      2  C   UNL     1      47.880   5.488  15.325  0.00  0.00    +0.000 A 
ATOM      3  C   UNL     1      48.649   6.521  14.773  0.00  0.00    +0.000 A 
ATOM      4  C   UNL     1      49.758   6.981  15.492  0.00  0.00    +0.000 A 
ATOM      5  C   UNL     1      50.104   6.406  16.720  0.00  0.00    +0.000 A 
ATOM      6  C   UNL     1      49.353   5.353  17.269  0.00  0.00    +0.000 A 
ENDROOT
BRANCH   1   8
ATOM      7  N   UNL     1      46.709   2.990  17.452  0.00  0.00    +0.000 NA
ATOM      8  C   UNL     1      47.387   3.839  17.049  0.00  0.00    +0.000 C 
ENDBRANCH   1   8
BRANCH   3   9
ATOM      9  C   UNL     1      48.255   7.162  13.461  0.00  0.00    +0.000 C 
BRANCH   9  10
ATOM     10  N   UNL     1      47.480   6.252  12.657  0.00  0.00    +0.000 N 
ATOM     11  C   UNL     1      46.446   6.680  11.858  0.00  0.00    +0.000 C 
ATOM     12  O   UNL     1      46.148   7.863  11.757  0.00  0.00    +0.000 OA
ATOM     13  H   UNL     1      47.523   5.271  12.913  0.00  0.00    +0.000 HD
BRANCH  11  14
ATOM     14  C   UNL     1      45.756   5.639  11.080  0.00  0.00    +0.000 A 
ATOM     15  C   UNL     1      45.835   5.643   9.694  0.00  0.00    +0.000 A 
ATOM     16  S   UNL     1      45.010   4.342   8.957  0.00  0.00    +0.000 S 
ATOM     17  C   UNL     1      44.478   3.756  10.464  0.00  0.00    +0.000 A 
ATOM     18  N   UNL     1      43.682   2.654  10.548  0.00  0.00    +0.000 NA
ATOM     19  C   UNL     1      43.337   2.333  11.750  0.00  0.00    +0.000 A 
ATOM     20  N   UNL     1      43.725   3.010  12.877  0.00  0.00    +0.000 N 
ATOM     21  C   UNL     1      44.550   4.106  12.845  0.00  0.00    +0.000 A 
ATOM     22  O   UNL     1      44.919   4.653  13.878  0.00  0.00    +0.000 OA
ATOM     23  C   UNL     1      44.948   4.523  11.514  0.00  0.00    +0.000 A 
ATOM     24  H   UNL     1      43.434   2.697  13.792  0.00  0.00    +0.000 HD
ENDBRANCH  11  14
ENDBRANCH   9  10
ENDBRANCH   3   9
BRANCH   6  25
ATOM     25  C   UNL     1      49.787   4.776  18.598  0.00  0.00    +0.000 C 
BRANCH  25  26
ATOM     26  N   UNL     1      50.692   3.663  18.435  0.00  0.00    +0.000 N 
ATOM     27  C   UNL     1      52.063   3.782  18.406  0.00  0.00    +0.000 C 
ATOM     28  O   UNL     1      52.645   4.850  18.576  0.00  0.00    +0.000 OA
ATOM     29  H   UNL     1      50.287   2.747  18.335  0.00  0.00    +0.000 HD
BRANCH  27  30
ATOM     30  C   UNL     1      52.765   2.535  18.161  0.00  0.00    +0.000 A 
ATOM     31  C   UNL     1      54.099   2.271  17.887  0.00  0.00    +0.000 A 
ATOM     32  C   UNL     1      54.255   0.875  17.712  0.00  0.00    +0.000 A 
ATOM     33  C   UNL     1      53.018   0.304  17.894  0.00  0.00    +0.000 A 
ATOM     34  N   UNL     1      52.130   1.307  18.185  0.00  0.00    +0.000 N 
ATOM     35  H   UNL     1      51.143   1.183  18.384  0.00  0.00    +0.000 HD
ENDBRANCH  27  30
ENDBRANCH  25  26
ENDBRANCH   6  25
TORSDOF 7
ENDMDL
MODEL 6
REMARK VINA RESULT:    -7.444      1.866      3.682
REMARK INTER + INTRA:         -11.574
REMARK INTER:                 -10.354
REMARK INTRA:                  -1.221
REMARK UNBOUND:                -1.085
REMARK  Name = 
REMARK  7 active torsions:
REMARK  status: ('A' for Active; 'I' for Inactive)
REMARK    1  A    between atoms: C_2  and  C_3
REMARK    2  A    between atoms: C_5  and  C_6
REMARK    3  A    between atoms: C_6  and  N_7
REMARK    4  A    between atoms: C_8  and  C_10
REMARK    5  A    between atoms: C_22  and  C_23
REMARK    6  A    between atoms: C_23  and  N_24
REMARK    7  A    between atoms: C_25  and  C_27
REMARK                            x       y       z     vdW  Elec       q    Type
REMARK                         _______ _______ _______ _____ _____    ______ ____
ROOT
ATOM      1  C   UNL     1      45.465   5.748  12.295  0.00  0.00    +0.000 A 
ATOM      2  C   UNL     1      46.213   5.707  13.487  0.00  0.00    +0.000 A 
ATOM      3  C   UNL     1      46.645   4.490  14.033  0.00  0.00    +0.000 A 
ATOM      4  C   UNL     1      46.291   3.306  13.377  0.00  0.00    +0.000 A 
ATOM      5  C   UNL     1      45.547   3.337  12.192  0.00  0.00    +0.000 A 
ATOM      6  C   UNL     1      45.131   4.555  11.625  0.00  0.00    +0.000 A 
ENDROOT
BRANCH   1   8
ATOM      7  N   UNL     1      44.761   8.076  11.384  0.00  0.00    +0.000 NA
ATOM      8  C   UNL     1      45.073   7.039  11.797  0.00  0.00    +0.000 C 
ENDBRANCH   1   8
BRANCH   3   9
ATOM      9  C   UNL     1      47.422   4.456  15.330  0.00  0.00    +0.000 C 
BRANCH   9  10
ATOM     10  N   UNL     1      47.717   5.790  15.787  0.00  0.00    +0.000 N 
ATOM     11  C   UNL     1      48.891   6.101  16.431  0.00  0.00    +0.000 C 
ATOM     12  O   UNL     1      49.769   5.269  16.620  0.00  0.00    +0.000 OA
ATOM     13  H   UNL     1      46.928   6.421  15.883  0.00  0.00    +0.000 HD
BRANCH  11  14
ATOM     14  C   UNL     1      49.060   7.509  16.825  0.00  0.00    +0.000 A 
ATOM     15  C   UNL     1      49.219   7.839  18.163  0.00  0.00    +0.000 A 
ATOM     16  S   UNL     1      49.443   9.511  18.434  0.00  0.00    +0.000 S 
ATOM     17  C   UNL     1      49.285   9.855  16.774  0.00  0.00    +0.000 A 
ATOM     18  N   UNL     1      49.348  11.134  16.314  0.00  0.00    +0.000 NA
ATOM     19  C   UNL     1      49.193  11.252  15.037  0.00  0.00    +0.000 A 
ATOM     20  N   UNL     1      48.990  10.204  14.179  0.00  0.00    +0.000 N 
ATOM     21  C   UNL     1      48.950   8.895  14.591  0.00  0.00    +0.000 A 
ATOM     22  O   UNL     1      48.821   7.980  13.788  0.00  0.00    +0.000 OA
ATOM     23  C   UNL     1      49.097   8.709  16.023  0.00  0.00    +0.000 A 
ATOM     24  H   UNL     1      48.893  10.361  13.186  0.00  0.00    +0.000 HD
ENDBRANCH  11  14
ENDBRANCH   9  10
ENDBRANCH   3   9
BRANCH   6  25
ATOM     25  C   UNL     1      44.333   4.515  10.341  0.00  0.00    +0.000 C 
BRANCH  25  26
ATOM     26  N   UNL     1      45.138   4.101   9.216  0.00  0.00    +0.000 N 
ATOM     27  C   UNL     1      45.154   2.822   8.708  0.00  0.00    +0.000 C 
ATOM     28  O   UNL     1      44.432   1.925   9.136  0.00  0.00    +0.000 OA
ATOM     29  H   UNL     1      45.723   4.797   8.784  0.00  0.00    +0.000 HD
BRANCH  27  30
ATOM     30  C   UNL     1      46.094   2.624   7.620  0.00  0.00    +0.000 A 
ATOM     31  C   UNL     1      46.313   3.341   6.454  0.00  0.00    +0.000 A 
ATOM     32  C   UNL     1      47.344   2.706   5.721  0.00  0.00    +0.000 A 
ATOM     33  C   UNL     1      47.751   1.618   6.456  0.00  0.00    +0.000 A 
ATOM     34  N   UNL     1      47.008   1.586   7.608  0.00  0.00    +0.000 N 
ATOM     35  H   UNL     1      47.099   0.902   8.351  0.00  0.00    +0.000 HD
ENDBRANCH  27  30
ENDBRANCH  25  26
ENDBRANCH   6  25
TORSDOF 7
ENDMDL
MODEL 7
REMARK VINA RESULT:    -7.419      2.135      3.176
REMARK INTER + INTRA:         -11.540
REMARK INTER:                 -10.530
REMARK INTRA:                  -1.010
REMARK UNBOUND:                -1.085
REMARK  Name = 
REMARK  7 active torsions:
REMARK  status: ('A' for Active; 'I' for Inactive)
REMARK    1  A    between atoms: C_2  and  C_3
REMARK    2  A    between atoms: C_5  and  C_6
REMARK    3  A    between atoms: C_6  and  N_7
REMARK    4  A    between atoms: C_8  and  C_10
REMARK    5  A    between atoms: C_22  and  C_23
REMARK    6  A    between atoms: C_23  and  N_24
REMARK    7  A    between atoms: C_25  and  C_27
REMARK                            x       y       z     vdW  Elec       q    Type
REMARK                         _______ _______ _______ _____ _____    ______ ____
ROOT
ATOM      1  C   UNL     1      45.660   5.846  12.505  0.00  0.00    +0.000 A 
ATOM      2  C   UNL     1      46.383   5.686  13.704  0.00  0.00    +0.000 A 
ATOM      3  C   UNL     1      46.721   4.413  14.183  0.00  0.00    +0.000 A 
ATOM      4  C   UNL     1      46.298   3.295  13.455  0.00  0.00    +0.000 A 
ATOM      5  C   UNL     1      45.578   3.446  12.265  0.00  0.00    +0.000 A 
ATOM      6  C   UNL     1      45.256   4.719  11.764  0.00  0.00    +0.000 A 
ENDROOT
BRANCH   1   8
ATOM      7  N   UNL     1      45.137   8.268  11.726  0.00  0.00    +0.000 NA
ATOM      8  C   UNL     1      45.365   7.188  12.078  0.00  0.00    +0.000 C 
ENDBRANCH   1   8
BRANCH   3   9
ATOM      9  C   UNL     1      47.472   4.252  15.486  0.00  0.00    +0.000 C 
BRANCH   9  10
ATOM     10  N   UNL     1      47.699   5.530  16.110  0.00  0.00    +0.000 N 
ATOM     11  C   UNL     1      48.926   5.890  16.616  0.00  0.00    +0.000 C 
ATOM     12  O   UNL     1      49.904   5.159  16.533  0.00  0.00    +0.000 OA
ATOM     13  H   UNL     1      46.877   6.034  16.424  0.00  0.00    +0.000 HD
BRANCH  11  14
ATOM     14  C   UNL     1      49.012   7.235  17.208  0.00  0.00    +0.000 A 
ATOM     15  C   UNL     1      49.741   8.228  16.568  0.00  0.00    +0.000 A 
ATOM     16  S   UNL     1      49.700   9.733  17.373  0.00  0.00    +0.000 S 
ATOM     17  C   UNL     1      48.747   9.095  18.631  0.00  0.00    +0.000 A 
ATOM     18  N   UNL     1      48.370   9.867  19.687  0.00  0.00    +0.000 NA
ATOM     19  C   UNL     1      47.667   9.250  20.577  0.00  0.00    +0.000 A 
ATOM     20  N   UNL     1      47.298   7.933  20.501  0.00  0.00    +0.000 N 
ATOM     21  C   UNL     1      47.628   7.124  19.442  0.00  0.00    +0.000 A 
ATOM     22  O   UNL     1      47.234   5.965  19.383  0.00  0.00    +0.000 OA
ATOM     23  C   UNL     1      48.439   7.763  18.424  0.00  0.00    +0.000 A 
ATOM     24  H   UNL     1      46.732   7.512  21.223  0.00  0.00    +0.000 HD
ENDBRANCH  11  14
ENDBRANCH   9  10
ENDBRANCH   3   9
BRANCH   6  25
ATOM     25  C   UNL     1      44.479   4.808  10.469  0.00  0.00    +0.000 C 
BRANCH  25  26
ATOM     26  N   UNL     1      45.230   4.288   9.351  0.00  0.00    +0.000 N 
ATOM     27  C   UNL     1      45.105   3.006   8.868  0.00  0.00    +0.000 C 
ATOM     28  O   UNL     1      44.293   2.199   9.314  0.00  0.00    +0.000 OA
ATOM     29  H   UNL     1      45.885   4.909   8.904  0.00  0.00    +0.000 HD
BRANCH  27  30
ATOM     30  C   UNL     1      46.014   2.686   7.782  0.00  0.00    +0.000 A 
ATOM     31  C   UNL     1      46.390   3.406   6.657  0.00  0.00    +0.000 A 
ATOM     32  C   UNL     1      47.298   2.623   5.904  0.00  0.00    +0.000 A 
ATOM     33  C   UNL     1      47.475   1.443   6.585  0.00  0.00    +0.000 A 
ATOM     34  N   UNL     1      46.716   1.496   7.725  0.00  0.00    +0.000 N 
ATOM     35  H   UNL     1      46.659   0.771   8.432  0.00  0.00    +0.000 HD
ENDBRANCH  27  30
ENDBRANCH  25  26
ENDBRANCH   6  25
TORSDOF 7
ENDMDL
MODEL 8
REMARK VINA RESULT:    -7.222      1.704      2.291
REMARK INTER + INTRA:         -11.262
REMARK INTER:                 -10.451
REMARK INTRA:                  -0.811
REMARK UNBOUND:                -1.085
REMARK  Name = 
REMARK  7 active torsions:
REMARK  status: ('A' for Active; 'I' for Inactive)
REMARK    1  A    between atoms: C_2  and  C_3
REMARK    2  A    between atoms: C_5  and  C_6
REMARK    3  A    between atoms: C_6  and  N_7
REMARK    4  A    between atoms: C_8  and  C_10
REMARK    5  A    between atoms: C_22  and  C_23
REMARK    6  A    between atoms: C_23  and  N_24
REMARK    7  A    between atoms: C_25  and  C_27
REMARK                            x       y       z     vdW  Elec       q    Type
REMARK                         _______ _______ _______ _____ _____    ______ ____
ROOT
ATOM      1  C   UNL     1      45.696   5.299  12.365  0.00  0.00    +0.000 A 
ATOM      2  C   UNL     1      46.521   6.137  13.140  0.00  0.00    +0.000 A 
ATOM      3  C   UNL     1      46.546   7.523  12.936  0.00  0.00    +0.000 A 
ATOM      4  C   UNL     1      45.748   8.059  11.919  0.00  0.00    +0.000 A 
ATOM      5  C   UNL     1      44.927   7.234  11.143  0.00  0.00    +0.000 A 
ATOM      6  C   UNL     1      44.877   5.845  11.358  0.00  0.00    +0.000 A 
ENDROOT
BRANCH   1   8
ATOM      7  N   UNL     1      45.731   2.752  12.871  0.00  0.00    +0.000 NA
ATOM      8  C   UNL     1      45.722   3.889  12.649  0.00  0.00    +0.000 C 
ENDBRANCH   1   8
BRANCH   3   9
ATOM      9  C   UNL     1      47.458   8.409  13.755  0.00  0.00    +0.000 C 
BRANCH   9  10
ATOM     10  N   UNL     1      47.700   7.837  15.055  0.00  0.00    +0.000 N 
ATOM     11  C   UNL     1      48.917   7.303  15.404  0.00  0.00    +0.000 C 
ATOM     12  O   UNL     1      49.876   7.315  14.643  0.00  0.00    +0.000 OA
ATOM     13  H   UNL     1      46.881   7.577  15.595  0.00  0.00    +0.000 HD
BRANCH  11  14
ATOM     14  C   UNL     1      49.021   6.770  16.772  0.00  0.00    +0.000 A 
ATOM     15  C   UNL     1      49.560   5.509  16.985  0.00  0.00    +0.000 A 
ATOM     16  S   UNL     1      49.641   5.069  18.634  0.00  0.00    +0.000 S 
ATOM     17  C   UNL     1      48.913   6.530  19.115  0.00  0.00    +0.000 A 
ATOM     18  N   UNL     1      48.657   6.788  20.427  0.00  0.00    +0.000 NA
ATOM     19  C   UNL     1      48.084   7.924  20.647  0.00  0.00    +0.000 A 
ATOM     20  N   UNL     1      47.752   8.830  19.673  0.00  0.00    +0.000 N 
ATOM     21  C   UNL     1      48.017   8.628  18.342  0.00  0.00    +0.000 A 
ATOM     22  O   UNL     1      47.755   9.483  17.506  0.00  0.00    +0.000 OA
ATOM     23  C   UNL     1      48.641   7.354  18.037  0.00  0.00    +0.000 A 
ATOM     24  H   UNL     1      47.320   9.710  19.913  0.00  0.00    +0.000 HD
ENDBRANCH  11  14
ENDBRANCH   9  10
ENDBRANCH   3   9
BRANCH   6  25
ATOM     25  C   UNL     1      43.964   5.014  10.484  0.00  0.00    +0.000 C 
BRANCH  25  26
ATOM     26  N   UNL     1      44.673   3.942   9.826  0.00  0.00    +0.000 N 
ATOM     27  C   UNL     1      45.565   4.127   8.795  0.00  0.00    +0.000 C 
ATOM     28  O   UNL     1      45.882   5.238   8.376  0.00  0.00    +0.000 OA
ATOM     29  H   UNL     1      44.498   3.004  10.147  0.00  0.00    +0.000 HD
BRANCH  27  30
ATOM     30  C   UNL     1      46.103   2.897   8.243  0.00  0.00    +0.000 A 
ATOM     31  C   UNL     1      45.825   1.567   8.521  0.00  0.00    +0.000 A 
ATOM     32  C   UNL     1      46.648   0.755   7.705  0.00  0.00    +0.000 A 
ATOM     33  C   UNL     1      47.407   1.598   6.929  0.00  0.00    +0.000 A 
ATOM     34  N   UNL     1      47.059   2.886   7.243  0.00  0.00    +0.000 N 
ATOM     35  H   UNL     1      47.442   3.723   6.817  0.00  0.00    +0.000 HD
ENDBRANCH  27  30
ENDBRANCH  25  26
ENDBRANCH   6  25
TORSDOF 7
ENDMDL
MODEL 9
REMARK VINA RESULT:    -7.135      3.063      4.571
REMARK INTER + INTRA:         -11.140
REMARK INTER:                  -9.832
REMARK INTRA:                  -1.307
REMARK UNBOUND:                -1.085
REMARK  Name = 
REMARK  7 active torsions:
REMARK  status: ('A' for Active; 'I' for Inactive)
REMARK    1  A    between atoms: C_2  and  C_3
REMARK    2  A    between atoms: C_5  and  C_6
REMARK    3  A    between atoms: C_6  and  N_7
REMARK    4  A    between atoms: C_8  and  C_10
REMARK    5  A    between atoms: C_22  and  C_23
REMARK    6  A    between atoms: C_23  and  N_24
REMARK    7  A    between atoms: C_25  and  C_27
REMARK                            x       y       z     vdW  Elec       q    Type
REMARK                         _______ _______ _______ _____ _____    ______ ____
ROOT
ATOM      1  C   UNL     1      45.341   4.753  12.501  0.00  0.00    +0.000 A 
ATOM      2  C   UNL     1      46.200   5.072  13.571  0.00  0.00    +0.000 A 
ATOM      3  C   UNL     1      47.138   6.108  13.466  0.00  0.00    +0.000 A 
ATOM      4  C   UNL     1      47.224   6.805  12.256  0.00  0.00    +0.000 A 
ATOM      5  C   UNL     1      46.376   6.493  11.187  0.00  0.00    +0.000 A 
ATOM      6  C   UNL     1      45.415   5.472  11.293  0.00  0.00    +0.000 A 
ENDROOT
BRANCH   1   8
ATOM      7  N   UNL     1      43.649   2.814  12.853  0.00  0.00    +0.000 NA
ATOM      8  C   UNL     1      44.399   3.684  12.698  0.00  0.00    +0.000 C 
ENDBRANCH   1   8
BRANCH   3   9
ATOM      9  C   UNL     1      48.075   6.423  14.611  0.00  0.00    +0.000 C 
BRANCH   9  10
ATOM     10  N   UNL     1      49.009   7.455  14.242  0.00  0.00    +0.000 N 
ATOM     11  C   UNL     1      50.278   7.516  14.767  0.00  0.00    +0.000 C 
ATOM     12  O   UNL     1      50.699   6.675  15.552  0.00  0.00    +0.000 OA
ATOM     13  H   UNL     1      48.618   8.289  13.817  0.00  0.00    +0.000 HD
BRANCH  11  14
ATOM     14  C   UNL     1      51.127   8.616  14.284  0.00  0.00    +0.000 A 
ATOM     15  C   UNL     1      51.683   9.511  15.187  0.00  0.00    +0.000 A 
ATOM     16  S   UNL     1      52.671  10.697  14.457  0.00  0.00    +0.000 S 
ATOM     17  C   UNL     1      52.348  10.084  12.902  0.00  0.00    +0.000 A 
ATOM     18  N   UNL     1      52.874  10.672  11.792  0.00  0.00    +0.000 NA
ATOM     19  C   UNL     1      52.532  10.117  10.678  0.00  0.00    +0.000 A 
ATOM     20  N   UNL     1      51.719   9.019  10.575  0.00  0.00    +0.000 N 
ATOM     21  C   UNL     1      51.190   8.374  11.664  0.00  0.00    +0.000 A 
ATOM     22  O   UNL     1      50.511   7.362  11.536  0.00  0.00    +0.000 OA
ATOM     23  C   UNL     1      51.526   8.973  12.942  0.00  0.00    +0.000 A 
ATOM     24  H   UNL     1      51.502   8.620   9.672  0.00  0.00    +0.000 HD
ENDBRANCH  11  14
ENDBRANCH   9  10
ENDBRANCH   3   9
BRANCH   6  25
ATOM     25  C   UNL     1      44.529   5.191  10.100  0.00  0.00    +0.000 C 
BRANCH  25  26
ATOM     26  N   UNL     1      45.241   4.501   9.049  0.00  0.00    +0.000 N 
ATOM     27  C   UNL     1      45.181   3.142   8.843  0.00  0.00    +0.000 C 
ATOM     28  O   UNL     1      44.465   2.396   9.505  0.00  0.00    +0.000 OA
ATOM     29  H   UNL     1      45.814   5.056   8.436  0.00  0.00    +0.000 HD
BRANCH  27  30
ATOM     30  C   UNL     1      46.035   2.663   7.772  0.00  0.00    +0.000 A 
ATOM     31  C   UNL     1      46.763   1.491   7.631  0.00  0.00    +0.000 A 
ATOM     32  C   UNL     1      47.445   1.529   6.392  0.00  0.00    +0.000 A 
ATOM     33  C   UNL     1      47.115   2.717   5.785  0.00  0.00    +0.000 A 
ATOM     34  N   UNL     1      46.249   3.386   6.612  0.00  0.00    +0.000 N 
ATOM     35  H   UNL     1      45.824   4.286   6.419  0.00  0.00    +0.000 HD
ENDBRANCH  27  30
ENDBRANCH  25  26
ENDBRANCH   6  25
TORSDOF 7
ENDMDL
