MODEL 1
REMARK VINA RESULT:    -7.782      0.000      0.000
REMARK INTER + INTRA:         -12.222
REMARK INTER:                 -10.967
REMARK INTRA:                  -1.255
REMARK UNBOUND:                -1.255
REMARK  Name = 
REMARK  8 active torsions:
REMARK  status: ('A' for Active; 'I' for Inactive)
REMARK    1  A    between atoms: C_1  and  C_2
REMARK    2  A    between atoms: C_2  and  N_3
REMARK    3  A    between atoms: C_2  and  C_18
REMARK    4  A    between atoms: N_3  and  C_4
REMARK    5  A    between atoms: C_7  and  C_8
REMARK    6  A    between atoms: C_8  and  O_9
REMARK    7  A    between atoms: O_9  and  C_10
REMARK    8  A    between atoms: C_18  and  C_20
REMARK                            x       y       z     vdW  Elec       q    Type
REMARK                         _______ _______ _______ _____ _____    ______ ____
ROOT
ATOM      1  N   UNL     1      47.173   6.045  14.417  0.00  0.00    +0.000 N 
ATOM      2  H   UNL     1      46.826   6.061  15.380  0.00  0.00    +0.000 HD
ENDROOT
BRANCH   1   3
ATOM      3  C   UNL     1      46.356   5.425  13.499  0.00  0.00    +0.000 A 
ATOM      4  C   UNL     1      46.386   4.024  13.434  0.00  0.00    +0.000 A 
ATOM      5  C   UNL     1      45.644   3.317  12.483  0.00  0.00    +0.000 A 
ATOM      6  C   UNL     1      44.850   4.003  11.561  0.00  0.00    +0.000 A 
ATOM      7  C   UNL     1      44.806   5.400  11.622  0.00  0.00    +0.000 A 
ATOM      8  C   UNL     1      45.570   6.098  12.565  0.00  0.00    +0.000 A 
BRANCH   6   9
ATOM      9  C   UNL     1      44.031   3.258  10.539  0.00  0.00    +0.000 C 
BRANCH   9  10
ATOM     10  O   UNL     1      44.173   3.921   9.289  0.00  0.00    +0.000 OA
BRANCH  10  11
ATOM     11  C   UNL     1      45.186   3.363   8.543  0.00  0.00    +0.000 A 
ATOM     12  N   UNL     1      45.389   2.056   8.747  0.00  0.00    +0.000 NA
ATOM     13  C   UNL     1      46.370   1.496   8.014  0.00  0.00    +0.000 A 
ATOM     14  C   UNL     1      47.120   2.179   7.088  0.00  0.00    +0.000 A 
ATOM     15  C   UNL     1      46.814   3.511   6.951  0.00  0.00    +0.000 A 
ATOM     16  N   UNL     1      45.857   4.130   7.665  0.00  0.00    +0.000 NA
ENDBRANCH  10  11
ENDBRANCH   9  10
ENDBRANCH   6   9
ENDBRANCH   1   3
BRANCH   1  18
ATOM     17  C   UNL     1      48.880   6.640  12.830  0.00  0.00    +0.000 C 
ATOM     18  C   UNL     1      48.214   7.042  14.147  0.00  0.00    +0.000 C 
BRANCH  18  19
ATOM     19  C   UNL     1      49.243   7.022  15.295  0.00  0.00    +0.000 C 
ATOM     20  O   UNL     1      50.449   6.975  15.039  0.00  0.00    +0.000 OA
BRANCH  19  21
ATOM     21  C   UNL     1      48.794   7.144  16.691  0.00  0.00    +0.000 A 
ATOM     22  C   UNL     1      48.450   8.327  17.324  0.00  0.00    +0.000 A 
ATOM     23  S   UNL     1      48.331   8.155  19.026  0.00  0.00    +0.000 S 
ATOM     24  C   UNL     1      48.603   6.477  18.932  0.00  0.00    +0.000 A 
ATOM     25  N   UNL     1      48.682   5.701  20.045  0.00  0.00    +0.000 NA
ATOM     26  C   UNL     1      48.833   4.440  19.798  0.00  0.00    +0.000 A 
ATOM     27  N   UNL     1      48.879   3.884  18.543  0.00  0.00    +0.000 N 
ATOM     28  C   UNL     1      48.723   4.621  17.393  0.00  0.00    +0.000 A 
ATOM     29  O   UNL     1      48.507   4.084  16.312  0.00  0.00    +0.000 OA
ATOM     30  C   UNL     1      48.696   6.053  17.623  0.00  0.00    +0.000 A 
ATOM     31  H   UNL     1      48.875   2.882  18.422  0.00  0.00    +0.000 HD
ENDBRANCH  19  21
ENDBRANCH  18  19
ENDBRANCH   1  18
TORSDOF 7
ENDMDL
MODEL 2
REMARK VINA RESULT:    -7.681      1.952      2.513
REMARK INTER + INTRA:         -12.080
REMARK INTER:                 -11.315
REMARK INTRA:                  -0.765
REMARK UNBOUND:                -1.255
REMARK  Name = 
REMARK  8 active torsions:
REMARK  status: ('A' for Active; 'I' for Inactive)
REMARK    1  A    between atoms: C_1  and  C_2
REMARK    2  A    between atoms: C_2  and  N_3
REMARK    3  A    between atoms: C_2  and  C_18
REMARK    4  A    between atoms: N_3  and  C_4
REMARK    5  A    between atoms: C_7  and  C_8
REMARK    6  A    between atoms: C_8  and  O_9
REMARK    7  A    between atoms: O_9  and  C_10
REMARK    8  A    between atoms: C_18  and  C_20
REMARK                            x       y       z     vdW  Elec       q    Type
REMARK                         _______ _______ _______ _____ _____    ______ ____
ROOT
ATOM      1  N   UNL     1      47.289   4.156  14.654  0.00  0.00    +0.000 N 
ATOM      2  H   UNL     1      47.680   3.221  14.802  0.00  0.00    +0.000 HD
ENDROOT
BRANCH   1   3
ATOM      3  C   UNL     1      46.525   4.309  13.519  0.00  0.00    +0.000 A 
ATOM      4  C   UNL     1      45.840   3.186  13.032  0.00  0.00    +0.000 A 
ATOM      5  C   UNL     1      45.101   3.235  11.845  0.00  0.00    +0.000 A 
ATOM      6  C   UNL     1      45.033   4.419  11.109  0.00  0.00    +0.000 A 
ATOM      7  C   UNL     1      45.706   5.548  11.590  0.00  0.00    +0.000 A 
ATOM      8  C   UNL     1      46.461   5.482  12.767  0.00  0.00    +0.000 A 
BRANCH   6   9
ATOM      9  C   UNL     1      44.228   4.495   9.838  0.00  0.00    +0.000 C 
BRANCH   9  10
ATOM     10  O   UNL     1      44.158   3.189   9.280  0.00  0.00    +0.000 OA
BRANCH  10  11
ATOM     11  C   UNL     1      45.229   2.942   8.453  0.00  0.00    +0.000 A 
ATOM     12  N   UNL     1      45.725   1.701   8.522  0.00  0.00    +0.000 NA
ATOM     13  C   UNL     1      46.767   1.442   7.709  0.00  0.00    +0.000 A 
ATOM     14  C   UNL     1      47.301   2.355   6.833  0.00  0.00    +0.000 A 
ATOM     15  C   UNL     1      46.702   3.592   6.836  0.00  0.00    +0.000 A 
ATOM     16  N   UNL     1      45.669   3.914   7.635  0.00  0.00    +0.000 NA
ENDBRANCH  10  11
ENDBRANCH   9  10
ENDBRANCH   6   9
ENDBRANCH   1   3
BRANCH   1  18
ATOM     17  C   UNL     1      48.492   5.879  15.826  0.00  0.00    +0.000 C 
ATOM     18  C   UNL     1      47.253   4.981  15.865  0.00  0.00    +0.000 C 
BRANCH  18  19
ATOM     19  C   UNL     1      47.297   4.064  17.104  0.00  0.00    +0.000 C 
ATOM     20  O   UNL     1      46.522   3.107  17.188  0.00  0.00    +0.000 OA
BRANCH  19  21
ATOM     21  C   UNL     1      48.316   4.276  18.143  0.00  0.00    +0.000 A 
ATOM     22  C   UNL     1      48.156   5.052  19.279  0.00  0.00    +0.000 A 
ATOM     23  S   UNL     1      49.640   5.375  20.074  0.00  0.00    +0.000 S 
ATOM     24  C   UNL     1      50.500   4.377  18.995  0.00  0.00    +0.000 A 
ATOM     25  N   UNL     1      51.849   4.237  19.070  0.00  0.00    +0.000 NA
ATOM     26  C   UNL     1      52.340   3.398  18.216  0.00  0.00    +0.000 A 
ATOM     27  N   UNL     1      51.601   2.665  17.320  0.00  0.00    +0.000 N 
ATOM     28  C   UNL     1      50.228   2.715  17.265  0.00  0.00    +0.000 A 
ATOM     29  O   UNL     1      49.579   1.874  16.651  0.00  0.00    +0.000 OA
ATOM     30  C   UNL     1      49.653   3.748  18.106  0.00  0.00    +0.000 A 
ATOM     31  H   UNL     1      52.032   1.939  16.767  0.00  0.00    +0.000 HD
ENDBRANCH  19  21
ENDBRANCH  18  19
ENDBRANCH   1  18
TORSDOF 7
ENDMDL
MODEL 3
REMARK VINA RESULT:    -7.619      1.545      2.046
REMARK INTER + INTRA:         -11.992
REMARK INTER:                 -11.726
REMARK INTRA:                  -0.266
REMARK UNBOUND:                -1.255
REMARK  Name = 
REMARK  8 active torsions:
REMARK  status: ('A' for Active; 'I' for Inactive)
REMARK    1  A    between atoms: C_1  and  C_2
REMARK    2  A    between atoms: C_2  and  N_3
REMARK    3  A    between atoms: C_2  and  C_18
REMARK    4  A    between atoms: N_3  and  C_4
REMARK    5  A    between atoms: C_7  and  C_8
REMARK    6  A    between atoms: C_8  and  O_9
REMARK    7  A    between atoms: O_9  and  C_10
REMARK    8  A    between atoms: C_18  and  C_20
REMARK                            x       y       z     vdW  Elec       q    Type
REMARK                         _______ _______ _______ _____ _____    ______ ____
ROOT
ATOM      1  N   UNL     1      46.067   7.543  13.375  0.00  0.00    +0.000 N 
ATOM      2  H   UNL     1      45.395   8.284  13.588  0.00  0.00    +0.000 HD
ENDROOT
BRANCH   1   3
ATOM      3  C   UNL     1      45.617   6.556  12.526  0.00  0.00    +0.000 A 
ATOM      4  C   UNL     1      46.001   6.623  11.179  0.00  0.00    +0.000 A 
ATOM      5  C   UNL     1      45.530   5.705  10.235  0.00  0.00    +0.000 A 
ATOM      6  C   UNL     1      44.651   4.690  10.621  0.00  0.00    +0.000 A 
ATOM      7  C   UNL     1      44.269   4.609  11.964  0.00  0.00    +0.000 A 
ATOM      8  C   UNL     1      44.728   5.547  12.896  0.00  0.00    +0.000 A 
BRANCH   6   9
ATOM      9  C   UNL     1      44.147   3.682   9.622  0.00  0.00    +0.000 C 
BRANCH   9  10
ATOM     10  O   UNL     1      44.970   2.525   9.707  0.00  0.00    +0.000 OA
BRANCH  10  11
ATOM     11  C   UNL     1      45.679   2.332   8.543  0.00  0.00    +0.000 A 
ATOM     12  N   UNL     1      45.680   3.371   7.699  0.00  0.00    +0.000 NA
ATOM     13  C   UNL     1      46.380   3.198   6.562  0.00  0.00    +0.000 A 
ATOM     14  C   UNL     1      47.083   2.058   6.260  0.00  0.00    +0.000 A 
ATOM     15  C   UNL     1      47.025   1.064   7.206  0.00  0.00    +0.000 A 
ATOM     16  N   UNL     1      46.330   1.171   8.353  0.00  0.00    +0.000 NA
ENDBRANCH  10  11
ENDBRANCH   9  10
ENDBRANCH   6   9
ENDBRANCH   1   3
BRANCH   1  18
ATOM     17  C   UNL     1      48.043   8.439  12.334  0.00  0.00    +0.000 C 
ATOM     18  C   UNL     1      47.460   7.911  13.647  0.00  0.00    +0.000 C 
BRANCH  18  19
ATOM     19  C   UNL     1      48.232   6.659  14.109  0.00  0.00    +0.000 C 
ATOM     20  O   UNL     1      48.666   5.860  13.275  0.00  0.00    +0.000 OA
BRANCH  19  21
ATOM     21  C   UNL     1      48.526   6.459  15.537  0.00  0.00    +0.000 A 
ATOM     22  C   UNL     1      49.164   7.370  16.362  0.00  0.00    +0.000 A 
ATOM     23  S   UNL     1      49.667   6.679  17.848  0.00  0.00    +0.000 S 
ATOM     24  C   UNL     1      48.925   5.193  17.472  0.00  0.00    +0.000 A 
ATOM     25  N   UNL     1      49.011   4.120  18.301  0.00  0.00    +0.000 NA
ATOM     26  C   UNL     1      48.344   3.088  17.897  0.00  0.00    +0.000 A 
ATOM     27  N   UNL     1      47.574   3.044  16.761  0.00  0.00    +0.000 N 
ATOM     28  C   UNL     1      47.394   4.130  15.938  0.00  0.00    +0.000 A 
ATOM     29  O   UNL     1      46.510   4.151  15.087  0.00  0.00    +0.000 OA
ATOM     30  C   UNL     1      48.239   5.260  16.277  0.00  0.00    +0.000 A 
ATOM     31  H   UNL     1      46.982   2.250  16.569  0.00  0.00    +0.000 HD
ENDBRANCH  19  21
ENDBRANCH  18  19
ENDBRANCH   1  18
TORSDOF 7
ENDMDL
MODEL 4
REMARK VINA RESULT:    -7.292      1.759      2.257
REMARK INTER + INTRA:         -11.532
REMARK INTER:                 -10.683
REMARK INTRA:                  -0.849
REMARK UNBOUND:                -1.255
REMARK  Name = 
REMARK  8 active torsions:
REMARK  status: ('A' for Active; 'I' for Inactive)
REMARK    1  A    between atoms: C_1  and  C_2
REMARK    2  A    between atoms: C_2  and  N_3
REMARK    3  A    between atoms: C_2  and  C_18
REMARK    4  A    between atoms: N_3  and  C_4
REMARK    5  A    between atoms: C_7  and  C_8
REMARK    6  A    between atoms: C_8  and  O_9
REMARK    7  A    between atoms: O_9  and  C_10
REMARK    8  A    between atoms: C_18  and  C_20
REMARK                            x       y       z     vdW  Elec       q    Type
REMARK                         _______ _______ _______ _____ _____    ______ ____
ROOT
ATOM      1  N   UNL     1      45.922   7.412  13.353  0.00  0.00    +0.000 N 
ATOM      2  H   UNL     1      45.256   8.152  13.589  0.00  0.00    +0.000 HD
ENDROOT
BRANCH   1   3
ATOM      3  C   UNL     1      45.495   6.504  12.410  0.00  0.00    +0.000 A 
ATOM      4  C   UNL     1      44.664   5.458  12.835  0.00  0.00    +0.000 A 
ATOM      5  C   UNL     1      44.244   4.451  11.958  0.00  0.00    +0.000 A 
ATOM      6  C   UNL     1      44.654   4.468  10.623  0.00  0.00    +0.000 A 
ATOM      7  C   UNL     1      45.476   5.512  10.187  0.00  0.00    +0.000 A 
ATOM      8  C   UNL     1      45.908   6.502  11.078  0.00  0.00    +0.000 A 
BRANCH   6   9
ATOM      9  C   UNL     1      44.198   3.402   9.661  0.00  0.00    +0.000 C 
BRANCH   9  10
ATOM     10  O   UNL     1      45.153   2.349   9.682  0.00  0.00    +0.000 OA
BRANCH  10  11
ATOM     11  C   UNL     1      45.830   2.266   8.487  0.00  0.00    +0.000 A 
ATOM     12  N   UNL     1      46.450   1.101   8.265  0.00  0.00    +0.000 NA
ATOM     13  C   UNL     1      47.107   1.004   7.094  0.00  0.00    +0.000 A 
ATOM     14  C   UNL     1      47.143   2.000   6.149  0.00  0.00    +0.000 A 
ATOM     15  C   UNL     1      46.459   3.145   6.477  0.00  0.00    +0.000 A 
ATOM     16  N   UNL     1      45.798   3.308   7.637  0.00  0.00    +0.000 NA
ENDBRANCH  10  11
ENDBRANCH   9  10
ENDBRANCH   6   9
ENDBRANCH   1   3
BRANCH   1  18
ATOM     17  C   UNL     1      47.882   8.583  12.594  0.00  0.00    +0.000 C 
ATOM     18  C   UNL     1      47.307   7.722  13.721  0.00  0.00    +0.000 C 
BRANCH  18  19
ATOM     19  C   UNL     1      48.103   6.407  13.848  0.00  0.00    +0.000 C 
ATOM     20  O   UNL     1      48.841   6.043  12.929  0.00  0.00    +0.000 OA
BRANCH  19  21
ATOM     21  C   UNL     1      48.049   5.631  15.097  0.00  0.00    +0.000 A 
ATOM     22  C   UNL     1      47.254   4.519  15.318  0.00  0.00    +0.000 A 
ATOM     23  S   UNL     1      47.163   4.089  16.976  0.00  0.00    +0.000 S 
ATOM     24  C   UNL     1      48.287   5.294  17.406  0.00  0.00    +0.000 A 
ATOM     25  N   UNL     1      48.635   5.518  18.701  0.00  0.00    +0.000 NA
ATOM     26  C   UNL     1      49.544   6.427  18.852  0.00  0.00    +0.000 A 
ATOM     27  N   UNL     1      50.156   7.106  17.827  0.00  0.00    +0.000 N 
ATOM     28  C   UNL     1      49.892   6.853  16.501  0.00  0.00    +0.000 A 
ATOM     29  O   UNL     1      50.624   7.273  15.610  0.00  0.00    +0.000 OA
ATOM     30  C   UNL     1      48.779   5.946  16.295  0.00  0.00    +0.000 A 
ATOM     31  H   UNL     1      50.942   7.712  18.006  0.00  0.00    +0.000 HD
ENDBRANCH  19  21
ENDBRANCH  18  19
ENDBRANCH   1  18
TORSDOF 7
ENDMDL
MODEL 5
REMARK VINA RESULT:    -7.276      2.872      4.883
REMARK INTER + INTRA:         -11.509
REMARK INTER:                 -10.068
REMARK INTRA:                  -1.440
REMARK UNBOUND:                -1.255
REMARK  Name = 
REMARK  8 active torsions:
REMARK  status: ('A' for Active; 'I' for Inactive)
REMARK    1  A    between atoms: C_1  and  C_2
REMARK    2  A    between atoms: C_2  and  N_3
REMARK    3  A    between atoms: C_2  and  C_18
REMARK    4  A    between atoms: N_3  and  C_4
REMARK    5  A    between atoms: C_7  and  C_8
REMARK    6  A    between atoms: C_8  and  O_9
REMARK    7  A    between atoms: O_9  and  C_10
REMARK    8  A    between atoms: C_18  and  C_20
REMARK                            x       y       z     vdW  Elec       q    Type
REMARK                         _______ _______ _______ _____ _____    ______ ____
ROOT
ATOM      1  N   UNL     1      46.717   6.155  14.026  0.00  0.00    +0.000 N 
ATOM      2  H   UNL     1      46.219   7.031  14.203  0.00  0.00    +0.000 HD
ENDROOT
BRANCH   1   3
ATOM      3  C   UNL     1      46.168   5.340  13.062  0.00  0.00    +0.000 A 
ATOM      4  C   UNL     1      45.684   5.941  11.891  0.00  0.00    +0.000 A 
ATOM      5  C   UNL     1      45.045   5.198  10.894  0.00  0.00    +0.000 A 
ATOM      6  C   UNL     1      44.869   3.821  11.049  0.00  0.00    +0.000 A 
ATOM      7  C   UNL     1      45.356   3.210  12.210  0.00  0.00    +0.000 A 
ATOM      8  C   UNL     1      45.974   3.967  13.211  0.00  0.00    +0.000 A 
BRANCH   6   9
ATOM      9  C   UNL     1      44.199   3.001   9.978  0.00  0.00    +0.000 C 
BRANCH   9  10
ATOM     10  O   UNL     1      44.489   3.595   8.719  0.00  0.00    +0.000 OA
BRANCH  10  11
ATOM     11  C   UNL     1      45.528   2.948   8.091  0.00  0.00    +0.000 A 
ATOM     12  N   UNL     1      46.260   3.713   7.272  0.00  0.00    +0.000 NA
ATOM     13  C   UNL     1      47.288   3.095   6.659  0.00  0.00    +0.000 A 
ATOM     14  C   UNL     1      47.614   1.776   6.853  0.00  0.00    +0.000 A 
ATOM     15  C   UNL     1      46.804   1.092   7.727  0.00  0.00    +0.000 A 
ATOM     16  N   UNL     1      45.755   1.650   8.357  0.00  0.00    +0.000 NA
ENDBRANCH  10  11
ENDBRANCH   9  10
ENDBRANCH   6   9
ENDBRANCH   1   3
BRANCH   1  18
ATOM     17  C   UNL     1      48.096   5.576  15.911  0.00  0.00    +0.000 C 
ATOM     18  C   UNL     1      48.106   6.160  14.497  0.00  0.00    +0.000 C 
BRANCH  18  19
ATOM     19  C   UNL     1      48.627   7.611  14.521  0.00  0.00    +0.000 C 
ATOM     20  O   UNL     1      48.794   8.187  15.599  0.00  0.00    +0.000 OA
BRANCH  19  21
ATOM     21  C   UNL     1      49.004   8.280  13.266  0.00  0.00    +0.000 A 
ATOM     22  C   UNL     1      50.202   8.109  12.592  0.00  0.00    +0.000 A 
ATOM     23  S   UNL     1      50.459   9.299  11.385  0.00  0.00    +0.000 S 
ATOM     24  C   UNL     1      48.921   9.979  11.650  0.00  0.00    +0.000 A 
ATOM     25  N   UNL     1      48.501  11.083  10.978  0.00  0.00    +0.000 NA
ATOM     26  C   UNL     1      47.286  11.437  11.253  0.00  0.00    +0.000 A 
ATOM     27  N   UNL     1      46.447  10.769  12.111  0.00  0.00    +0.000 N 
ATOM     28  C   UNL     1      46.804   9.604  12.748  0.00  0.00    +0.000 A 
ATOM     29  O   UNL     1      45.968   8.891  13.294  0.00  0.00    +0.000 OA
ATOM     30  C   UNL     1      48.202   9.256  12.579  0.00  0.00    +0.000 A 
ATOM     31  H   UNL     1      45.475  11.026  12.186  0.00  0.00    +0.000 HD
ENDBRANCH  19  21
ENDBRANCH  18  19
ENDBRANCH   1  18
TORSDOF 7
ENDMDL
MODEL 6
REMARK VINA RESULT:    -7.211      1.615      1.836
REMARK INTER + INTRA:         -11.418
REMARK INTER:                 -10.461
REMARK INTRA:                  -0.957
REMARK UNBOUND:                -1.255
REMARK  Name = 
REMARK  8 active torsions:
REMARK  status: ('A' for Active; 'I' for Inactive)
REMARK    1  A    between atoms: C_1  and  C_2
REMARK    2  A    between atoms: C_2  and  N_3
REMARK    3  A    between atoms: C_2  and  C_18
REMARK    4  A    between atoms: N_3  and  C_4
REMARK    5  A    between atoms: C_7  and  C_8
REMARK    6  A    between atoms: C_8  and  O_9
REMARK    7  A    between atoms: O_9  and  C_10
REMARK    8  A    between atoms: C_18  and  C_20
REMARK                            x       y       z     vdW  Elec       q    Type
REMARK                         _______ _______ _______ _____ _____    ______ ____
ROOT
ATOM      1  N   UNL     1      47.767   6.001  14.488  0.00  0.00    +0.000 N 
ATOM      2  H   UNL     1      47.853   5.478  15.364  0.00  0.00    +0.000 HD
ENDROOT
BRANCH   1   3
ATOM      3  C   UNL     1      46.811   5.543  13.611  0.00  0.00    +0.000 A 
ATOM      4  C   UNL     1      46.520   4.171  13.614  0.00  0.00    +0.000 A 
ATOM      5  C   UNL     1      45.616   3.610  12.706  0.00  0.00    +0.000 A 
ATOM      6  C   UNL     1      44.978   4.417  11.762  0.00  0.00    +0.000 A 
ATOM      7  C   UNL     1      45.254   5.788  11.756  0.00  0.00    +0.000 A 
ATOM      8  C   UNL     1      46.178   6.335  12.654  0.00  0.00    +0.000 A 
BRANCH   6   9
ATOM      9  C   UNL     1      43.988   3.833  10.787  0.00  0.00    +0.000 C 
BRANCH   9  10
ATOM     10  O   UNL     1      44.209   4.437   9.519  0.00  0.00    +0.000 OA
BRANCH  10  11
ATOM     11  C   UNL     1      45.115   3.716   8.775  0.00  0.00    +0.000 A 
ATOM     12  N   UNL     1      45.133   2.401   9.021  0.00  0.00    +0.000 NA
ATOM     13  C   UNL     1      46.008   1.683   8.291  0.00  0.00    +0.000 A 
ATOM     14  C   UNL     1      46.828   2.221   7.329  0.00  0.00    +0.000 A 
ATOM     15  C   UNL     1      46.712   3.578   7.151  0.00  0.00    +0.000 A 
ATOM     16  N   UNL     1      45.869   4.350   7.859  0.00  0.00    +0.000 NA
ENDBRANCH  10  11
ENDBRANCH   9  10
ENDBRANCH   6   9
ENDBRANCH   1   3
BRANCH   1  18
ATOM     17  C   UNL     1      49.520   7.364  13.562  0.00  0.00    +0.000 C 
ATOM     18  C   UNL     1      48.348   7.347  14.544  0.00  0.00    +0.000 C 
BRANCH  18  19
ATOM     19  C   UNL     1      48.846   7.623  15.977  0.00  0.00    +0.000 C 
ATOM     20  O   UNL     1      48.293   8.484  16.666  0.00  0.00    +0.000 OA
BRANCH  19  21
ATOM     21  C   UNL     1      49.924   6.804  16.554  0.00  0.00    +0.000 A 
ATOM     22  C   UNL     1      51.245   7.197  16.693  0.00  0.00    +0.000 A 
ATOM     23  S   UNL     1      52.290   5.886  17.055  0.00  0.00    +0.000 S 
ATOM     24  C   UNL     1      50.983   4.801  17.163  0.00  0.00    +0.000 A 
ATOM     25  N   UNL     1      51.170   3.476  17.399  0.00  0.00    +0.000 NA
ATOM     26  C   UNL     1      50.072   2.800  17.511  0.00  0.00    +0.000 A 
ATOM     27  N   UNL     1      48.808   3.335  17.440  0.00  0.00    +0.000 N 
ATOM     28  C   UNL     1      48.574   4.680  17.283  0.00  0.00    +0.000 A 
ATOM     29  O   UNL     1      47.465   5.166  17.482  0.00  0.00    +0.000 OA
ATOM     30  C   UNL     1      49.774   5.448  17.010  0.00  0.00    +0.000 A 
ATOM     31  H   UNL     1      47.998   2.774  17.657  0.00  0.00    +0.000 HD
ENDBRANCH  19  21
ENDBRANCH  18  19
ENDBRANCH   1  18
TORSDOF 7
ENDMDL
MODEL 7
REMARK VINA RESULT:    -6.959      1.682      2.087
REMARK INTER + INTRA:         -11.063
REMARK INTER:                 -10.365
REMARK INTRA:                  -0.698
REMARK UNBOUND:                -1.255
REMARK  Name = 
REMARK  8 active torsions:
REMARK  status: ('A' for Active; 'I' for Inactive)
REMARK    1  A    between atoms: C_1  and  C_2
REMARK    2  A    between atoms: C_2  and  N_3
REMARK    3  A    between atoms: C_2  and  C_18
REMARK    4  A    between atoms: N_3  and  C_4
REMARK    5  A    between atoms: C_7  and  C_8
REMARK    6  A    between atoms: C_8  and  O_9
REMARK    7  A    between atoms: O_9  and  C_10
REMARK    8  A    between atoms: C_18  and  C_20
REMARK                            x       y       z     vdW  Elec       q    Type
REMARK                         _______ _______ _______ _____ _____    ______ ____
ROOT
ATOM      1  N   UNL     1      46.800   5.891  14.422  0.00  0.00    +0.000 N 
ATOM      2  H   UNL     1      46.695   6.866  14.715  0.00  0.00    +0.000 HD
ENDROOT
BRANCH   1   3
ATOM      3  C   UNL     1      46.222   5.567  13.215  0.00  0.00    +0.000 A 
ATOM      4  C   UNL     1      45.419   4.418  13.159  0.00  0.00    +0.000 A 
ATOM      5  C   UNL     1      44.855   3.975  11.958  0.00  0.00    +0.000 A 
ATOM      6  C   UNL     1      45.087   4.676  10.773  0.00  0.00    +0.000 A 
ATOM      7  C   UNL     1      45.880   5.828  10.819  0.00  0.00    +0.000 A 
ATOM      8  C   UNL     1      46.458   6.250  12.022  0.00  0.00    +0.000 A 
BRANCH   6   9
ATOM      9  C   UNL     1      44.474   4.223   9.473  0.00  0.00    +0.000 C 
BRANCH   9  10
ATOM     10  O   UNL     1      44.659   2.818   9.362  0.00  0.00    +0.000 OA
BRANCH  10  11
ATOM     11  C   UNL     1      45.585   2.513   8.392  0.00  0.00    +0.000 A 
ATOM     12  N   UNL     1      46.045   1.256   8.421  0.00  0.00    +0.000 NA
ATOM     13  C   UNL     1      46.944   0.941   7.468  0.00  0.00    +0.000 A 
ATOM     14  C   UNL     1      47.368   1.813   6.497  0.00  0.00    +0.000 A 
ATOM     15  C   UNL     1      46.818   3.071   6.554  0.00  0.00    +0.000 A 
ATOM     16  N   UNL     1      45.928   3.449   7.490  0.00  0.00    +0.000 NA
ENDBRANCH  10  11
ENDBRANCH   9  10
ENDBRANCH   6   9
ENDBRANCH   1   3
BRANCH   1  18
ATOM     17  C   UNL     1      47.232   4.111  15.981  0.00  0.00    +0.000 C 
ATOM     18  C   UNL     1      47.885   5.181  15.105  0.00  0.00    +0.000 C 
BRANCH  18  19
ATOM     19  C   UNL     1      48.672   6.180  15.978  0.00  0.00    +0.000 C 
ATOM     20  O   UNL     1      48.627   7.387  15.725  0.00  0.00    +0.000 OA
BRANCH  19  21
ATOM     21  C   UNL     1      49.406   5.706  17.161  0.00  0.00    +0.000 A 
ATOM     22  C   UNL     1      50.678   5.157  17.152  0.00  0.00    +0.000 A 
ATOM     23  S   UNL     1      51.076   4.385  18.630  0.00  0.00    +0.000 S 
ATOM     24  C   UNL     1      49.617   4.884  19.349  0.00  0.00    +0.000 A 
ATOM     25  N   UNL     1      49.280   4.520  20.614  0.00  0.00    +0.000 NA
ATOM     26  C   UNL     1      48.167   5.031  21.032  0.00  0.00    +0.000 A 
ATOM     27  N   UNL     1      47.380   5.897  20.312  0.00  0.00    +0.000 N 
ATOM     28  C   UNL     1      47.723   6.354  19.061  0.00  0.00    +0.000 A 
ATOM     29  O   UNL     1      47.153   7.313  18.550  0.00  0.00    +0.000 OA
ATOM     30  C   UNL     1      48.887   5.694  18.502  0.00  0.00    +0.000 A 
ATOM     31  H   UNL     1      46.590   6.354  20.741  0.00  0.00    +0.000 HD
ENDBRANCH  19  21
ENDBRANCH  18  19
ENDBRANCH   1  18
TORSDOF 7
ENDMDL
MODEL 8
REMARK VINA RESULT:    -6.435      2.353      3.595
REMARK INTER + INTRA:         -10.324
REMARK INTER:                  -8.940
REMARK INTRA:                  -1.384
REMARK UNBOUND:                -1.255
REMARK  Name = 
REMARK  8 active torsions:
REMARK  status: ('A' for Active; 'I' for Inactive)
REMARK    1  A    between atoms: C_1  and  C_2
REMARK    2  A    between atoms: C_2  and  N_3
REMARK    3  A    between atoms: C_2  and  C_18
REMARK    4  A    between atoms: N_3  and  C_4
REMARK    5  A    between atoms: C_7  and  C_8
REMARK    6  A    between atoms: C_8  and  O_9
REMARK    7  A    between atoms: O_9  and  C_10
REMARK    8  A    between atoms: C_18  and  C_20
REMARK                            x       y       z     vdW  Elec       q    Type
REMARK                         _______ _______ _______ _____ _____    ______ ____
ROOT
ATOM      1  N   UNL     1      48.967   7.921  16.165  0.00  0.00    +0.000 N 
ATOM      2  H   UNL     1      49.918   7.570  16.309  0.00  0.00    +0.000 HD
ENDROOT
BRANCH   1   3
ATOM      3  C   UNL     1      48.365   7.545  14.986  0.00  0.00    +0.000 A 
ATOM      4  C   UNL     1      47.763   8.544  14.208  0.00  0.00    +0.000 A 
ATOM      5  C   UNL     1      47.066   8.241  13.034  0.00  0.00    +0.000 A 
ATOM      6  C   UNL     1      46.950   6.915  12.609  0.00  0.00    +0.000 A 
ATOM      7  C   UNL     1      47.554   5.911  13.374  0.00  0.00    +0.000 A 
ATOM      8  C   UNL     1      48.230   6.224  14.559  0.00  0.00    +0.000 A 
BRANCH   6   9
ATOM      9  C   UNL     1      46.218   6.571  11.339  0.00  0.00    +0.000 C 
BRANCH   9  10
ATOM     10  O   UNL     1      45.228   5.597  11.648  0.00  0.00    +0.000 OA
BRANCH  10  11
ATOM     11  C   UNL     1      45.078   4.696  10.620  0.00  0.00    +0.000 A 
ATOM     12  N   UNL     1      45.563   5.095   9.439  0.00  0.00    +0.000 NA
ATOM     13  C   UNL     1      45.432   4.217   8.426  0.00  0.00    +0.000 A 
ATOM     14  C   UNL     1      44.867   2.972   8.559  0.00  0.00    +0.000 A 
ATOM     15  C   UNL     1      44.417   2.663   9.820  0.00  0.00    +0.000 A 
ATOM     16  N   UNL     1      44.506   3.504  10.867  0.00  0.00    +0.000 NA
ENDBRANCH  10  11
ENDBRANCH   9  10
ENDBRANCH   6   9
ENDBRANCH   1   3
BRANCH   1  18
ATOM     17  C   UNL     1      48.673   9.833  17.595  0.00  0.00    +0.000 C 
ATOM     18  C   UNL     1      48.306   8.362  17.398  0.00  0.00    +0.000 C 
BRANCH  18  19
ATOM     19  C   UNL     1      48.826   7.517  18.579  0.00  0.00    +0.000 C 
ATOM     20  O   UNL     1      48.636   7.898  19.738  0.00  0.00    +0.000 OA
BRANCH  19  21
ATOM     21  C   UNL     1      49.472   6.219  18.330  0.00  0.00    +0.000 A 
ATOM     22  C   UNL     1      50.830   5.966  18.428  0.00  0.00    +0.000 A 
ATOM     23  S   UNL     1      51.276   4.468  17.721  0.00  0.00    +0.000 S 
ATOM     24  C   UNL     1      49.652   4.075  17.395  0.00  0.00    +0.000 A 
ATOM     25  N   UNL     1      49.308   2.933  16.744  0.00  0.00    +0.000 NA
ATOM     26  C   UNL     1      48.032   2.755  16.628  0.00  0.00    +0.000 A 
ATOM     27  N   UNL     1      47.071   3.598  17.132  0.00  0.00    +0.000 N 
ATOM     28  C   UNL     1      47.374   4.721  17.866  0.00  0.00    +0.000 A 
ATOM     29  O   UNL     1      46.519   5.308  18.522  0.00  0.00    +0.000 OA
ATOM     30  C   UNL     1      48.791   5.030  17.894  0.00  0.00    +0.000 A 
ATOM     31  H   UNL     1      46.097   3.340  17.115  0.00  0.00    +0.000 HD
ENDBRANCH  19  21
ENDBRANCH  18  19
ENDBRANCH   1  18
TORSDOF 7
ENDMDL
MODEL 9
REMARK VINA RESULT:    -6.203      2.145      2.799
REMARK INTER + INTRA:          -9.997
REMARK INTER:                  -9.256
REMARK INTRA:                  -0.741
REMARK UNBOUND:                -1.255
REMARK  Name = 
REMARK  8 active torsions:
REMARK  status: ('A' for Active; 'I' for Inactive)
REMARK    1  A    between atoms: C_1  and  C_2
REMARK    2  A    between atoms: C_2  and  N_3
REMARK    3  A    between atoms: C_2  and  C_18
REMARK    4  A    between atoms: N_3  and  C_4
REMARK    5  A    between atoms: C_7  and  C_8
REMARK    6  A    between atoms: C_8  and  O_9
REMARK    7  A    between atoms: O_9  and  C_10
REMARK    8  A    between atoms: C_18  and  C_20
REMARK                            x       y       z     vdW  Elec       q    Type
REMARK                         _______ _______ _______ _____ _____    ______ ____
ROOT
ATOM      1  N   UNL     1      47.130   7.028  14.087  0.00  0.00    +0.000 N 
ATOM      2  H   UNL     1      46.586   7.560  14.772  0.00  0.00    +0.000 HD
ENDROOT
BRANCH   1   3
ATOM      3  C   UNL     1      46.397   6.383  13.116  0.00  0.00    +0.000 A 
ATOM      4  C   UNL     1      45.849   7.159  12.084  0.00  0.00    +0.000 A 
ATOM      5  C   UNL     1      45.031   6.597  11.098  0.00  0.00    +0.000 A 
ATOM      6  C   UNL     1      44.737   5.232  11.125  0.00  0.00    +0.000 A 
ATOM      7  C   UNL     1      45.286   4.447  12.145  0.00  0.00    +0.000 A 
ATOM      8  C   UNL     1      46.084   5.024  13.139  0.00  0.00    +0.000 A 
BRANCH   6   9
ATOM      9  C   UNL     1      43.872   4.605  10.062  0.00  0.00    +0.000 C 
BRANCH   9  10
ATOM     10  O   UNL     1      44.196   3.223   9.986  0.00  0.00    +0.000 OA
BRANCH  10  11
ATOM     11  C   UNL     1      45.076   2.973   8.958  0.00  0.00    +0.000 A 
ATOM     12  N   UNL     1      45.585   1.736   8.935  0.00  0.00    +0.000 NA
ATOM     13  C   UNL     1      46.439   1.475   7.927  0.00  0.00    +0.000 A 
ATOM     14  C   UNL     1      46.774   2.382   6.951  0.00  0.00    +0.000 A 
ATOM     15  C   UNL     1      46.179   3.615   7.067  0.00  0.00    +0.000 A 
ATOM     16  N   UNL     1      45.331   3.940   8.059  0.00  0.00    +0.000 NA
ENDBRANCH  10  11
ENDBRANCH   9  10
ENDBRANCH   6   9
ENDBRANCH   1   3
BRANCH   1  18
ATOM     17  C   UNL     1      49.103   6.826  12.726  0.00  0.00    +0.000 C 
ATOM     18  C   UNL     1      48.542   7.417  14.020  0.00  0.00    +0.000 C 
BRANCH  18  19
ATOM     19  C   UNL     1      49.285   6.835  15.240  0.00  0.00    +0.000 C 
ATOM     20  O   UNL     1      48.988   5.715  15.665  0.00  0.00    +0.000 OA
BRANCH  19  21
ATOM     21  C   UNL     1      50.402   7.576  15.845  0.00  0.00    +0.000 A 
ATOM     22  C   UNL     1      51.681   7.669  15.323  0.00  0.00    +0.000 A 
ATOM     23  S   UNL     1      52.814   8.289  16.452  0.00  0.00    +0.000 S 
ATOM     24  C   UNL     1      51.594   8.568  17.606  0.00  0.00    +0.000 A 
ATOM     25  N   UNL     1      51.878   9.050  18.845  0.00  0.00    +0.000 NA
ATOM     26  C   UNL     1      50.833   9.261  19.580  0.00  0.00    +0.000 A 
ATOM     27  N   UNL     1      49.535   9.065  19.177  0.00  0.00    +0.000 N 
ATOM     28  C   UNL     1      49.200   8.657  17.907  0.00  0.00    +0.000 A 
ATOM     29  O   UNL     1      48.050   8.739  17.490  0.00  0.00    +0.000 OA
ATOM     30  C   UNL     1      50.344   8.273  17.102  0.00  0.00    +0.000 A 
ATOM     31  H   UNL     1      48.764   9.365  19.755  0.00  0.00    +0.000 HD
ENDBRANCH  19  21
ENDBRANCH  18  19
ENDBRANCH   1  18
TORSDOF 7
ENDMDL
