MODEL 1
REMARK VINA RESULT:    -7.041      0.000      0.000
REMARK INTER + INTRA:         -10.342
REMARK INTER:                  -9.510
REMARK INTRA:                  -0.831
REMARK UNBOUND:                -0.831
REMARK  Name = 
REMARK  7 active torsions:
REMARK  status: ('A' for Active; 'I' for Inactive)
REMARK    1  A    between atoms: C_1  and  O_2
REMARK    2  A    between atoms: O_2  and  C_3
REMARK    3  A    between atoms: C_5  and  C_6
REMARK    4  A    between atoms: C_6  and  N_7
REMARK    5  A    between atoms: C_8  and  C_10
REMARK    6  A    between atoms: C_22  and  C_23
REMARK    7  A    between atoms: C_23  and  N_24
REMARK                            x       y       z     vdW  Elec       q    Type
REMARK                         _______ _______ _______ _____ _____    ______ ____
ROOT
ATOM      1  C   UNL     1      47.207   3.363  16.870  0.00  0.00    +0.000 C 
ENDROOT
BRANCH   1   4
ATOM      2  C   UNL     1      50.692   4.667  17.806  0.00  0.00    +0.000 A 
ATOM      3  C   UNL     1      49.304   4.605  17.575  0.00  0.00    +0.000 A 
ATOM      4  C   UNL     1      48.682   3.411  17.181  0.00  0.00    +0.000 A 
ATOM      5  C   UNL     1      49.471   2.264  17.071  0.00  0.00    +0.000 A 
ATOM      6  C   UNL     1      50.841   2.312  17.354  0.00  0.00    +0.000 A 
ATOM      7  C   UNL     1      51.480   3.505  17.752  0.00  0.00    +0.000 A 
BRANCH   2   9
ATOM      8  C   UNL     1      50.314   6.636  19.012  0.00  0.00    +0.000 C 
ATOM      9  O   UNL     1      51.169   5.913  18.124  0.00  0.00    +0.000 OA
ENDBRANCH   2   9
BRANCH   7  10
ATOM     10  C   UNL     1      52.959   3.435  18.092  0.00  0.00    +0.000 C 
BRANCH  10  11
ATOM     11  N   UNL     1      53.442   2.417  19.038  0.00  0.00    +0.000 NA
ATOM     12  C   UNL     1      54.215   2.919  20.171  0.00  0.00    +0.000 C 
ATOM     13  C   UNL     1      55.663   2.778  19.744  0.00  0.00    +0.000 C 
ATOM     14  C   UNL     1      55.660   1.489  18.943  0.00  0.00    +0.000 C 
ATOM     15  C   UNL     1      54.225   1.329  18.446  0.00  0.00    +0.000 C 
ENDBRANCH  10  11
ENDBRANCH   7  10
ENDBRANCH   1   4
BRANCH   1  16
ATOM     16  N   UNL     1      46.799   4.378  15.930  0.00  0.00    +0.000 N 
ATOM     17  C   UNL     1      46.838   4.142  14.577  0.00  0.00    +0.000 C 
ATOM     18  O   UNL     1      47.240   3.069  14.129  0.00  0.00    +0.000 OA
ATOM     19  H   UNL     1      46.447   5.255  16.301  0.00  0.00    +0.000 HD
BRANCH  17  20
ATOM     20  C   UNL     1      46.384   5.217  13.675  0.00  0.00    +0.000 A 
ATOM     21  C   UNL     1      47.228   6.294  13.429  0.00  0.00    +0.000 A 
ATOM     22  S   UNL     1      46.577   7.459  12.370  0.00  0.00    +0.000 S 
ATOM     23  C   UNL     1      45.139   6.571  12.194  0.00  0.00    +0.000 A 
ATOM     24  N   UNL     1      44.136   7.028  11.395  0.00  0.00    +0.000 NA
ATOM     25  C   UNL     1      43.099   6.263  11.349  0.00  0.00    +0.000 A 
ATOM     26  N   UNL     1      42.974   5.083  12.029  0.00  0.00    +0.000 N 
ATOM     27  C   UNL     1      43.960   4.578  12.845  0.00  0.00    +0.000 A 
ATOM     28  O   UNL     1      43.809   3.512  13.427  0.00  0.00    +0.000 OA
ATOM     29  C   UNL     1      45.153   5.401  12.936  0.00  0.00    +0.000 A 
ATOM     30  H   UNL     1      42.137   4.526  11.950  0.00  0.00    +0.000 HD
ENDBRANCH  17  20
ENDBRANCH   1  16
TORSDOF 6
ENDMDL
MODEL 2
REMARK VINA RESULT:    -6.858      3.765      9.069
REMARK INTER + INTRA:         -10.095
REMARK INTER:                  -9.301
REMARK INTRA:                  -0.793
REMARK UNBOUND:                -0.831
REMARK  Name = 
REMARK  7 active torsions:
REMARK  status: ('A' for Active; 'I' for Inactive)
REMARK    1  A    between atoms: C_1  and  O_2
REMARK    2  A    between atoms: O_2  and  C_3
REMARK    3  A    between atoms: C_5  and  C_6
REMARK    4  A    between atoms: C_6  and  N_7
REMARK    5  A    between atoms: C_8  and  C_10
REMARK    6  A    between atoms: C_22  and  C_23
REMARK    7  A    between atoms: C_23  and  N_24
REMARK                            x       y       z     vdW  Elec       q    Type
REMARK                         _______ _______ _______ _____ _____    ______ ____
ROOT
ATOM      1  C   UNL     1      47.340   7.539  13.538  0.00  0.00    +0.000 C 
ENDROOT
BRANCH   1   4
ATOM      2  C   UNL     1      44.516   5.697  11.708  0.00  0.00    +0.000 A 
ATOM      3  C   UNL     1      45.323   6.724  12.233  0.00  0.00    +0.000 A 
ATOM      4  C   UNL     1      46.513   6.440  12.920  0.00  0.00    +0.000 A 
ATOM      5  C   UNL     1      46.906   5.105  13.029  0.00  0.00    +0.000 A 
ATOM      6  C   UNL     1      46.133   4.086  12.459  0.00  0.00    +0.000 A 
ATOM      7  C   UNL     1      44.935   4.357  11.765  0.00  0.00    +0.000 A 
BRANCH   2   9
ATOM      8  C   UNL     1      42.185   5.794  11.870  0.00  0.00    +0.000 C 
ATOM      9  O   UNL     1      43.354   6.121  11.116  0.00  0.00    +0.000 OA
ENDBRANCH   2   9
BRANCH   7  10
ATOM     10  C   UNL     1      44.204   3.184  11.134  0.00  0.00    +0.000 C 
BRANCH  10  11
ATOM     11  N   UNL     1      44.047   3.122   9.673  0.00  0.00    +0.000 NA
ATOM     12  C   UNL     1      44.346   1.832   9.057  0.00  0.00    +0.000 C 
ATOM     13  C   UNL     1      45.785   1.948   8.596  0.00  0.00    +0.000 C 
ATOM     14  C   UNL     1      45.885   3.394   8.146  0.00  0.00    +0.000 C 
ATOM     15  C   UNL     1      44.792   4.130   8.916  0.00  0.00    +0.000 C 
ENDBRANCH  10  11
ENDBRANCH   7  10
ENDBRANCH   1   4
BRANCH   1  16
ATOM     16  N   UNL     1      47.789   7.220  14.872  0.00  0.00    +0.000 N 
ATOM     17  C   UNL     1      49.115   6.971  15.128  0.00  0.00    +0.000 C 
ATOM     18  O   UNL     1      49.953   6.993  14.228  0.00  0.00    +0.000 OA
ATOM     19  H   UNL     1      47.100   7.223  15.618  0.00  0.00    +0.000 HD
BRANCH  17  20
ATOM     20  C   UNL     1      49.506   6.675  16.519  0.00  0.00    +0.000 A 
ATOM     21  C   UNL     1      50.530   7.411  17.105  0.00  0.00    +0.000 A 
ATOM     22  S   UNL     1      50.876   6.964  18.712  0.00  0.00    +0.000 S 
ATOM     23  C   UNL     1      49.670   5.768  18.694  0.00  0.00    +0.000 A 
ATOM     24  N   UNL     1      49.440   5.000  19.794  0.00  0.00    +0.000 NA
ATOM     25  C   UNL     1      48.499   4.129  19.650  0.00  0.00    +0.000 A 
ATOM     26  N   UNL     1      47.769   3.957  18.506  0.00  0.00    +0.000 N 
ATOM     27  C   UNL     1      47.962   4.710  17.371  0.00  0.00    +0.000 A 
ATOM     28  O   UNL     1      47.278   4.528  16.373  0.00  0.00    +0.000 OA
ATOM     29  C   UNL     1      49.012   5.708  17.475  0.00  0.00    +0.000 A 
ATOM     30  H   UNL     1      47.043   3.259  18.456  0.00  0.00    +0.000 HD
ENDBRANCH  17  20
ENDBRANCH   1  16
TORSDOF 6
ENDMDL
MODEL 3
REMARK VINA RESULT:    -6.813      1.869      2.962
REMARK INTER + INTRA:         -10.033
REMARK INTER:                  -8.932
REMARK INTRA:                  -1.102
REMARK UNBOUND:                -0.831
REMARK  Name = 
REMARK  7 active torsions:
REMARK  status: ('A' for Active; 'I' for Inactive)
REMARK    1  A    between atoms: C_1  and  O_2
REMARK    2  A    between atoms: O_2  and  C_3
REMARK    3  A    between atoms: C_5  and  C_6
REMARK    4  A    between atoms: C_6  and  N_7
REMARK    5  A    between atoms: C_8  and  C_10
REMARK    6  A    between atoms: C_22  and  C_23
REMARK    7  A    between atoms: C_23  and  N_24
REMARK                            x       y       z     vdW  Elec       q    Type
REMARK                         _______ _______ _______ _____ _____    ______ ____
ROOT
ATOM      1  C   UNL     1      47.197   3.498  16.753  0.00  0.00    +0.000 C 
ENDROOT
BRANCH   1   4
ATOM      2  C   UNL     1      50.869   3.534  17.864  0.00  0.00    +0.000 A 
ATOM      3  C   UNL     1      49.656   3.142  17.266  0.00  0.00    +0.000 A 
ATOM      4  C   UNL     1      48.512   3.950  17.337  0.00  0.00    +0.000 A 
ATOM      5  C   UNL     1      48.619   5.187  17.978  0.00  0.00    +0.000 A 
ATOM      6  C   UNL     1      49.839   5.601  18.525  0.00  0.00    +0.000 A 
ATOM      7  C   UNL     1      50.998   4.799  18.461  0.00  0.00    +0.000 A 
BRANCH   2   9
ATOM      8  C   UNL     1      51.431   1.308  17.410  0.00  0.00    +0.000 C 
ATOM      9  O   UNL     1      51.884   2.616  17.768  0.00  0.00    +0.000 OA
ENDBRANCH   2   9
BRANCH   7  10
ATOM     10  C   UNL     1      52.284   5.370  19.034  0.00  0.00    +0.000 C 
BRANCH  10  11
ATOM     11  N   UNL     1      53.170   6.175  18.178  0.00  0.00    +0.000 NA
ATOM     12  C   UNL     1      53.106   7.620  18.379  0.00  0.00    +0.000 C 
ATOM     13  C   UNL     1      52.136   8.113  17.325  0.00  0.00    +0.000 C 
ATOM     14  C   UNL     1      52.432   7.214  16.139  0.00  0.00    +0.000 C 
ATOM     15  C   UNL     1      53.033   5.946  16.738  0.00  0.00    +0.000 C 
ENDBRANCH  10  11
ENDBRANCH   7  10
ENDBRANCH   1   4
BRANCH   1  16
ATOM     16  N   UNL     1      46.648   4.442  15.810  0.00  0.00    +0.000 N 
ATOM     17  C   UNL     1      46.760   4.234  14.458  0.00  0.00    +0.000 C 
ATOM     18  O   UNL     1      47.348   3.250  14.011  0.00  0.00    +0.000 OA
ATOM     19  H   UNL     1      46.145   5.244  16.180  0.00  0.00    +0.000 HD
BRANCH  17  20
ATOM     20  C   UNL     1      46.155   5.229  13.553  0.00  0.00    +0.000 A 
ATOM     21  C   UNL     1      46.874   6.375  13.230  0.00  0.00    +0.000 A 
ATOM     22  S   UNL     1      46.056   7.435  12.177  0.00  0.00    +0.000 S 
ATOM     23  C   UNL     1      44.705   6.406  12.107  0.00  0.00    +0.000 A 
ATOM     24  N   UNL     1      43.621   6.737  11.353  0.00  0.00    +0.000 NA
ATOM     25  C   UNL     1      42.663   5.873  11.385  0.00  0.00    +0.000 A 
ATOM     26  N   UNL     1      42.692   4.710  12.104  0.00  0.00    +0.000 N 
ATOM     27  C   UNL     1      43.766   4.330  12.877  0.00  0.00    +0.000 A 
ATOM     28  O   UNL     1      43.752   3.275  13.497  0.00  0.00    +0.000 OA
ATOM     29  C   UNL     1      44.874   5.268  12.879  0.00  0.00    +0.000 A 
ATOM     30  H   UNL     1      41.912   4.071  12.087  0.00  0.00    +0.000 HD
ENDBRANCH  17  20
ENDBRANCH   1  16
TORSDOF 6
ENDMDL
MODEL 4
REMARK VINA RESULT:    -6.719      3.982      5.416
REMARK INTER + INTRA:          -9.907
REMARK INTER:                  -8.606
REMARK INTRA:                  -1.301
REMARK UNBOUND:                -0.831
REMARK  Name = 
REMARK  7 active torsions:
REMARK  status: ('A' for Active; 'I' for Inactive)
REMARK    1  A    between atoms: C_1  and  O_2
REMARK    2  A    between atoms: O_2  and  C_3
REMARK    3  A    between atoms: C_5  and  C_6
REMARK    4  A    between atoms: C_6  and  N_7
REMARK    5  A    between atoms: C_8  and  C_10
REMARK    6  A    between atoms: C_22  and  C_23
REMARK    7  A    between atoms: C_23  and  N_24
REMARK                            x       y       z     vdW  Elec       q    Type
REMARK                         _______ _______ _______ _____ _____    ______ ____
ROOT
ATOM      1  C   UNL     1      47.315   7.705  12.550  0.00  0.00    +0.000 C 
ENDROOT
BRANCH   1   4
ATOM      2  C   UNL     1      48.712   6.195  15.789  0.00  0.00    +0.000 A 
ATOM      3  C   UNL     1      48.144   6.318  14.506  0.00  0.00    +0.000 A 
ATOM      4  C   UNL     1      47.983   7.571  13.895  0.00  0.00    +0.000 A 
ATOM      5  C   UNL     1      48.450   8.698  14.575  0.00  0.00    +0.000 A 
ATOM      6  C   UNL     1      49.064   8.572  15.826  0.00  0.00    +0.000 A 
ATOM      7  C   UNL     1      49.233   7.319  16.452  0.00  0.00    +0.000 A 
BRANCH   2   9
ATOM      8  C   UNL     1      47.528   4.199  16.087  0.00  0.00    +0.000 C 
ATOM      9  O   UNL     1      48.748   4.917  16.284  0.00  0.00    +0.000 OA
ENDBRANCH   2   9
BRANCH   7  10
ATOM     10  C   UNL     1      49.966   7.287  17.783  0.00  0.00    +0.000 C 
BRANCH  10  11
ATOM     11  N   UNL     1      49.201   7.311  19.038  0.00  0.00    +0.000 NA
ATOM     12  C   UNL     1      49.471   6.217  19.968  0.00  0.00    +0.000 C 
ATOM     13  C   UNL     1      48.394   5.191  19.680  0.00  0.00    +0.000 C 
ATOM     14  C   UNL     1      47.181   6.047  19.365  0.00  0.00    +0.000 C 
ATOM     15  C   UNL     1      47.745   7.382  18.888  0.00  0.00    +0.000 C 
ENDBRANCH  10  11
ENDBRANCH   7  10
ENDBRANCH   1   4
BRANCH   1  16
ATOM     16  N   UNL     1      46.716   6.474  12.096  0.00  0.00    +0.000 N 
ATOM     17  C   UNL     1      45.363   6.264  12.210  0.00  0.00    +0.000 C 
ATOM     18  O   UNL     1      44.628   7.110  12.719  0.00  0.00    +0.000 OA
ATOM     19  H   UNL     1      47.320   5.785  11.657  0.00  0.00    +0.000 HD
BRANCH  17  20
ATOM     20  C   UNL     1      44.816   4.992  11.704  0.00  0.00    +0.000 A 
ATOM     21  C   UNL     1      44.049   4.201  12.553  0.00  0.00    +0.000 A 
ATOM     22  S   UNL     1      43.481   2.763  11.838  0.00  0.00    +0.000 S 
ATOM     23  C   UNL     1      44.236   3.137  10.362  0.00  0.00    +0.000 A 
ATOM     24  N   UNL     1      44.134   2.293   9.299  0.00  0.00    +0.000 NA
ATOM     25  C   UNL     1      44.753   2.692   8.239  0.00  0.00    +0.000 A 
ATOM     26  N   UNL     1      45.463   3.857   8.147  0.00  0.00    +0.000 N 
ATOM     27  C   UNL     1      45.591   4.743   9.192  0.00  0.00    +0.000 A 
ATOM     28  O   UNL     1      46.229   5.780   9.062  0.00  0.00    +0.000 OA
ATOM     29  C   UNL     1      44.915   4.344  10.413  0.00  0.00    +0.000 A 
ATOM     30  H   UNL     1      45.924   4.116   7.289  0.00  0.00    +0.000 HD
ENDBRANCH  17  20
ENDBRANCH   1  16
TORSDOF 6
ENDMDL
MODEL 5
REMARK VINA RESULT:    -6.581      3.609      9.021
REMARK INTER + INTRA:          -9.721
REMARK INTER:                  -8.572
REMARK INTRA:                  -1.149
REMARK UNBOUND:                -0.831
REMARK  Name = 
REMARK  7 active torsions:
REMARK  status: ('A' for Active; 'I' for Inactive)
REMARK    1  A    between atoms: C_1  and  O_2
REMARK    2  A    between atoms: O_2  and  C_3
REMARK    3  A    between atoms: C_5  and  C_6
REMARK    4  A    between atoms: C_6  and  N_7
REMARK    5  A    between atoms: C_8  and  C_10
REMARK    6  A    between atoms: C_22  and  C_23
REMARK    7  A    between atoms: C_23  and  N_24
REMARK                            x       y       z     vdW  Elec       q    Type
REMARK                         _______ _______ _______ _____ _____    ______ ____
ROOT
ATOM      1  C   UNL     1      47.785   8.596  13.924  0.00  0.00    +0.000 C 
ENDROOT
BRANCH   1   4
ATOM      2  C   UNL     1      44.932   7.686  11.527  0.00  0.00    +0.000 A 
ATOM      3  C   UNL     1      45.788   8.420  12.369  0.00  0.00    +0.000 A 
ATOM      4  C   UNL     1      46.908   7.825  12.970  0.00  0.00    +0.000 A 
ATOM      5  C   UNL     1      47.183   6.489  12.671  0.00  0.00    +0.000 A 
ATOM      6  C   UNL     1      46.363   5.774  11.790  0.00  0.00    +0.000 A 
ATOM      7  C   UNL     1      45.235   6.359  11.178  0.00  0.00    +0.000 A 
BRANCH   2   9
ATOM      8  C   UNL     1      44.040   9.797  11.055  0.00  0.00    +0.000 C 
ATOM      9  O   UNL     1      43.845   8.381  11.061  0.00  0.00    +0.000 OA
ENDBRANCH   2   9
BRANCH   7  10
ATOM     10  C   UNL     1      44.448   5.512  10.192  0.00  0.00    +0.000 C 
BRANCH  10  11
ATOM     11  N   UNL     1      43.356   4.653  10.676  0.00  0.00    +0.000 NA
ATOM     12  C   UNL     1      42.607   5.164  11.822  0.00  0.00    +0.000 C 
ATOM     13  C   UNL     1      43.253   4.512  13.027  0.00  0.00    +0.000 C 
ATOM     14  C   UNL     1      43.609   3.128  12.518  0.00  0.00    +0.000 C 
ATOM     15  C   UNL     1      43.735   3.277  11.005  0.00  0.00    +0.000 C 
ENDBRANCH  10  11
ENDBRANCH   7  10
ENDBRANCH   1   4
BRANCH   1  16
ATOM     16  N   UNL     1      48.049   7.879  15.148  0.00  0.00    +0.000 N 
ATOM     17  C   UNL     1      49.317   7.447  15.453  0.00  0.00    +0.000 C 
ATOM     18  O   UNL     1      50.258   7.642  14.684  0.00  0.00    +0.000 OA
ATOM     19  H   UNL     1      47.276   7.736  15.791  0.00  0.00    +0.000 HD
BRANCH  17  20
ATOM     20  C   UNL     1      49.518   6.741  16.731  0.00  0.00    +0.000 A 
ATOM     21  C   UNL     1      50.326   7.320  17.704  0.00  0.00    +0.000 A 
ATOM     22  S   UNL     1      50.469   6.397  19.128  0.00  0.00    +0.000 S 
ATOM     23  C   UNL     1      49.454   5.184  18.507  0.00  0.00    +0.000 A 
ATOM     24  N   UNL     1      49.159   4.082  19.248  0.00  0.00    +0.000 NA
ATOM     25  C   UNL     1      48.380   3.236  18.661  0.00  0.00    +0.000 A 
ATOM     26  N   UNL     1      47.872   3.395  17.401  0.00  0.00    +0.000 N 
ATOM     27  C   UNL     1      48.139   4.492  16.615  0.00  0.00    +0.000 A 
ATOM     28  O   UNL     1      47.654   4.597  15.496  0.00  0.00    +0.000 OA
ATOM     29  C   UNL     1      49.013   5.478  17.226  0.00  0.00    +0.000 A 
ATOM     30  H   UNL     1      47.264   2.698  16.997  0.00  0.00    +0.000 HD
ENDBRANCH  17  20
ENDBRANCH   1  16
TORSDOF 6
ENDMDL
MODEL 6
REMARK VINA RESULT:    -6.456      2.596      3.788
REMARK INTER + INTRA:          -9.551
REMARK INTER:                  -8.249
REMARK INTRA:                  -1.302
REMARK UNBOUND:                -0.831
REMARK  Name = 
REMARK  7 active torsions:
REMARK  status: ('A' for Active; 'I' for Inactive)
REMARK    1  A    between atoms: C_1  and  O_2
REMARK    2  A    between atoms: O_2  and  C_3
REMARK    3  A    between atoms: C_5  and  C_6
REMARK    4  A    between atoms: C_6  and  N_7
REMARK    5  A    between atoms: C_8  and  C_10
REMARK    6  A    between atoms: C_22  and  C_23
REMARK    7  A    between atoms: C_23  and  N_24
REMARK                            x       y       z     vdW  Elec       q    Type
REMARK                         _______ _______ _______ _____ _____    ______ ____
ROOT
ATOM      1  C   UNL     1      48.246   7.187  13.635  0.00  0.00    +0.000 C 
ENDROOT
BRANCH   1   4
ATOM      2  C   UNL     1      48.256   5.062  16.828  0.00  0.00    +0.000 A 
ATOM      3  C   UNL     1      47.985   5.513  15.522  0.00  0.00    +0.000 A 
ATOM      4  C   UNL     1      48.588   6.671  15.009  0.00  0.00    +0.000 A 
ATOM      5  C   UNL     1      49.509   7.344  15.815  0.00  0.00    +0.000 A 
ATOM      6  C   UNL     1      49.820   6.866  17.093  0.00  0.00    +0.000 A 
ATOM      7  C   UNL     1      49.222   5.703  17.621  0.00  0.00    +0.000 A 
BRANCH   2   9
ATOM      8  C   UNL     1      48.128   2.727  16.766  0.00  0.00    +0.000 C 
ATOM      9  O   UNL     1      47.547   3.953  17.215  0.00  0.00    +0.000 OA
ENDBRANCH   2   9
BRANCH   7  10
ATOM     10  C   UNL     1      49.675   5.238  18.995  0.00  0.00    +0.000 C 
BRANCH  10  11
ATOM     11  N   UNL     1      50.866   4.383  19.121  0.00  0.00    +0.000 NA
ATOM     12  C   UNL     1      51.974   4.946  19.887  0.00  0.00    +0.000 C 
ATOM     13  C   UNL     1      52.892   5.557  18.847  0.00  0.00    +0.000 C 
ATOM     14  C   UNL     1      52.783   4.589  17.684  0.00  0.00    +0.000 C 
ATOM     15  C   UNL     1      51.431   3.902  17.858  0.00  0.00    +0.000 C 
ENDBRANCH  10  11
ENDBRANCH   7  10
ENDBRANCH   1   4
BRANCH   1  16
ATOM     16  N   UNL     1      47.479   6.246  12.856  0.00  0.00    +0.000 N 
ATOM     17  C   UNL     1      46.570   6.678  11.921  0.00  0.00    +0.000 C 
ATOM     18  O   UNL     1      46.370   7.878  11.735  0.00  0.00    +0.000 OA
ATOM     19  H   UNL     1      47.660   5.256  12.996  0.00  0.00    +0.000 HD
BRANCH  17  20
ATOM     20  C   UNL     1      45.839   5.660  11.146  0.00  0.00    +0.000 A 
ATOM     21  C   UNL     1      45.913   5.686   9.757  0.00  0.00    +0.000 A 
ATOM     22  S   UNL     1      45.022   4.452   8.991  0.00  0.00    +0.000 S 
ATOM     23  C   UNL     1      44.500   3.829  10.483  0.00  0.00    +0.000 A 
ATOM     24  N   UNL     1      43.688   2.739  10.533  0.00  0.00    +0.000 NA
ATOM     25  C   UNL     1      43.364   2.367  11.725  0.00  0.00    +0.000 A 
ATOM     26  N   UNL     1      43.778   2.989  12.871  0.00  0.00    +0.000 N 
ATOM     27  C   UNL     1      44.602   4.091  12.872  0.00  0.00    +0.000 A 
ATOM     28  O   UNL     1      44.956   4.609  13.923  0.00  0.00    +0.000 OA
ATOM     29  C   UNL     1      44.998   4.555  11.555  0.00  0.00    +0.000 A 
ATOM     30  H   UNL     1      43.493   2.649  13.776  0.00  0.00    +0.000 HD
ENDBRANCH  17  20
ENDBRANCH   1  16
TORSDOF 6
ENDMDL
MODEL 7
REMARK VINA RESULT:    -6.439      3.240      4.714
REMARK INTER + INTRA:          -9.528
REMARK INTER:                  -8.431
REMARK INTRA:                  -1.097
REMARK UNBOUND:                -0.831
REMARK  Name = 
REMARK  7 active torsions:
REMARK  status: ('A' for Active; 'I' for Inactive)
REMARK    1  A    between atoms: C_1  and  O_2
REMARK    2  A    between atoms: O_2  and  C_3
REMARK    3  A    between atoms: C_5  and  C_6
REMARK    4  A    between atoms: C_6  and  N_7
REMARK    5  A    between atoms: C_8  and  C_10
REMARK    6  A    between atoms: C_22  and  C_23
REMARK    7  A    between atoms: C_23  and  N_24
REMARK                            x       y       z     vdW  Elec       q    Type
REMARK                         _______ _______ _______ _____ _____    ______ ____
ROOT
ATOM      1  C   UNL     1      48.057   8.351  14.207  0.00  0.00    +0.000 C 
ENDROOT
BRANCH   1   4
ATOM      2  C   UNL     1      49.057   5.588  16.673  0.00  0.00    +0.000 A 
ATOM      3  C   UNL     1      48.575   6.247  15.527  0.00  0.00    +0.000 A 
ATOM      4  C   UNL     1      48.634   7.644  15.407  0.00  0.00    +0.000 A 
ATOM      5  C   UNL     1      49.234   8.367  16.440  0.00  0.00    +0.000 A 
ATOM      6  C   UNL     1      49.763   7.708  17.556  0.00  0.00    +0.000 A 
ATOM      7  C   UNL     1      49.711   6.305  17.689  0.00  0.00    +0.000 A 
BRANCH   2   9
ATOM      8  C   UNL     1      47.501   3.841  16.690  0.00  0.00    +0.000 C 
ATOM      9  O   UNL     1      48.877   4.229  16.677  0.00  0.00    +0.000 OA
ENDBRANCH   2   9
BRANCH   7  10
ATOM     10  C   UNL     1      50.369   5.687  18.912  0.00  0.00    +0.000 C 
BRANCH  10  11
ATOM     11  N   UNL     1      49.618   5.587  20.173  0.00  0.00    +0.000 NA
ATOM     12  C   UNL     1      48.322   4.919  20.088  0.00  0.00    +0.000 C 
ATOM     13  C   UNL     1      47.318   6.042  19.927  0.00  0.00    +0.000 C 
ATOM     14  C   UNL     1      47.894   7.144  20.797  0.00  0.00    +0.000 C 
ATOM     15  C   UNL     1      49.391   6.854  20.872  0.00  0.00    +0.000 C 
ENDBRANCH  10  11
ENDBRANCH   7  10
ENDBRANCH   1   4
BRANCH   1  16
ATOM     16  N   UNL     1      46.838   7.744  13.730  0.00  0.00    +0.000 N 
ATOM     17  C   UNL     1      46.809   7.065  12.536  0.00  0.00    +0.000 C 
ATOM     18  O   UNL     1      47.813   6.973  11.832  0.00  0.00    +0.000 OA
ATOM     19  H   UNL     1      46.015   7.803  14.322  0.00  0.00    +0.000 HD
BRANCH  17  20
ATOM     20  C   UNL     1      45.534   6.450  12.123  0.00  0.00    +0.000 A 
ATOM     21  C   UNL     1      44.555   7.249  11.543  0.00  0.00    +0.000 A 
ATOM     22  S   UNL     1      43.137   6.409  11.113  0.00  0.00    +0.000 S 
ATOM     23  C   UNL     1      43.772   4.940  11.682  0.00  0.00    +0.000 A 
ATOM     24  N   UNL     1      43.043   3.793  11.604  0.00  0.00    +0.000 NA
ATOM     25  C   UNL     1      43.638   2.748  12.071  0.00  0.00    +0.000 A 
ATOM     26  N   UNL     1      44.896   2.747  12.609  0.00  0.00    +0.000 N 
ATOM     27  C   UNL     1      45.672   3.879  12.707  0.00  0.00    +0.000 A 
ATOM     28  O   UNL     1      46.797   3.829  13.187  0.00  0.00    +0.000 OA
ATOM     29  C   UNL     1      45.051   5.088  12.196  0.00  0.00    +0.000 A 
ATOM     30  H   UNL     1      45.310   1.895  12.956  0.00  0.00    +0.000 HD
ENDBRANCH  17  20
ENDBRANCH   1  16
TORSDOF 6
ENDMDL
MODEL 8
REMARK VINA RESULT:    -6.393      3.014      9.089
REMARK INTER + INTRA:          -9.466
REMARK INTER:                  -8.281
REMARK INTRA:                  -1.185
REMARK UNBOUND:                -0.831
REMARK  Name = 
REMARK  7 active torsions:
REMARK  status: ('A' for Active; 'I' for Inactive)
REMARK    1  A    between atoms: C_1  and  O_2
REMARK    2  A    between atoms: O_2  and  C_3
REMARK    3  A    between atoms: C_5  and  C_6
REMARK    4  A    between atoms: C_6  and  N_7
REMARK    5  A    between atoms: C_8  and  C_10
REMARK    6  A    between atoms: C_22  and  C_23
REMARK    7  A    between atoms: C_23  and  N_24
REMARK                            x       y       z     vdW  Elec       q    Type
REMARK                         _______ _______ _______ _____ _____    ______ ____
ROOT
ATOM      1  C   UNL     1      48.855   7.720  12.843  0.00  0.00    +0.000 C 
ENDROOT
BRANCH   1   4
ATOM      2  C   UNL     1      45.994   5.227  13.401  0.00  0.00    +0.000 A 
ATOM      3  C   UNL     1      47.254   5.852  13.460  0.00  0.00    +0.000 A 
ATOM      4  C   UNL     1      47.488   7.085  12.834  0.00  0.00    +0.000 A 
ATOM      5  C   UNL     1      46.418   7.707  12.187  0.00  0.00    +0.000 A 
ATOM      6  C   UNL     1      45.151   7.113  12.174  0.00  0.00    +0.000 A 
ATOM      7  C   UNL     1      44.901   5.873  12.800  0.00  0.00    +0.000 A 
BRANCH   2   9
ATOM      8  C   UNL     1      47.200   3.523  14.456  0.00  0.00    +0.000 C 
ATOM      9  O   UNL     1      45.930   3.997  14.005  0.00  0.00    +0.000 OA
ENDBRANCH   2   9
BRANCH   7  10
ATOM     10  C   UNL     1      43.476   5.346  12.778  0.00  0.00    +0.000 C 
BRANCH  10  11
ATOM     11  N   UNL     1      43.028   4.499  11.661  0.00  0.00    +0.000 NA
ATOM     12  C   UNL     1      43.346   3.078  11.775  0.00  0.00    +0.000 C 
ATOM     13  C   UNL     1      44.634   2.907  10.995  0.00  0.00    +0.000 C 
ATOM     14  C   UNL     1      44.464   3.871   9.837  0.00  0.00    +0.000 C 
ATOM     15  C   UNL     1      43.475   4.922  10.332  0.00  0.00    +0.000 C 
ENDBRANCH  10  11
ENDBRANCH   7  10
ENDBRANCH   1   4
BRANCH   1  16
ATOM     16  N   UNL     1      49.744   7.125  13.811  0.00  0.00    +0.000 N 
ATOM     17  C   UNL     1      50.528   7.907  14.623  0.00  0.00    +0.000 C 
ATOM     18  O   UNL     1      50.510   9.134  14.536  0.00  0.00    +0.000 OA
ATOM     19  H   UNL     1      49.743   6.112  13.897  0.00  0.00    +0.000 HD
BRANCH  17  20
ATOM     20  C   UNL     1      51.396   7.230  15.605  0.00  0.00    +0.000 A 
ATOM     21  C   UNL     1      52.760   7.499  15.599  0.00  0.00    +0.000 A 
ATOM     22  S   UNL     1      53.641   6.651  16.785  0.00  0.00    +0.000 S 
ATOM     23  C   UNL     1      52.234   5.889  17.359  0.00  0.00    +0.000 A 
ATOM     24  N   UNL     1      52.296   5.013  18.398  0.00  0.00    +0.000 NA
ATOM     25  C   UNL     1      51.160   4.502  18.736  0.00  0.00    +0.000 A 
ATOM     26  N   UNL     1      49.969   4.789  18.127  0.00  0.00    +0.000 N 
ATOM     27  C   UNL     1      49.856   5.670  17.076  0.00  0.00    +0.000 A 
ATOM     28  O   UNL     1      48.767   5.905  16.568  0.00  0.00    +0.000 OA
ATOM     29  C   UNL     1      51.106   6.275  16.652  0.00  0.00    +0.000 A 
ATOM     30  H   UNL     1      49.112   4.360  18.439  0.00  0.00    +0.000 HD
ENDBRANCH  17  20
ENDBRANCH   1  16
TORSDOF 6
ENDMDL
MODEL 9
REMARK VINA RESULT:    -6.278      2.198      3.407
REMARK INTER + INTRA:          -9.311
REMARK INTER:                  -8.000
REMARK INTRA:                  -1.311
REMARK UNBOUND:                -0.831
REMARK  Name = 
REMARK  7 active torsions:
REMARK  status: ('A' for Active; 'I' for Inactive)
REMARK    1  A    between atoms: C_1  and  O_2
REMARK    2  A    between atoms: O_2  and  C_3
REMARK    3  A    between atoms: C_5  and  C_6
REMARK    4  A    between atoms: C_6  and  N_7
REMARK    5  A    between atoms: C_8  and  C_10
REMARK    6  A    between atoms: C_22  and  C_23
REMARK    7  A    between atoms: C_23  and  N_24
REMARK                            x       y       z     vdW  Elec       q    Type
REMARK                         _______ _______ _______ _____ _____    ______ ____
ROOT
ATOM      1  C   UNL     1      48.556   7.500  14.387  0.00  0.00    +0.000 C 
ENDROOT
BRANCH   1   4
ATOM      2  C   UNL     1      48.822   5.097  17.365  0.00  0.00    +0.000 A 
ATOM      3  C   UNL     1      48.431   5.671  16.141  0.00  0.00    +0.000 A 
ATOM      4  C   UNL     1      49.022   6.852  15.666  0.00  0.00    +0.000 A 
ATOM      5  C   UNL     1      50.050   7.422  16.421  0.00  0.00    +0.000 A 
ATOM      6  C   UNL     1      50.477   6.821  17.611  0.00  0.00    +0.000 A 
ATOM      7  C   UNL     1      49.893   5.634  18.100  0.00  0.00    +0.000 A 
BRANCH   2   9
ATOM      8  C   UNL     1      48.380   2.847  16.902  0.00  0.00    +0.000 C 
ATOM      9  O   UNL     1      48.115   3.980  17.731  0.00  0.00    +0.000 OA
ENDBRANCH   2   9
BRANCH   7  10
ATOM     10  C   UNL     1      50.471   5.034  19.370  0.00  0.00    +0.000 C 
BRANCH  10  11
ATOM     11  N   UNL     1      51.634   4.136  19.290  0.00  0.00    +0.000 NA
ATOM     12  C   UNL     1      52.840   4.598  19.972  0.00  0.00    +0.000 C 
ATOM     13  C   UNL     1      53.662   5.270  18.891  0.00  0.00    +0.000 C 
ATOM     14  C   UNL     1      53.390   4.411  17.670  0.00  0.00    +0.000 C 
ATOM     15  C   UNL     1      52.040   3.751  17.937  0.00  0.00    +0.000 C 
ENDBRANCH  10  11
ENDBRANCH   7  10
ENDBRANCH   1   4
BRANCH   1  16
ATOM     16  N   UNL     1      47.296   6.976  13.919  0.00  0.00    +0.000 N 
ATOM     17  C   UNL     1      46.962   7.029  12.588  0.00  0.00    +0.000 C 
ATOM     18  O   UNL     1      47.716   7.541  11.762  0.00  0.00    +0.000 OA
ATOM     19  H   UNL     1      46.684   6.535  14.599  0.00  0.00    +0.000 HD
BRANCH  17  20
ATOM     20  C   UNL     1      45.668   6.453  12.178  0.00  0.00    +0.000 A 
ATOM     21  C   UNL     1      44.723   7.276  11.574  0.00  0.00    +0.000 A 
ATOM     22  S   UNL     1      43.277   6.481  11.151  0.00  0.00    +0.000 S 
ATOM     23  C   UNL     1      43.854   5.001  11.756  0.00  0.00    +0.000 A 
ATOM     24  N   UNL     1      43.083   3.881  11.696  0.00  0.00    +0.000 NA
ATOM     25  C   UNL     1      43.635   2.825  12.189  0.00  0.00    +0.000 A 
ATOM     26  N   UNL     1      44.888   2.788  12.737  0.00  0.00    +0.000 N 
ATOM     27  C   UNL     1      45.706   3.892  12.817  0.00  0.00    +0.000 A 
ATOM     28  O   UNL     1      46.824   3.811  13.306  0.00  0.00    +0.000 OA
ATOM     29  C   UNL     1      45.134   5.112  12.276  0.00  0.00    +0.000 A 
ATOM     30  H   UNL     1      45.267   1.929  13.105  0.00  0.00    +0.000 HD
ENDBRANCH  17  20
ENDBRANCH   1  16
TORSDOF 6
ENDMDL
