MODEL 1
REMARK VINA RESULT:    -8.309      0.000      0.000
REMARK INTER + INTRA:         -10.630
REMARK INTER:                 -10.252
REMARK INTRA:                  -0.377
REMARK UNBOUND:                -0.377
REMARK  Name = 
REMARK  6 active torsions:
REMARK  status: ('A' for Active; 'I' for Inactive)
REMARK    1  A    between atoms: C_1  and  O_2
REMARK    2  A    between atoms: O_2  and  C_3
REMARK    3  A    between atoms: C_5  and  C_6
REMARK    4  A    between atoms: C_6  and  N_7
REMARK    5  A    between atoms: C_11  and  C_12
REMARK    6  A    between atoms: C_19  and  C_20
REMARK                            x       y       z     vdW  Elec       q    Type
REMARK                         _______ _______ _______ _____ _____    ______ ____
ROOT
ATOM      1  N   UNL     1      43.860   4.800   9.753  0.00  0.00    +0.000 N 
ATOM      2  C   UNL     1      44.734   3.927   9.126  0.00  0.00    +0.000 A 
ATOM      3  C   UNL     1      44.906   2.585   9.489  0.00  0.00    +0.000 A 
ATOM      4  N   UNL     1      45.743   1.721   8.859  0.00  0.00    +0.000 NA
ATOM      5  C   UNL     1      46.395   2.252   7.791  0.00  0.00    +0.000 A 
ATOM      6  C   UNL     1      46.221   3.568   7.397  0.00  0.00    +0.000 A 
ATOM      7  N   UNL     1      45.397   4.426   8.061  0.00  0.00    +0.000 NA
ATOM      8  H   UNL     1      44.066   5.740   9.420  0.00  0.00    +0.000 HD
ENDROOT
BRANCH   5   9
ATOM      9  C   UNL     1      47.327   1.359   7.050  0.00  0.00    +0.000 C 
ATOM     10  N   UNL     1      48.393   1.981   6.459  0.00  0.00    +0.000 N 
ATOM     11  O   UNL     1      47.150   0.151   6.968  0.00  0.00    +0.000 OA
ATOM     12  H   UNL     1      48.505   2.985   6.548  0.00  0.00    +0.000 HD
ATOM     13  H   UNL     1      49.064   1.437   5.936  0.00  0.00    +0.000 HD
ENDBRANCH   5   9
BRANCH   1  14
ATOM     14  C   UNL     1      43.667   4.681  11.188  0.00  0.00    +0.000 C 
BRANCH  14  17
ATOM     15  C   UNL     1      46.789   4.849  13.420  0.00  0.00    +0.000 A 
ATOM     16  C   UNL     1      45.657   4.356  12.760  0.00  0.00    +0.000 A 
ATOM     17  C   UNL     1      44.854   5.198  11.971  0.00  0.00    +0.000 A 
ATOM     18  C   UNL     1      45.230   6.541  11.826  0.00  0.00    +0.000 A 
ATOM     19  C   UNL     1      46.355   7.039  12.484  0.00  0.00    +0.000 A 
ATOM     20  C   UNL     1      47.136   6.204  13.292  0.00  0.00    +0.000 A 
ATOM     21  C   UNL     1      48.343   6.761  13.995  0.00  0.00    +0.000 C 
BRANCH  15  23
ATOM     22  C   UNL     1      47.177   3.982  15.595  0.00  0.00    +0.000 C 
ATOM     23  O   UNL     1      47.591   4.096  14.239  0.00  0.00    +0.000 OA
ENDBRANCH  15  23
ENDBRANCH  14  17
ENDBRANCH   1  14
TORSDOF 4
ENDMDL
MODEL 2
REMARK VINA RESULT:    -8.123      1.126      2.004
REMARK INTER + INTRA:         -10.400
REMARK INTER:                  -9.955
REMARK INTRA:                  -0.445
REMARK UNBOUND:                -0.377
REMARK  Name = 
REMARK  6 active torsions:
REMARK  status: ('A' for Active; 'I' for Inactive)
REMARK    1  A    between atoms: C_1  and  O_2
REMARK    2  A    between atoms: O_2  and  C_3
REMARK    3  A    between atoms: C_5  and  C_6
REMARK    4  A    between atoms: C_6  and  N_7
REMARK    5  A    between atoms: C_11  and  C_12
REMARK    6  A    between atoms: C_19  and  C_20
REMARK                            x       y       z     vdW  Elec       q    Type
REMARK                         _______ _______ _______ _____ _____    ______ ____
ROOT
ATOM      1  N   UNL     1      43.819   4.752   9.709  0.00  0.00    +0.000 N 
ATOM      2  C   UNL     1      44.702   3.896   9.073  0.00  0.00    +0.000 A 
ATOM      3  C   UNL     1      44.847   2.538   9.384  0.00  0.00    +0.000 A 
ATOM      4  N   UNL     1      45.694   1.690   8.744  0.00  0.00    +0.000 NA
ATOM      5  C   UNL     1      46.386   2.258   7.721  0.00  0.00    +0.000 A 
ATOM      6  C   UNL     1      46.240   3.592   7.378  0.00  0.00    +0.000 A 
ATOM      7  N   UNL     1      45.405   4.431   8.052  0.00  0.00    +0.000 NA
ATOM      8  H   UNL     1      44.046   5.703   9.423  0.00  0.00    +0.000 HD
ENDROOT
BRANCH   5   9
ATOM      9  C   UNL     1      47.331   1.385   6.972  0.00  0.00    +0.000 C 
ATOM     10  N   UNL     1      48.444   2.010   6.477  0.00  0.00    +0.000 N 
ATOM     11  O   UNL     1      47.125   0.191   6.802  0.00  0.00    +0.000 OA
ATOM     12  H   UNL     1      48.578   3.003   6.637  0.00  0.00    +0.000 HD
ATOM     13  H   UNL     1      49.125   1.480   5.955  0.00  0.00    +0.000 HD
ENDBRANCH   5   9
BRANCH   1  14
ATOM     14  C   UNL     1      43.578   4.575  11.131  0.00  0.00    +0.000 C 
BRANCH  14  17
ATOM     15  C   UNL     1      46.112   6.777  13.000  0.00  0.00    +0.000 A 
ATOM     16  C   UNL     1      45.059   6.386  12.164  0.00  0.00    +0.000 A 
ATOM     17  C   UNL     1      44.753   5.027  11.971  0.00  0.00    +0.000 A 
ATOM     18  C   UNL     1      45.501   4.066  12.665  0.00  0.00    +0.000 A 
ATOM     19  C   UNL     1      46.554   4.449  13.498  0.00  0.00    +0.000 A 
ATOM     20  C   UNL     1      46.874   5.802  13.665  0.00  0.00    +0.000 A 
ATOM     21  C   UNL     1      48.013   6.193  14.564  0.00  0.00    +0.000 C 
BRANCH  15  23
ATOM     22  C   UNL     1      45.640   9.077  12.649  0.00  0.00    +0.000 C 
ATOM     23  O   UNL     1      46.493   8.079  13.200  0.00  0.00    +0.000 OA
ENDBRANCH  15  23
ENDBRANCH  14  17
ENDBRANCH   1  14
TORSDOF 4
ENDMDL
MODEL 3
REMARK VINA RESULT:    -7.837      2.304      6.567
REMARK INTER + INTRA:         -10.047
REMARK INTER:                  -9.551
REMARK INTRA:                  -0.496
REMARK UNBOUND:                -0.377
REMARK  Name = 
REMARK  6 active torsions:
REMARK  status: ('A' for Active; 'I' for Inactive)
REMARK    1  A    between atoms: C_1  and  O_2
REMARK    2  A    between atoms: O_2  and  C_3
REMARK    3  A    between atoms: C_5  and  C_6
REMARK    4  A    between atoms: C_6  and  N_7
REMARK    5  A    between atoms: C_11  and  C_12
REMARK    6  A    between atoms: C_19  and  C_20
REMARK                            x       y       z     vdW  Elec       q    Type
REMARK                         _______ _______ _______ _____ _____    ______ ____
ROOT
ATOM      1  N   UNL     1      44.322   2.850  11.591  0.00  0.00    +0.000 N 
ATOM      2  C   UNL     1      45.182   3.701  12.266  0.00  0.00    +0.000 A 
ATOM      3  C   UNL     1      45.128   5.099  12.193  0.00  0.00    +0.000 A 
ATOM      4  N   UNL     1      45.953   5.935  12.874  0.00  0.00    +0.000 NA
ATOM      5  C   UNL     1      46.840   5.305  13.689  0.00  0.00    +0.000 A 
ATOM      6  C   UNL     1      46.895   3.925  13.798  0.00  0.00    +0.000 A 
ATOM      7  N   UNL     1      46.075   3.104  13.083  0.00  0.00    +0.000 NA
ATOM      8  H   UNL     1      44.693   1.905  11.671  0.00  0.00    +0.000 HD
ENDROOT
BRANCH   5   9
ATOM      9  C   UNL     1      47.775   6.161  14.470  0.00  0.00    +0.000 C 
ATOM     10  N   UNL     1      47.602   7.510  14.320  0.00  0.00    +0.000 N 
ATOM     11  O   UNL     1      48.644   5.692  15.193  0.00  0.00    +0.000 OA
ATOM     12  H   UNL     1      46.871   7.861  13.711  0.00  0.00    +0.000 HD
ATOM     13  H   UNL     1      48.204   8.150  14.817  0.00  0.00    +0.000 HD
ENDBRANCH   5   9
BRANCH   1  14
ATOM     14  C   UNL     1      43.868   3.227  10.264  0.00  0.00    +0.000 C 
BRANCH  14  17
ATOM     15  C   UNL     1      46.484   1.546   8.008  0.00  0.00    +0.000 A 
ATOM     16  C   UNL     1      45.555   1.749   9.035  0.00  0.00    +0.000 A 
ATOM     17  C   UNL     1      44.929   2.996   9.209  0.00  0.00    +0.000 A 
ATOM     18  C   UNL     1      45.227   4.028   8.308  0.00  0.00    +0.000 A 
ATOM     19  C   UNL     1      46.155   3.832   7.285  0.00  0.00    +0.000 A 
ATOM     20  C   UNL     1      46.797   2.598   7.132  0.00  0.00    +0.000 A 
ATOM     21  C   UNL     1      47.796   2.408   6.024  0.00  0.00    +0.000 C 
BRANCH  15  23
ATOM     22  C   UNL     1      46.386  -0.740   7.377  0.00  0.00    +0.000 C 
ATOM     23  O   UNL     1      47.163   0.371   7.807  0.00  0.00    +0.000 OA
ENDBRANCH  15  23
ENDBRANCH  14  17
ENDBRANCH   1  14
TORSDOF 4
ENDMDL
MODEL 4
REMARK VINA RESULT:    -6.958      2.470      6.678
REMARK INTER + INTRA:          -8.963
REMARK INTER:                  -8.781
REMARK INTRA:                  -0.182
REMARK UNBOUND:                -0.377
REMARK  Name = 
REMARK  6 active torsions:
REMARK  status: ('A' for Active; 'I' for Inactive)
REMARK    1  A    between atoms: C_1  and  O_2
REMARK    2  A    between atoms: O_2  and  C_3
REMARK    3  A    between atoms: C_5  and  C_6
REMARK    4  A    between atoms: C_6  and  N_7
REMARK    5  A    between atoms: C_11  and  C_12
REMARK    6  A    between atoms: C_19  and  C_20
REMARK                            x       y       z     vdW  Elec       q    Type
REMARK                         _______ _______ _______ _____ _____    ______ ____
ROOT
ATOM      1  N   UNL     1      43.823   4.553  11.335  0.00  0.00    +0.000 N 
ATOM      2  C   UNL     1      44.946   5.001  12.012  0.00  0.00    +0.000 A 
ATOM      3  C   UNL     1      45.669   6.150  11.667  0.00  0.00    +0.000 A 
ATOM      4  N   UNL     1      46.754   6.606  12.345  0.00  0.00    +0.000 NA
ATOM      5  C   UNL     1      47.079   5.869  13.440  0.00  0.00    +0.000 A 
ATOM      6  C   UNL     1      46.363   4.744  13.816  0.00  0.00    +0.000 A 
ATOM      7  N   UNL     1      45.294   4.289  13.105  0.00  0.00    +0.000 NA
ATOM      8  H   UNL     1      43.610   3.615  11.672  0.00  0.00    +0.000 HD
ENDROOT
BRANCH   5   9
ATOM      9  C   UNL     1      48.258   6.313  14.234  0.00  0.00    +0.000 C 
ATOM     10  N   UNL     1      48.130   6.199  15.592  0.00  0.00    +0.000 N 
ATOM     11  O   UNL     1      49.271   6.757  13.710  0.00  0.00    +0.000 OA
ATOM     12  H   UNL     1      47.274   5.827  15.989  0.00  0.00    +0.000 HD
ATOM     13  H   UNL     1      48.889   6.485  16.192  0.00  0.00    +0.000 HD
ENDBRANCH   5   9
BRANCH   1  14
ATOM     14  C   UNL     1      43.765   4.720   9.893  0.00  0.00    +0.000 C 
BRANCH  14  17
ATOM     15  C   UNL     1      46.359   3.060   7.597  0.00  0.00    +0.000 A 
ATOM     16  C   UNL     1      45.563   4.035   8.209  0.00  0.00    +0.000 A 
ATOM     17  C   UNL     1      44.591   3.684   9.163  0.00  0.00    +0.000 A 
ATOM     18  C   UNL     1      44.459   2.335   9.519  0.00  0.00    +0.000 A 
ATOM     19  C   UNL     1      45.247   1.358   8.910  0.00  0.00    +0.000 A 
ATOM     20  C   UNL     1      46.194   1.708   7.940  0.00  0.00    +0.000 A 
ATOM     21  C   UNL     1      47.032   0.640   7.295  0.00  0.00    +0.000 C 
BRANCH  15  23
ATOM     22  C   UNL     1      46.881   3.133   5.283  0.00  0.00    +0.000 C 
ATOM     23  O   UNL     1      47.295   3.327   6.630  0.00  0.00    +0.000 OA
ENDBRANCH  15  23
ENDBRANCH  14  17
ENDBRANCH   1  14
TORSDOF 4
ENDMDL
MODEL 5
REMARK VINA RESULT:    -6.865      1.604      2.221
REMARK INTER + INTRA:          -8.847
REMARK INTER:                  -8.684
REMARK INTRA:                  -0.163
REMARK UNBOUND:                -0.377
REMARK  Name = 
REMARK  6 active torsions:
REMARK  status: ('A' for Active; 'I' for Inactive)
REMARK    1  A    between atoms: C_1  and  O_2
REMARK    2  A    between atoms: O_2  and  C_3
REMARK    3  A    between atoms: C_5  and  C_6
REMARK    4  A    between atoms: C_6  and  N_7
REMARK    5  A    between atoms: C_11  and  C_12
REMARK    6  A    between atoms: C_19  and  C_20
REMARK                            x       y       z     vdW  Elec       q    Type
REMARK                         _______ _______ _______ _____ _____    ______ ____
ROOT
ATOM      1  N   UNL     1      44.460   2.885  10.772  0.00  0.00    +0.000 N 
ATOM      2  C   UNL     1      45.146   2.882   9.568  0.00  0.00    +0.000 A 
ATOM      3  C   UNL     1      45.524   4.037   8.872  0.00  0.00    +0.000 A 
ATOM      4  N   UNL     1      46.219   4.037   7.705  0.00  0.00    +0.000 NA
ATOM      5  C   UNL     1      46.569   2.800   7.264  0.00  0.00    +0.000 A 
ATOM      6  C   UNL     1      46.230   1.645   7.948  0.00  0.00    +0.000 A 
ATOM      7  N   UNL     1      45.507   1.667   9.103  0.00  0.00    +0.000 NA
ATOM      8  H   UNL     1      44.154   1.932  10.959  0.00  0.00    +0.000 HD
ENDROOT
BRANCH   5   9
ATOM      9  C   UNL     1      47.338   2.724   5.991  0.00  0.00    +0.000 C 
ATOM     10  N   UNL     1      48.679   2.485   6.125  0.00  0.00    +0.000 N 
ATOM     11  O   UNL     1      46.809   2.871   4.897  0.00  0.00    +0.000 OA
ATOM     12  H   UNL     1      49.080   2.370   7.049  0.00  0.00    +0.000 HD
ATOM     13  H   UNL     1      49.262   2.425   5.304  0.00  0.00    +0.000 HD
ENDBRANCH   5   9
BRANCH   1  14
ATOM     14  C   UNL     1      43.457   3.912  11.000  0.00  0.00    +0.000 C 
BRANCH  14  17
ATOM     15  C   UNL     1      45.777   6.388  12.801  0.00  0.00    +0.000 A 
ATOM     16  C   UNL     1      45.203   5.188  12.363  0.00  0.00    +0.000 A 
ATOM     17  C   UNL     1      44.058   5.188  11.547  0.00  0.00    +0.000 A 
ATOM     18  C   UNL     1      43.519   6.419  11.147  0.00  0.00    +0.000 A 
ATOM     19  C   UNL     1      44.084   7.618  11.583  0.00  0.00    +0.000 A 
ATOM     20  C   UNL     1      45.208   7.614  12.419  0.00  0.00    +0.000 A 
ATOM     21  C   UNL     1      45.800   8.916  12.879  0.00  0.00    +0.000 C 
BRANCH  15  23
ATOM     22  C   UNL     1      48.132   6.206  13.035  0.00  0.00    +0.000 C 
ATOM     23  O   UNL     1      46.866   6.462  13.632  0.00  0.00    +0.000 OA
ENDBRANCH  15  23
ENDBRANCH  14  17
ENDBRANCH   1  14
TORSDOF 4
ENDMDL
MODEL 6
REMARK VINA RESULT:    -6.777      1.586      2.003
REMARK INTER + INTRA:          -8.739
REMARK INTER:                  -8.357
REMARK INTRA:                  -0.382
REMARK UNBOUND:                -0.377
REMARK  Name = 
REMARK  6 active torsions:
REMARK  status: ('A' for Active; 'I' for Inactive)
REMARK    1  A    between atoms: C_1  and  O_2
REMARK    2  A    between atoms: O_2  and  C_3
REMARK    3  A    between atoms: C_5  and  C_6
REMARK    4  A    between atoms: C_6  and  N_7
REMARK    5  A    between atoms: C_11  and  C_12
REMARK    6  A    between atoms: C_19  and  C_20
REMARK                            x       y       z     vdW  Elec       q    Type
REMARK                         _______ _______ _______ _____ _____    ______ ____
ROOT
ATOM      1  N   UNL     1      44.461   5.276   9.792  0.00  0.00    +0.000 N 
ATOM      2  C   UNL     1      45.148   4.238   9.184  0.00  0.00    +0.000 A 
ATOM      3  C   UNL     1      45.133   2.912   9.635  0.00  0.00    +0.000 A 
ATOM      4  N   UNL     1      45.785   1.888   9.026  0.00  0.00    +0.000 NA
ATOM      5  C   UNL     1      46.443   2.241   7.890  0.00  0.00    +0.000 A 
ATOM      6  C   UNL     1      46.450   3.540   7.410  0.00  0.00    +0.000 A 
ATOM      7  N   UNL     1      45.812   4.557   8.053  0.00  0.00    +0.000 NA
ATOM      8  H   UNL     1      44.788   6.149   9.381  0.00  0.00    +0.000 HD
ENDROOT
BRANCH   5   9
ATOM      9  C   UNL     1      47.177   1.166   7.167  0.00  0.00    +0.000 C 
ATOM     10  N   UNL     1      48.146   1.595   6.300  0.00  0.00    +0.000 N 
ATOM     11  O   UNL     1      46.928  -0.022   7.330  0.00  0.00    +0.000 OA
ATOM     12  H   UNL     1      48.322   2.587   6.191  0.00  0.00    +0.000 HD
ATOM     13  H   UNL     1      48.681   0.920   5.774  0.00  0.00    +0.000 HD
ENDBRANCH   5   9
BRANCH   1  14
ATOM     14  C   UNL     1      44.342   5.281  11.240  0.00  0.00    +0.000 C 
BRANCH  14  17
ATOM     15  C   UNL     1      47.476   7.146  12.448  0.00  0.00    +0.000 A 
ATOM     16  C   UNL     1      46.652   6.154  11.902  0.00  0.00    +0.000 A 
ATOM     17  C   UNL     1      45.255   6.301  11.886  0.00  0.00    +0.000 A 
ATOM     18  C   UNL     1      44.699   7.483  12.396  0.00  0.00    +0.000 A 
ATOM     19  C   UNL     1      45.514   8.473  12.944  0.00  0.00    +0.000 A 
ATOM     20  C   UNL     1      46.904   8.310  12.984  0.00  0.00    +0.000 A 
ATOM     21  C   UNL     1      47.764   9.389  13.582  0.00  0.00    +0.000 C 
BRANCH  15  23
ATOM     22  C   UNL     1      49.569   7.295  11.337  0.00  0.00    +0.000 C 
ATOM     23  O   UNL     1      48.842   7.050  12.535  0.00  0.00    +0.000 OA
ENDBRANCH  15  23
ENDBRANCH  14  17
ENDBRANCH   1  14
TORSDOF 4
ENDMDL
MODEL 7
REMARK VINA RESULT:    -6.653      2.196      3.206
REMARK INTER + INTRA:          -8.586
REMARK INTER:                  -8.338
REMARK INTRA:                  -0.248
REMARK UNBOUND:                -0.377
REMARK  Name = 
REMARK  6 active torsions:
REMARK  status: ('A' for Active; 'I' for Inactive)
REMARK    1  A    between atoms: C_1  and  O_2
REMARK    2  A    between atoms: O_2  and  C_3
REMARK    3  A    between atoms: C_5  and  C_6
REMARK    4  A    between atoms: C_6  and  N_7
REMARK    5  A    between atoms: C_11  and  C_12
REMARK    6  A    between atoms: C_19  and  C_20
REMARK                            x       y       z     vdW  Elec       q    Type
REMARK                         _______ _______ _______ _____ _____    ______ ____
ROOT
ATOM      1  N   UNL     1      44.272   3.323  10.690  0.00  0.00    +0.000 N 
ATOM      2  C   UNL     1      45.030   3.126   9.547  0.00  0.00    +0.000 A 
ATOM      3  C   UNL     1      45.661   4.153   8.833  0.00  0.00    +0.000 A 
ATOM      4  N   UNL     1      46.426   3.961   7.728  0.00  0.00    +0.000 NA
ATOM      5  C   UNL     1      46.576   2.657   7.372  0.00  0.00    +0.000 A 
ATOM      6  C   UNL     1      45.984   1.623   8.078  0.00  0.00    +0.000 A 
ATOM      7  N   UNL     1      45.197   1.842   9.168  0.00  0.00    +0.000 NA
ATOM      8  H   UNL     1      43.785   2.451  10.895  0.00  0.00    +0.000 HD
ENDROOT
BRANCH   5   9
ATOM      9  C   UNL     1      47.406   2.371   6.169  0.00  0.00    +0.000 C 
ATOM     10  N   UNL     1      47.283   3.267   5.142  0.00  0.00    +0.000 N 
ATOM     11  O   UNL     1      48.145   1.398   6.100  0.00  0.00    +0.000 OA
ATOM     12  H   UNL     1      46.659   4.061   5.237  0.00  0.00    +0.000 HD
ATOM     13  H   UNL     1      47.814   3.132   4.294  0.00  0.00    +0.000 HD
ENDBRANCH   5   9
BRANCH   1  14
ATOM     14  C   UNL     1      43.459   4.522  10.791  0.00  0.00    +0.000 C 
BRANCH  14  17
ATOM     15  C   UNL     1      44.683   8.077  11.581  0.00  0.00    +0.000 A 
ATOM     16  C   UNL     1      44.007   7.013  10.971  0.00  0.00    +0.000 A 
ATOM     17  C   UNL     1      44.227   5.686  11.380  0.00  0.00    +0.000 A 
ATOM     18  C   UNL     1      45.113   5.449  12.439  0.00  0.00    +0.000 A 
ATOM     19  C   UNL     1      45.793   6.504  13.048  0.00  0.00    +0.000 A 
ATOM     20  C   UNL     1      45.593   7.822  12.620  0.00  0.00    +0.000 A 
ATOM     21  C   UNL     1      46.336   8.945  13.287  0.00  0.00    +0.000 C 
BRANCH  15  23
ATOM     22  C   UNL     1      43.276   9.774  10.701  0.00  0.00    +0.000 C 
ATOM     23  O   UNL     1      44.550   9.390  11.205  0.00  0.00    +0.000 OA
ENDBRANCH  15  23
ENDBRANCH  14  17
ENDBRANCH   1  14
TORSDOF 4
ENDMDL
MODEL 8
REMARK VINA RESULT:    -6.118      3.412      7.104
REMARK INTER + INTRA:          -7.926
REMARK INTER:                  -8.038
REMARK INTRA:                   0.113
REMARK UNBOUND:                -0.377
REMARK  Name = 
REMARK  6 active torsions:
REMARK  status: ('A' for Active; 'I' for Inactive)
REMARK    1  A    between atoms: C_1  and  O_2
REMARK    2  A    between atoms: O_2  and  C_3
REMARK    3  A    between atoms: C_5  and  C_6
REMARK    4  A    between atoms: C_6  and  N_7
REMARK    5  A    between atoms: C_11  and  C_12
REMARK    6  A    between atoms: C_19  and  C_20
REMARK                            x       y       z     vdW  Elec       q    Type
REMARK                         _______ _______ _______ _____ _____    ______ ____
ROOT
ATOM      1  N   UNL     1      46.888   6.369  12.417  0.00  0.00    +0.000 N 
ATOM      2  C   UNL     1      47.131   5.786  13.650  0.00  0.00    +0.000 A 
ATOM      3  C   UNL     1      46.456   4.660  14.137  0.00  0.00    +0.000 A 
ATOM      4  N   UNL     1      46.711   4.071  15.334  0.00  0.00    +0.000 NA
ATOM      5  C   UNL     1      47.726   4.644  16.034  0.00  0.00    +0.000 A 
ATOM      6  C   UNL     1      48.425   5.741  15.561  0.00  0.00    +0.000 A 
ATOM      7  N   UNL     1      48.134   6.333  14.370  0.00  0.00    +0.000 NA
ATOM      8  H   UNL     1      47.375   7.264  12.394  0.00  0.00    +0.000 HD
ENDROOT
BRANCH   5   9
ATOM      9  C   UNL     1      48.063   4.047  17.356  0.00  0.00    +0.000 C 
ATOM     10  N   UNL     1      47.174   3.119  17.827  0.00  0.00    +0.000 N 
ATOM     11  O   UNL     1      49.063   4.368  17.984  0.00  0.00    +0.000 OA
ATOM     12  H   UNL     1      46.355   2.880  17.278  0.00  0.00    +0.000 HD
ATOM     13  H   UNL     1      47.338   2.676  18.719  0.00  0.00    +0.000 HD
ENDBRANCH   5   9
BRANCH   1  14
ATOM     14  C   UNL     1      45.526   6.393  11.914  0.00  0.00    +0.000 C 
BRANCH  14  17
ATOM     15  C   UNL     1      45.347   4.072   8.858  0.00  0.00    +0.000 A 
ATOM     16  C   UNL     1      45.576   5.202   9.652  0.00  0.00    +0.000 A 
ATOM     17  C   UNL     1      45.227   5.214  11.013  0.00  0.00    +0.000 A 
ATOM     18  C   UNL     1      44.676   4.053  11.574  0.00  0.00    +0.000 A 
ATOM     19  C   UNL     1      44.442   2.925  10.788  0.00  0.00    +0.000 A 
ATOM     20  C   UNL     1      44.765   2.927   9.425  0.00  0.00    +0.000 A 
ATOM     21  C   UNL     1      44.504   1.701   8.595  0.00  0.00    +0.000 C 
BRANCH  15  23
ATOM     22  C   UNL     1      46.982   3.775   7.162  0.00  0.00    +0.000 C 
ATOM     23  O   UNL     1      45.623   4.006   7.516  0.00  0.00    +0.000 OA
ENDBRANCH  15  23
ENDBRANCH  14  17
ENDBRANCH   1  14
TORSDOF 4
ENDMDL
MODEL 9
REMARK VINA RESULT:    -5.995      3.712      6.140
REMARK INTER + INTRA:          -7.775
REMARK INTER:                  -7.479
REMARK INTRA:                  -0.296
REMARK UNBOUND:                -0.377
REMARK  Name = 
REMARK  6 active torsions:
REMARK  status: ('A' for Active; 'I' for Inactive)
REMARK    1  A    between atoms: C_1  and  O_2
REMARK    2  A    between atoms: O_2  and  C_3
REMARK    3  A    between atoms: C_5  and  C_6
REMARK    4  A    between atoms: C_6  and  N_7
REMARK    5  A    between atoms: C_11  and  C_12
REMARK    6  A    between atoms: C_19  and  C_20
REMARK                            x       y       z     vdW  Elec       q    Type
REMARK                         _______ _______ _______ _____ _____    ______ ____
ROOT
ATOM      1  N   UNL     1      47.170   3.405  14.666  0.00  0.00    +0.000 N 
ATOM      2  C   UNL     1      46.260   3.890  13.741  0.00  0.00    +0.000 A 
ATOM      3  C   UNL     1      45.890   5.237  13.630  0.00  0.00    +0.000 A 
ATOM      4  N   UNL     1      45.018   5.719  12.708  0.00  0.00    +0.000 NA
ATOM      5  C   UNL     1      44.541   4.783  11.846  0.00  0.00    +0.000 A 
ATOM      6  C   UNL     1      44.912   3.450  11.919  0.00  0.00    +0.000 A 
ATOM      7  N   UNL     1      45.767   2.983  12.871  0.00  0.00    +0.000 NA
ATOM      8  H   UNL     1      47.114   2.387  14.653  0.00  0.00    +0.000 HD
ENDROOT
BRANCH   5   9
ATOM      9  C   UNL     1      43.581   5.242  10.804  0.00  0.00    +0.000 C 
ATOM     10  N   UNL     1      43.857   4.833   9.527  0.00  0.00    +0.000 N 
ATOM     11  O   UNL     1      42.614   5.944  11.068  0.00  0.00    +0.000 OA
ATOM     12  H   UNL     1      44.669   4.253   9.348  0.00  0.00    +0.000 HD
ATOM     13  H   UNL     1      43.251   5.111   8.771  0.00  0.00    +0.000 HD
ENDBRANCH   5   9
BRANCH   1  14
ATOM     14  C   UNL     1      47.209   4.006  15.988  0.00  0.00    +0.000 C 
BRANCH  14  17
ATOM     15  C   UNL     1      50.483   4.879  17.798  0.00  0.00    +0.000 A 
ATOM     16  C   UNL     1      49.247   5.016  17.154  0.00  0.00    +0.000 A 
ATOM     17  C   UNL     1      48.578   3.900  16.624  0.00  0.00    +0.000 A 
ATOM     18  C   UNL     1      49.157   2.633  16.785  0.00  0.00    +0.000 A 
ATOM     19  C   UNL     1      50.389   2.489  17.422  0.00  0.00    +0.000 A 
ATOM     20  C   UNL     1      51.067   3.608  17.923  0.00  0.00    +0.000 A 
ATOM     21  C   UNL     1      52.395   3.432  18.604  0.00  0.00    +0.000 C 
BRANCH  15  23
ATOM     22  C   UNL     1      50.470   7.078  18.691  0.00  0.00    +0.000 C 
ATOM     23  O   UNL     1      51.211   5.928  18.299  0.00  0.00    +0.000 OA
ENDBRANCH  15  23
ENDBRANCH  14  17
ENDBRANCH   1  14
TORSDOF 4
ENDMDL
