MODEL 1
REMARK VINA RESULT:    -8.896      0.000      0.000
REMARK INTER + INTRA:         -13.382
REMARK INTER:                 -12.536
REMARK INTRA:                  -0.846
REMARK UNBOUND:                -0.846
REMARK  Name = 
REMARK  7 active torsions:
REMARK  status: ('A' for Active; 'I' for Inactive)
REMARK    1  A    between atoms: C_2  and  C_4
REMARK    2  A    between atoms: C_7  and  N_8
REMARK    3  A    between atoms: N_8  and  C_9
REMARK    4  A    between atoms: C_9  and  C_10
REMARK    5  A    between atoms: C_10  and  C_13
REMARK    6  A    between atoms: C_17  and  N_18
REMARK    7  A    between atoms: N_18  and  C_19
REMARK                            x       y       z     vdW  Elec       q    Type
REMARK                         _______ _______ _______ _____ _____    ______ ____
ROOT
ATOM      1  C   UNL     1      43.406   5.379  12.261  0.00  0.00    +0.000 C 
ATOM      2  F   UNL     1      42.941   6.552  11.731  0.00  0.00    +0.000 F 
ATOM      3  F   UNL     1      42.538   5.079  13.273  0.00  0.00    +0.000 F 
ENDROOT
BRANCH   1   4
ATOM      4  C   UNL     1      44.834   5.516  12.757  0.00  0.00    +0.000 A 
ATOM      5  C   UNL     1      45.643   6.563  12.296  0.00  0.00    +0.000 A 
ATOM      6  C   UNL     1      46.961   6.681  12.736  0.00  0.00    +0.000 A 
ATOM      7  C   UNL     1      47.490   5.747  13.633  0.00  0.00    +0.000 A 
ATOM      8  C   UNL     1      46.709   4.688  14.099  0.00  0.00    +0.000 A 
ATOM      9  C   UNL     1      45.379   4.591  13.664  0.00  0.00    +0.000 A 
BRANCH   8  10
ATOM     10  N   UNL     1      47.178   3.747  15.046  0.00  0.00    +0.000 N 
ATOM     11  H   UNL     1      46.451   3.049  15.212  0.00  0.00    +0.000 HD
BRANCH  10  12
ATOM     12  C   UNL     1      47.907   4.066  16.253  0.00  0.00    +0.000 C 
ATOM     13  C   UNL     1      48.207   2.821  17.112  0.00  0.00    +0.000 C 
ATOM     14  N   UNL     1      47.662   3.503  18.298  0.00  0.00    +0.000 NA
ATOM     15  C   UNL     1      47.068   4.551  17.449  0.00  0.00    +0.000 C 
ATOM     16  H   UNL     1      48.381   3.848  18.934  0.00  0.00    +0.000 HD
ENDBRANCH  10  12
ENDBRANCH   8  10
ENDBRANCH   1   4
BRANCH   1  17
ATOM     17  C   UNL     1      43.296   4.268  11.186  0.00  0.00    +0.000 C 
BRANCH  17  18
ATOM     18  N   UNL     1      43.737   4.701   9.845  0.00  0.00    +0.000 N 
ATOM     19  H   UNL     1      43.029   5.192   9.301  0.00  0.00    +0.000 HD
BRANCH  18  23
ATOM     20  C   UNL     1      46.597   2.472   7.698  0.00  0.00    +0.000 A 
ATOM     21  C   UNL     1      45.662   1.809   8.490  0.00  0.00    +0.000 A 
ATOM     22  C   UNL     1      44.692   2.537   9.188  0.00  0.00    +0.000 A 
ATOM     23  C   UNL     1      44.615   3.934   9.088  0.00  0.00    +0.000 A 
ATOM     24  C   UNL     1      45.568   4.584   8.299  0.00  0.00    +0.000 A 
ATOM     25  C   UNL     1      46.559   3.865   7.612  0.00  0.00    +0.000 A 
BRANCH  20  27
ATOM     26  N   UNL     1      48.502   2.469   6.186  0.00  0.00    +0.000 N 
ATOM     27  C   UNL     1      47.675   1.735   6.989  0.00  0.00    +0.000 C 
ATOM     28  O   UNL     1      47.847   0.531   7.143  0.00  0.00    +0.000 OA
ATOM     29  H   UNL     1      49.288   1.975   5.777  0.00  0.00    +0.000 HD
ATOM     30  H   UNL     1      48.557   3.478   6.233  0.00  0.00    +0.000 HD
ENDBRANCH  20  27
ENDBRANCH  18  23
ENDBRANCH  17  18
ENDBRANCH   1  17
TORSDOF 7
ENDMDL
MODEL 2
REMARK VINA RESULT:    -8.286      2.380      3.880
REMARK INTER + INTRA:         -12.523
REMARK INTER:                 -11.795
REMARK INTRA:                  -0.727
REMARK UNBOUND:                -0.846
REMARK  Name = 
REMARK  7 active torsions:
REMARK  status: ('A' for Active; 'I' for Inactive)
REMARK    1  A    between atoms: C_2  and  C_4
REMARK    2  A    between atoms: C_7  and  N_8
REMARK    3  A    between atoms: N_8  and  C_9
REMARK    4  A    between atoms: C_9  and  C_10
REMARK    5  A    between atoms: C_10  and  C_13
REMARK    6  A    between atoms: C_17  and  N_18
REMARK    7  A    between atoms: N_18  and  C_19
REMARK                            x       y       z     vdW  Elec       q    Type
REMARK                         _______ _______ _______ _____ _____    ______ ____
ROOT
ATOM      1  C   UNL     1      43.309   4.694  12.623  0.00  0.00    +0.000 C 
ATOM      2  F   UNL     1      42.448   5.756  12.659  0.00  0.00    +0.000 F 
ATOM      3  F   UNL     1      42.933   3.898  13.669  0.00  0.00    +0.000 F 
ENDROOT
BRANCH   1   4
ATOM      4  C   UNL     1      44.755   5.141  12.739  0.00  0.00    +0.000 A 
ATOM      5  C   UNL     1      45.724   4.267  13.252  0.00  0.00    +0.000 A 
ATOM      6  C   UNL     1      47.049   4.682  13.377  0.00  0.00    +0.000 A 
ATOM      7  C   UNL     1      47.420   5.977  13.004  0.00  0.00    +0.000 A 
ATOM      8  C   UNL     1      46.473   6.871  12.501  0.00  0.00    +0.000 A 
ATOM      9  C   UNL     1      45.147   6.437  12.361  0.00  0.00    +0.000 A 
BRANCH   8  10
ATOM     10  N   UNL     1      46.805   8.174  12.060  0.00  0.00    +0.000 N 
ATOM     11  H   UNL     1      47.785   8.190  11.773  0.00  0.00    +0.000 HD
BRANCH  10  12
ATOM     12  C   UNL     1      46.414   9.403  12.712  0.00  0.00    +0.000 C 
ATOM     13  C   UNL     1      44.960   9.808  12.394  0.00  0.00    +0.000 C 
ATOM     14  N   UNL     1      45.413  11.163  12.034  0.00  0.00    +0.000 NA
ATOM     15  C   UNL     1      46.815  10.710  12.005  0.00  0.00    +0.000 C 
ATOM     16  H   UNL     1      45.220  11.860  12.753  0.00  0.00    +0.000 HD
ENDBRANCH  10  12
ENDBRANCH   8  10
ENDBRANCH   1   4
BRANCH   1  17
ATOM     17  C   UNL     1      43.075   3.905  11.309  0.00  0.00    +0.000 C 
BRANCH  17  18
ATOM     18  N   UNL     1      43.684   4.543  10.125  0.00  0.00    +0.000 N 
ATOM     19  H   UNL     1      43.047   5.114   9.572  0.00  0.00    +0.000 HD
BRANCH  18  23
ATOM     20  C   UNL     1      46.485   2.481   7.745  0.00  0.00    +0.000 A 
ATOM     21  C   UNL     1      46.390   3.868   7.648  0.00  0.00    +0.000 A 
ATOM     22  C   UNL     1      45.480   4.565   8.451  0.00  0.00    +0.000 A 
ATOM     23  C   UNL     1      44.672   3.902   9.386  0.00  0.00    +0.000 A 
ATOM     24  C   UNL     1      44.773   2.510   9.461  0.00  0.00    +0.000 A 
ATOM     25  C   UNL     1      45.665   1.798   8.645  0.00  0.00    +0.000 A 
BRANCH  20  27
ATOM     26  N   UNL     1      48.481   2.365   6.360  0.00  0.00    +0.000 N 
ATOM     27  C   UNL     1      47.399   1.703   6.868  0.00  0.00    +0.000 C 
ATOM     28  O   UNL     1      47.218   0.513   6.637  0.00  0.00    +0.000 OA
ATOM     29  H   UNL     1      49.146   1.807   5.837  0.00  0.00    +0.000 HD
ATOM     30  H   UNL     1      48.801   3.253   6.726  0.00  0.00    +0.000 HD
ENDBRANCH  20  27
ENDBRANCH  18  23
ENDBRANCH  17  18
ENDBRANCH   1  17
TORSDOF 7
ENDMDL
MODEL 3
REMARK VINA RESULT:    -8.107      2.496      3.087
REMARK INTER + INTRA:         -12.271
REMARK INTER:                 -11.258
REMARK INTRA:                  -1.013
REMARK UNBOUND:                -0.846
REMARK  Name = 
REMARK  7 active torsions:
REMARK  status: ('A' for Active; 'I' for Inactive)
REMARK    1  A    between atoms: C_2  and  C_4
REMARK    2  A    between atoms: C_7  and  N_8
REMARK    3  A    between atoms: N_8  and  C_9
REMARK    4  A    between atoms: C_9  and  C_10
REMARK    5  A    between atoms: C_10  and  C_13
REMARK    6  A    between atoms: C_17  and  N_18
REMARK    7  A    between atoms: N_18  and  C_19
REMARK                            x       y       z     vdW  Elec       q    Type
REMARK                         _______ _______ _______ _____ _____    ______ ____
ROOT
ATOM      1  C   UNL     1      43.945   4.274  12.533  0.00  0.00    +0.000 C 
ATOM      2  F   UNL     1      42.988   4.248  13.511  0.00  0.00    +0.000 F 
ATOM      3  F   UNL     1      44.831   3.293  12.880  0.00  0.00    +0.000 F 
ENDROOT
BRANCH   1   4
ATOM      4  C   UNL     1      44.610   5.634  12.437  0.00  0.00    +0.000 A 
ATOM      5  C   UNL     1      44.123   6.595  11.540  0.00  0.00    +0.000 A 
ATOM      6  C   UNL     1      44.744   7.839  11.437  0.00  0.00    +0.000 A 
ATOM      7  C   UNL     1      45.866   8.134  12.218  0.00  0.00    +0.000 A 
ATOM      8  C   UNL     1      46.378   7.191  13.110  0.00  0.00    +0.000 A 
ATOM      9  C   UNL     1      45.734   5.950  13.221  0.00  0.00    +0.000 A 
BRANCH   8  10
ATOM     10  N   UNL     1      47.477   7.457  13.961  0.00  0.00    +0.000 N 
ATOM     11  H   UNL     1      47.515   8.459  14.156  0.00  0.00    +0.000 HD
BRANCH  10  12
ATOM     12  C   UNL     1      48.798   6.884  13.826  0.00  0.00    +0.000 C 
ATOM     13  C   UNL     1      49.813   7.494  14.813  0.00  0.00    +0.000 C 
ATOM     14  N   UNL     1      50.753   7.733  13.704  0.00  0.00    +0.000 NA
ATOM     15  C   UNL     1      49.689   7.475  12.718  0.00  0.00    +0.000 C 
ATOM     16  H   UNL     1      51.519   7.061  13.668  0.00  0.00    +0.000 HD
ENDBRANCH  10  12
ENDBRANCH   8  10
ENDBRANCH   1   4
BRANCH   1  17
ATOM     17  C   UNL     1      43.291   3.878  11.184  0.00  0.00    +0.000 C 
BRANCH  17  18
ATOM     18  N   UNL     1      43.880   2.668  10.579  0.00  0.00    +0.000 N 
ATOM     19  H   UNL     1      44.033   1.897  11.227  0.00  0.00    +0.000 HD
BRANCH  18  23
ATOM     20  C   UNL     1      46.543   2.812   7.315  0.00  0.00    +0.000 A 
ATOM     21  C   UNL     1      46.045   3.999   7.849  0.00  0.00    +0.000 A 
ATOM     22  C   UNL     1      45.179   3.965   8.948  0.00  0.00    +0.000 A 
ATOM     23  C   UNL     1      44.817   2.754   9.555  0.00  0.00    +0.000 A 
ATOM     24  C   UNL     1      45.318   1.572   9.000  0.00  0.00    +0.000 A 
ATOM     25  C   UNL     1      46.168   1.594   7.884  0.00  0.00    +0.000 A 
BRANCH  20  27
ATOM     26  N   UNL     1      48.741   2.531   6.313  0.00  0.00    +0.000 N 
ATOM     27  C   UNL     1      47.418   2.810   6.114  0.00  0.00    +0.000 C 
ATOM     28  O   UNL     1      46.975   3.008   4.988  0.00  0.00    +0.000 OA
ATOM     29  H   UNL     1      49.313   2.443   5.481  0.00  0.00    +0.000 HD
ATOM     30  H   UNL     1      49.091   2.116   7.167  0.00  0.00    +0.000 HD
ENDBRANCH  20  27
ENDBRANCH  18  23
ENDBRANCH  17  18
ENDBRANCH   1  17
TORSDOF 7
ENDMDL
MODEL 4
REMARK VINA RESULT:    -8.076      2.385      3.640
REMARK INTER + INTRA:         -12.226
REMARK INTER:                 -11.408
REMARK INTRA:                  -0.819
REMARK UNBOUND:                -0.846
REMARK  Name = 
REMARK  7 active torsions:
REMARK  status: ('A' for Active; 'I' for Inactive)
REMARK    1  A    between atoms: C_2  and  C_4
REMARK    2  A    between atoms: C_7  and  N_8
REMARK    3  A    between atoms: N_8  and  C_9
REMARK    4  A    between atoms: C_9  and  C_10
REMARK    5  A    between atoms: C_10  and  C_13
REMARK    6  A    between atoms: C_17  and  N_18
REMARK    7  A    between atoms: N_18  and  C_19
REMARK                            x       y       z     vdW  Elec       q    Type
REMARK                         _______ _______ _______ _____ _____    ______ ____
ROOT
ATOM      1  C   UNL     1      43.406   5.564  12.256  0.00  0.00    +0.000 C 
ATOM      2  F   UNL     1      42.948   6.792  11.864  0.00  0.00    +0.000 F 
ATOM      3  F   UNL     1      42.656   5.240  13.351  0.00  0.00    +0.000 F 
ENDROOT
BRANCH   1   4
ATOM      4  C   UNL     1      44.890   5.594  12.571  0.00  0.00    +0.000 A 
ATOM      5  C   UNL     1      45.431   4.697  13.503  0.00  0.00    +0.000 A 
ATOM      6  C   UNL     1      46.791   4.735  13.807  0.00  0.00    +0.000 A 
ATOM      7  C   UNL     1      47.625   5.676  13.195  0.00  0.00    +0.000 A 
ATOM      8  C   UNL     1      47.110   6.587  12.272  0.00  0.00    +0.000 A 
ATOM      9  C   UNL     1      45.744   6.528  11.958  0.00  0.00    +0.000 A 
BRANCH   8  10
ATOM     10  N   UNL     1      47.918   7.525  11.586  0.00  0.00    +0.000 N 
ATOM     11  H   UNL     1      48.163   7.146  10.669  0.00  0.00    +0.000 HD
BRANCH  10  12
ATOM     12  C   UNL     1      49.006   8.276  12.168  0.00  0.00    +0.000 C 
ATOM     13  C   UNL     1      49.128   9.697  11.580  0.00  0.00    +0.000 C 
ATOM     14  N   UNL     1      50.564   9.475  11.334  0.00  0.00    +0.000 NA
ATOM     15  C   UNL     1      50.403   8.030  11.571  0.00  0.00    +0.000 C 
ATOM     16  H   UNL     1      51.168   9.939  12.012  0.00  0.00    +0.000 HD
ENDBRANCH  10  12
ENDBRANCH   8  10
ENDBRANCH   1   4
BRANCH   1  17
ATOM     17  C   UNL     1      43.095   4.536  11.137  0.00  0.00    +0.000 C 
BRANCH  17  18
ATOM     18  N   UNL     1      43.777   4.832   9.862  0.00  0.00    +0.000 N 
ATOM     19  H   UNL     1      43.281   5.482   9.253  0.00  0.00    +0.000 HD
BRANCH  18  23
ATOM     20  C   UNL     1      46.218   1.982   7.943  0.00  0.00    +0.000 A 
ATOM     21  C   UNL     1      45.280   1.562   8.884  0.00  0.00    +0.000 A 
ATOM     22  C   UNL     1      44.448   2.497   9.510  0.00  0.00    +0.000 A 
ATOM     23  C   UNL     1      44.510   3.861   9.190  0.00  0.00    +0.000 A 
ATOM     24  C   UNL     1      45.464   4.266   8.251  0.00  0.00    +0.000 A 
ATOM     25  C   UNL     1      46.319   3.340   7.634  0.00  0.00    +0.000 A 
BRANCH  20  27
ATOM     26  N   UNL     1      46.920  -0.306   7.510  0.00  0.00    +0.000 N 
ATOM     27  C   UNL     1      47.156   1.025   7.302  0.00  0.00    +0.000 C 
ATOM     28  O   UNL     1      48.077   1.401   6.585  0.00  0.00    +0.000 OA
ATOM     29  H   UNL     1      47.509  -0.953   6.998  0.00  0.00    +0.000 HD
ATOM     30  H   UNL     1      46.042  -0.657   7.870  0.00  0.00    +0.000 HD
ENDBRANCH  20  27
ENDBRANCH  18  23
ENDBRANCH  17  18
ENDBRANCH   1  17
TORSDOF 7
ENDMDL
MODEL 5
REMARK VINA RESULT:    -7.777      1.813      2.227
REMARK INTER + INTRA:         -11.805
REMARK INTER:                 -11.004
REMARK INTRA:                  -0.801
REMARK UNBOUND:                -0.846
REMARK  Name = 
REMARK  7 active torsions:
REMARK  status: ('A' for Active; 'I' for Inactive)
REMARK    1  A    between atoms: C_2  and  C_4
REMARK    2  A    between atoms: C_7  and  N_8
REMARK    3  A    between atoms: N_8  and  C_9
REMARK    4  A    between atoms: C_9  and  C_10
REMARK    5  A    between atoms: C_10  and  C_13
REMARK    6  A    between atoms: C_17  and  N_18
REMARK    7  A    between atoms: N_18  and  C_19
REMARK                            x       y       z     vdW  Elec       q    Type
REMARK                         _______ _______ _______ _____ _____    ______ ____
ROOT
ATOM      1  C   UNL     1      45.411   6.090  11.543  0.00  0.00    +0.000 C 
ATOM      2  F   UNL     1      46.189   6.172  10.421  0.00  0.00    +0.000 F 
ATOM      3  F   UNL     1      45.113   7.385  11.863  0.00  0.00    +0.000 F 
ENDROOT
BRANCH   1   4
ATOM      4  C   UNL     1      46.131   5.376  12.672  0.00  0.00    +0.000 A 
ATOM      5  C   UNL     1      46.082   3.979  12.768  0.00  0.00    +0.000 A 
ATOM      6  C   UNL     1      46.727   3.322  13.815  0.00  0.00    +0.000 A 
ATOM      7  C   UNL     1      47.418   4.053  14.786  0.00  0.00    +0.000 A 
ATOM      8  C   UNL     1      47.473   5.446  14.721  0.00  0.00    +0.000 A 
ATOM      9  C   UNL     1      46.837   6.096  13.653  0.00  0.00    +0.000 A 
BRANCH   8  10
ATOM     10  N   UNL     1      48.202   6.230  15.647  0.00  0.00    +0.000 N 
ATOM     11  H   UNL     1      48.720   6.950  15.140  0.00  0.00    +0.000 HD
BRANCH  10  12
ATOM     12  C   UNL     1      48.950   5.717  16.771  0.00  0.00    +0.000 C 
ATOM     13  C   UNL     1      48.088   5.568  18.041  0.00  0.00    +0.000 C 
ATOM     14  N   UNL     1      49.098   6.305  18.819  0.00  0.00    +0.000 NA
ATOM     15  C   UNL     1      49.762   6.746  17.579  0.00  0.00    +0.000 C 
ATOM     16  H   UNL     1      49.678   5.704  19.404  0.00  0.00    +0.000 HD
ENDBRANCH  10  12
ENDBRANCH   8  10
ENDBRANCH   1   4
BRANCH   1  17
ATOM     17  C   UNL     1      44.088   5.366  11.182  0.00  0.00    +0.000 C 
BRANCH  17  18
ATOM     18  N   UNL     1      43.943   5.095   9.738  0.00  0.00    +0.000 N 
ATOM     19  H   UNL     1      43.015   5.282   9.359  0.00  0.00    +0.000 HD
BRANCH  18  23
ATOM     20  C   UNL     1      46.192   1.990   7.988  0.00  0.00    +0.000 A 
ATOM     21  C   UNL     1      45.293   1.695   9.011  0.00  0.00    +0.000 A 
ATOM     22  C   UNL     1      44.523   2.715   9.583  0.00  0.00    +0.000 A 
ATOM     23  C   UNL     1      44.610   4.038   9.129  0.00  0.00    +0.000 A 
ATOM     24  C   UNL     1      45.525   4.318   8.109  0.00  0.00    +0.000 A 
ATOM     25  C   UNL     1      46.319   3.308   7.544  0.00  0.00    +0.000 A 
BRANCH  20  27
ATOM     26  N   UNL     1      46.733  -0.357   7.653  0.00  0.00    +0.000 N 
ATOM     27  C   UNL     1      47.066   0.943   7.398  0.00  0.00    +0.000 C 
ATOM     28  O   UNL     1      48.020   1.224   6.680  0.00  0.00    +0.000 OA
ATOM     29  H   UNL     1      47.279  -1.065   7.175  0.00  0.00    +0.000 HD
ATOM     30  H   UNL     1      45.827  -0.630   8.014  0.00  0.00    +0.000 HD
ENDBRANCH  20  27
ENDBRANCH  18  23
ENDBRANCH  17  18
ENDBRANCH   1  17
TORSDOF 7
ENDMDL
MODEL 6
REMARK VINA RESULT:    -7.474      1.970      2.495
REMARK INTER + INTRA:         -11.378
REMARK INTER:                 -10.803
REMARK INTRA:                  -0.576
REMARK UNBOUND:                -0.846
REMARK  Name = 
REMARK  7 active torsions:
REMARK  status: ('A' for Active; 'I' for Inactive)
REMARK    1  A    between atoms: C_2  and  C_4
REMARK    2  A    between atoms: C_7  and  N_8
REMARK    3  A    between atoms: N_8  and  C_9
REMARK    4  A    between atoms: C_9  and  C_10
REMARK    5  A    between atoms: C_10  and  C_13
REMARK    6  A    between atoms: C_17  and  N_18
REMARK    7  A    between atoms: N_18  and  C_19
REMARK                            x       y       z     vdW  Elec       q    Type
REMARK                         _______ _______ _______ _____ _____    ______ ____
ROOT
ATOM      1  C   UNL     1      44.965   5.404  12.296  0.00  0.00    +0.000 C 
ATOM      2  F   UNL     1      43.987   5.074  13.194  0.00  0.00    +0.000 F 
ATOM      3  F   UNL     1      45.670   4.250  12.101  0.00  0.00    +0.000 F 
ENDROOT
BRANCH   1   4
ATOM      4  C   UNL     1      45.845   6.527  12.814  0.00  0.00    +0.000 A 
ATOM      5  C   UNL     1      45.503   7.863  12.563  0.00  0.00    +0.000 A 
ATOM      6  C   UNL     1      46.320   8.896  13.022  0.00  0.00    +0.000 A 
ATOM      7  C   UNL     1      47.493   8.607  13.726  0.00  0.00    +0.000 A 
ATOM      8  C   UNL     1      47.862   7.285  13.980  0.00  0.00    +0.000 A 
ATOM      9  C   UNL     1      47.024   6.254  13.530  0.00  0.00    +0.000 A 
BRANCH   8  10
ATOM     10  N   UNL     1      49.010   6.940  14.731  0.00  0.00    +0.000 N 
ATOM     11  H   UNL     1      49.645   6.398  14.142  0.00  0.00    +0.000 HD
BRANCH  10  12
ATOM     12  C   UNL     1      49.005   6.466  16.097  0.00  0.00    +0.000 C 
ATOM     13  C   UNL     1      48.933   7.614  17.124  0.00  0.00    +0.000 C 
ATOM     14  N   UNL     1      50.082   7.043  17.848  0.00  0.00    +0.000 NA
ATOM     15  C   UNL     1      50.378   6.148  16.715  0.00  0.00    +0.000 C 
ATOM     16  H   UNL     1      49.820   6.552  18.702  0.00  0.00    +0.000 HD
ENDBRANCH  10  12
ENDBRANCH   8  10
ENDBRANCH   1   4
BRANCH   1  17
ATOM     17  C   UNL     1      44.298   5.795  10.953  0.00  0.00    +0.000 C 
BRANCH  17  18
ATOM     18  N   UNL     1      43.883   4.633  10.143  0.00  0.00    +0.000 N 
ATOM     19  H   UNL     1      43.136   4.073  10.551  0.00  0.00    +0.000 HD
BRANCH  18  23
ATOM     20  C   UNL     1      46.463   2.332   7.734  0.00  0.00    +0.000 A 
ATOM     21  C   UNL     1      46.481   3.721   7.628  0.00  0.00    +0.000 A 
ATOM     22  C   UNL     1      45.645   4.497   8.440  0.00  0.00    +0.000 A 
ATOM     23  C   UNL     1      44.801   3.908   9.392  0.00  0.00    +0.000 A 
ATOM     24  C   UNL     1      44.789   2.513   9.478  0.00  0.00    +0.000 A 
ATOM     25  C   UNL     1      45.606   1.724   8.652  0.00  0.00    +0.000 A 
BRANCH  20  27
ATOM     26  N   UNL     1      48.339   2.080   6.205  0.00  0.00    +0.000 N 
ATOM     27  C   UNL     1      47.295   1.476   6.848  0.00  0.00    +0.000 C 
ATOM     28  O   UNL     1      47.085   0.274   6.724  0.00  0.00    +0.000 OA
ATOM     29  H   UNL     1      48.953   1.473   5.674  0.00  0.00    +0.000 HD
ATOM     30  H   UNL     1      48.696   2.988   6.475  0.00  0.00    +0.000 HD
ENDBRANCH  20  27
ENDBRANCH  18  23
ENDBRANCH  17  18
ENDBRANCH   1  17
TORSDOF 7
ENDMDL
MODEL 7
REMARK VINA RESULT:    -7.427      3.039      8.213
REMARK INTER + INTRA:         -11.311
REMARK INTER:                 -10.746
REMARK INTRA:                  -0.565
REMARK UNBOUND:                -0.846
REMARK  Name = 
REMARK  7 active torsions:
REMARK  status: ('A' for Active; 'I' for Inactive)
REMARK    1  A    between atoms: C_2  and  C_4
REMARK    2  A    between atoms: C_7  and  N_8
REMARK    3  A    between atoms: N_8  and  C_9
REMARK    4  A    between atoms: C_9  and  C_10
REMARK    5  A    between atoms: C_10  and  C_13
REMARK    6  A    between atoms: C_17  and  N_18
REMARK    7  A    between atoms: N_18  and  C_19
REMARK                            x       y       z     vdW  Elec       q    Type
REMARK                         _______ _______ _______ _____ _____    ______ ____
ROOT
ATOM      1  C   UNL     1      45.536   6.072  11.447  0.00  0.00    +0.000 C 
ATOM      2  F   UNL     1      44.534   7.003  11.419  0.00  0.00    +0.000 F 
ATOM      3  F   UNL     1      46.652   6.741  11.028  0.00  0.00    +0.000 F 
ENDROOT
BRANCH   1   4
ATOM      4  C   UNL     1      45.220   4.882  10.560  0.00  0.00    +0.000 A 
ATOM      5  C   UNL     1      44.428   3.833  11.045  0.00  0.00    +0.000 A 
ATOM      6  C   UNL     1      44.151   2.729  10.239  0.00  0.00    +0.000 A 
ATOM      7  C   UNL     1      44.672   2.655   8.943  0.00  0.00    +0.000 A 
ATOM      8  C   UNL     1      45.473   3.681   8.440  0.00  0.00    +0.000 A 
ATOM      9  C   UNL     1      45.729   4.795   9.252  0.00  0.00    +0.000 A 
BRANCH   8  10
ATOM     10  N   UNL     1      45.981   3.680   7.119  0.00  0.00    +0.000 N 
ATOM     11  H   UNL     1      45.382   4.260   6.530  0.00  0.00    +0.000 HD
BRANCH  10  12
ATOM     12  C   UNL     1      46.472   2.519   6.412  0.00  0.00    +0.000 C 
ATOM     13  C   UNL     1      47.679   1.862   7.113  0.00  0.00    +0.000 C 
ATOM     14  N   UNL     1      48.426   1.872   5.844  0.00  0.00    +0.000 NA
ATOM     15  C   UNL     1      47.439   2.788   5.245  0.00  0.00    +0.000 C 
ATOM     16  H   UNL     1      48.469   0.960   5.390  0.00  0.00    +0.000 HD
ENDBRANCH  10  12
ENDBRANCH   8  10
ENDBRANCH   1   4
BRANCH   1  17
ATOM     17  C   UNL     1      45.763   5.627  12.914  0.00  0.00    +0.000 C 
BRANCH  17  18
ATOM     18  N   UNL     1      47.176   5.694  13.336  0.00  0.00    +0.000 N 
ATOM     19  H   UNL     1      47.848   5.401  12.628  0.00  0.00    +0.000 HD
BRANCH  18  23
ATOM     20  C   UNL     1      48.466   4.620  17.202  0.00  0.00    +0.000 A 
ATOM     21  C   UNL     1      48.895   5.823  16.644  0.00  0.00    +0.000 A 
ATOM     22  C   UNL     1      48.454   6.201  15.370  0.00  0.00    +0.000 A 
ATOM     23  C   UNL     1      47.556   5.407  14.643  0.00  0.00    +0.000 A 
ATOM     24  C   UNL     1      47.145   4.199  15.214  0.00  0.00    +0.000 A 
ATOM     25  C   UNL     1      47.598   3.799  16.480  0.00  0.00    +0.000 A 
BRANCH  20  27
ATOM     26  N   UNL     1      48.283   3.130  19.116  0.00  0.00    +0.000 N 
ATOM     27  C   UNL     1      48.960   4.161  18.526  0.00  0.00    +0.000 C 
ATOM     28  O   UNL     1      49.951   4.652  19.055  0.00  0.00    +0.000 OA
ATOM     29  H   UNL     1      48.678   2.764  19.975  0.00  0.00    +0.000 HD
ATOM     30  H   UNL     1      47.636   2.539  18.609  0.00  0.00    +0.000 HD
ENDBRANCH  20  27
ENDBRANCH  18  23
ENDBRANCH  17  18
ENDBRANCH   1  17
TORSDOF 7
ENDMDL
MODEL 8
REMARK VINA RESULT:    -7.400      2.968      7.928
REMARK INTER + INTRA:         -11.274
REMARK INTER:                 -10.583
REMARK INTRA:                  -0.691
REMARK UNBOUND:                -0.846
REMARK  Name = 
REMARK  7 active torsions:
REMARK  status: ('A' for Active; 'I' for Inactive)
REMARK    1  A    between atoms: C_2  and  C_4
REMARK    2  A    between atoms: C_7  and  N_8
REMARK    3  A    between atoms: N_8  and  C_9
REMARK    4  A    between atoms: C_9  and  C_10
REMARK    5  A    between atoms: C_10  and  C_13
REMARK    6  A    between atoms: C_17  and  N_18
REMARK    7  A    between atoms: N_18  and  C_19
REMARK                            x       y       z     vdW  Elec       q    Type
REMARK                         _______ _______ _______ _____ _____    ______ ____
ROOT
ATOM      1  C   UNL     1      45.648   6.217  11.346  0.00  0.00    +0.000 C 
ATOM      2  F   UNL     1      44.852   7.287  11.039  0.00  0.00    +0.000 F 
ATOM      3  F   UNL     1      46.914   6.613  11.017  0.00  0.00    +0.000 F 
ENDROOT
BRANCH   1   4
ATOM      4  C   UNL     1      45.227   4.971  10.589  0.00  0.00    +0.000 A 
ATOM      5  C   UNL     1      44.420   4.008  11.211  0.00  0.00    +0.000 A 
ATOM      6  C   UNL     1      44.048   2.853  10.524  0.00  0.00    +0.000 A 
ATOM      7  C   UNL     1      44.486   2.640   9.214  0.00  0.00    +0.000 A 
ATOM      8  C   UNL     1      45.299   3.577   8.575  0.00  0.00    +0.000 A 
ATOM      9  C   UNL     1      45.652   4.745   9.268  0.00  0.00    +0.000 A 
BRANCH   8  10
ATOM     10  N   UNL     1      45.727   3.436   7.234  0.00  0.00    +0.000 N 
ATOM     11  H   UNL     1      45.108   2.781   6.753  0.00  0.00    +0.000 HD
BRANCH  10  12
ATOM     12  C   UNL     1      47.100   3.296   6.803  0.00  0.00    +0.000 C 
ATOM     13  C   UNL     1      47.219   2.890   5.321  0.00  0.00    +0.000 C 
ATOM     14  N   UNL     1      48.136   1.798   5.690  0.00  0.00    +0.000 NA
ATOM     15  C   UNL     1      47.779   1.950   7.112  0.00  0.00    +0.000 C 
ATOM     16  H   UNL     1      49.115   2.004   5.488  0.00  0.00    +0.000 HD
ENDBRANCH  10  12
ENDBRANCH   8  10
ENDBRANCH   1   4
BRANCH   1  17
ATOM     17  C   UNL     1      45.599   5.981  12.877  0.00  0.00    +0.000 C 
BRANCH  17  18
ATOM     18  N   UNL     1      46.828   6.404  13.576  0.00  0.00    +0.000 N 
ATOM     19  H   UNL     1      47.498   6.908  12.997  0.00  0.00    +0.000 HD
BRANCH  18  23
ATOM     20  C   UNL     1      48.456   4.179  16.764  0.00  0.00    +0.000 A 
ATOM     21  C   UNL     1      47.514   3.588  15.923  0.00  0.00    +0.000 A 
ATOM     22  C   UNL     1      46.985   4.309  14.847  0.00  0.00    +0.000 A 
ATOM     23  C   UNL     1      47.404   5.618  14.568  0.00  0.00    +0.000 A 
ATOM     24  C   UNL     1      48.341   6.199  15.428  0.00  0.00    +0.000 A 
ATOM     25  C   UNL     1      48.861   5.493  16.524  0.00  0.00    +0.000 A 
BRANCH  20  27
ATOM     26  N   UNL     1      50.350   3.294  18.006  0.00  0.00    +0.000 N 
ATOM     27  C   UNL     1      48.995   3.462  17.949  0.00  0.00    +0.000 C 
ATOM     28  O   UNL     1      48.269   3.072  18.856  0.00  0.00    +0.000 OA
ATOM     29  H   UNL     1      50.718   2.884  18.857  0.00  0.00    +0.000 HD
ATOM     30  H   UNL     1      50.992   3.815  17.423  0.00  0.00    +0.000 HD
ENDBRANCH  20  27
ENDBRANCH  18  23
ENDBRANCH  17  18
ENDBRANCH   1  17
TORSDOF 7
ENDMDL
MODEL 9
REMARK VINA RESULT:    -7.301      3.400      7.168
REMARK INTER + INTRA:         -11.134
REMARK INTER:                 -10.410
REMARK INTRA:                  -0.724
REMARK UNBOUND:                -0.846
REMARK  Name = 
REMARK  7 active torsions:
REMARK  status: ('A' for Active; 'I' for Inactive)
REMARK    1  A    between atoms: C_2  and  C_4
REMARK    2  A    between atoms: C_7  and  N_8
REMARK    3  A    between atoms: N_8  and  C_9
REMARK    4  A    between atoms: C_9  and  C_10
REMARK    5  A    between atoms: C_10  and  C_13
REMARK    6  A    between atoms: C_17  and  N_18
REMARK    7  A    between atoms: N_18  and  C_19
REMARK                            x       y       z     vdW  Elec       q    Type
REMARK                         _______ _______ _______ _____ _____    ______ ____
ROOT
ATOM      1  C   UNL     1      44.192   5.896  11.125  0.00  0.00    +0.000 C 
ATOM      2  F   UNL     1      42.895   6.330  11.089  0.00  0.00    +0.000 F 
ATOM      3  F   UNL     1      44.915   6.893  10.532  0.00  0.00    +0.000 F 
ENDROOT
BRANCH   1   4
ATOM      4  C   UNL     1      44.359   4.569  10.409  0.00  0.00    +0.000 A 
ATOM      5  C   UNL     1      43.923   3.382  11.015  0.00  0.00    +0.000 A 
ATOM      6  C   UNL     1      44.092   2.159  10.367  0.00  0.00    +0.000 A 
ATOM      7  C   UNL     1      44.709   2.105   9.113  0.00  0.00    +0.000 A 
ATOM      8  C   UNL     1      45.162   3.270   8.493  0.00  0.00    +0.000 A 
ATOM      9  C   UNL     1      44.970   4.497   9.145  0.00  0.00    +0.000 A 
BRANCH   8  10
ATOM     10  N   UNL     1      45.745   3.277   7.204  0.00  0.00    +0.000 N 
ATOM     11  H   UNL     1      45.163   2.725   6.571  0.00  0.00    +0.000 HD
BRANCH  10  12
ATOM     12  C   UNL     1      47.153   3.116   6.921  0.00  0.00    +0.000 C 
ATOM     13  C   UNL     1      47.437   2.898   5.421  0.00  0.00    +0.000 C 
ATOM     14  N   UNL     1      48.256   1.717   5.744  0.00  0.00    +0.000 NA
ATOM     15  C   UNL     1      47.733   1.704   7.122  0.00  0.00    +0.000 C 
ATOM     16  H   UNL     1      49.260   1.891   5.686  0.00  0.00    +0.000 HD
ENDBRANCH  10  12
ENDBRANCH   8  10
ENDBRANCH   1   4
BRANCH   1  17
ATOM     17  C   UNL     1      44.642   5.790  12.605  0.00  0.00    +0.000 C 
BRANCH  17  18
ATOM     18  N   UNL     1      45.196   7.049  13.142  0.00  0.00    +0.000 N 
ATOM     19  H   UNL     1      44.534   7.822  13.186  0.00  0.00    +0.000 HD
BRANCH  18  23
ATOM     20  C   UNL     1      49.173   8.040  12.160  0.00  0.00    +0.000 A 
ATOM     21  C   UNL     1      48.180   9.015  12.075  0.00  0.00    +0.000 A 
ATOM     22  C   UNL     1      46.860   8.703  12.422  0.00  0.00    +0.000 A 
ATOM     23  C   UNL     1      46.509   7.429  12.888  0.00  0.00    +0.000 A 
ATOM     24  C   UNL     1      47.515   6.460  12.956  0.00  0.00    +0.000 A 
ATOM     25  C   UNL     1      48.837   6.755  12.589  0.00  0.00    +0.000 A 
BRANCH  20  27
ATOM     26  N   UNL     1      51.232   7.325  11.082  0.00  0.00    +0.000 N 
ATOM     27  C   UNL     1      50.572   8.321  11.745  0.00  0.00    +0.000 C 
ATOM     28  O   UNL     1      51.103   9.407  11.949  0.00  0.00    +0.000 OA
ATOM     29  H   UNL     1      52.153   7.555  10.725  0.00  0.00    +0.000 HD
ATOM     30  H   UNL     1      50.757   6.530  10.674  0.00  0.00    +0.000 HD
ENDBRANCH  20  27
ENDBRANCH  18  23
ENDBRANCH  17  18
ENDBRANCH   1  17
TORSDOF 7
ENDMDL
