MODEL 1
REMARK VINA RESULT:    -7.166      0.000      0.000
REMARK INTER + INTRA:          -8.842
REMARK INTER:                  -8.422
REMARK INTRA:                  -0.420
REMARK UNBOUND:                -0.420
REMARK  Name = 
REMARK  6 active torsions:
REMARK  status: ('A' for Active; 'I' for Inactive)
REMARK    1  A    between atoms: C_1  and  C_2
REMARK    2  A    between atoms: C_2  and  C_3
REMARK    3  A    between atoms: C_2  and  C_4
REMARK    4  A    between atoms: C_2  and  C_5
REMARK    5  A    between atoms: N_7  and  C_8
REMARK    6  A    between atoms: C_8  and  C_9
REMARK                            x       y       z     vdW  Elec       q    Type
REMARK                         _______ _______ _______ _____ _____    ______ ____
ROOT
ATOM      1  C   UNL     1      46.086   5.888  11.364  0.00  0.00    +0.000 A 
ATOM      2  C   UNL     1      46.063   5.785   9.984  0.00  0.00    +0.000 A 
ATOM      3  N   UNL     1      45.210   4.777   9.619  0.00  0.00    +0.000 N 
ATOM      4  C   UNL     1      44.629   4.220  10.737  0.00  0.00    +0.000 A 
ATOM      5  C   UNL     1      43.698   3.176  10.869  0.00  0.00    +0.000 A 
ATOM      6  C   UNL     1      43.289   2.808  12.152  0.00  0.00    +0.000 A 
ATOM      7  C   UNL     1      43.791   3.459  13.271  0.00  0.00    +0.000 A 
ATOM      8  C   UNL     1      44.718   4.497  13.130  0.00  0.00    +0.000 A 
ATOM      9  C   UNL     1      45.154   4.897  11.846  0.00  0.00    +0.000 A 
ENDROOT
BRANCH   1  11
ATOM     10  C   UNL     1      47.623   6.117  13.383  0.00  0.00    +0.000 C 
ATOM     11  C   UNL     1      46.958   6.842  12.187  0.00  0.00    +0.000 C 
ATOM     12  C   UNL     1      46.098   7.982  12.769  0.00  0.00    +0.000 C 
ATOM     13  C   UNL     1      48.094   7.437  11.333  0.00  0.00    +0.000 C 
ENDBRANCH   1  11
BRANCH   3  14
ATOM     14  C   UNL     1      45.036   4.318   8.245  0.00  0.00    +0.000 C 
BRANCH  14  15
ATOM     15  C   UNL     1      45.935   3.173   7.912  0.00  0.00    +0.000 A 
ATOM     16  C   UNL     1      45.714   1.887   8.365  0.00  0.00    +0.000 A 
ATOM     17  N   UNL     1      46.502   0.836   8.066  0.00  0.00    +0.000 NA
ATOM     18  C   UNL     1      47.556   1.105   7.283  0.00  0.00    +0.000 A 
ATOM     19  N   UNL     1      47.869   2.306   6.770  0.00  0.00    +0.000 NA
ATOM     20  C   UNL     1      47.042   3.317   7.100  0.00  0.00    +0.000 A 
ENDBRANCH  14  15
ENDBRANCH   3  14
TORSDOF 3
ENDMDL
MODEL 2
REMARK VINA RESULT:    -6.314      1.491      2.523
REMARK INTER + INTRA:          -7.842
REMARK INTER:                  -7.375
REMARK INTRA:                  -0.467
REMARK UNBOUND:                -0.420
REMARK  Name = 
REMARK  6 active torsions:
REMARK  status: ('A' for Active; 'I' for Inactive)
REMARK    1  A    between atoms: C_1  and  C_2
REMARK    2  A    between atoms: C_2  and  C_3
REMARK    3  A    between atoms: C_2  and  C_4
REMARK    4  A    between atoms: C_2  and  C_5
REMARK    5  A    between atoms: N_7  and  C_8
REMARK    6  A    between atoms: C_8  and  C_9
REMARK                            x       y       z     vdW  Elec       q    Type
REMARK                         _______ _______ _______ _____ _____    ______ ____
ROOT
ATOM      1  C   UNL     1      46.045   7.159  12.171  0.00  0.00    +0.000 A 
ATOM      2  C   UNL     1      45.107   6.794  11.220  0.00  0.00    +0.000 A 
ATOM      3  N   UNL     1      44.903   5.441  11.280  0.00  0.00    +0.000 N 
ATOM      4  C   UNL     1      45.668   4.891  12.286  0.00  0.00    +0.000 A 
ATOM      5  C   UNL     1      45.793   3.562  12.727  0.00  0.00    +0.000 A 
ATOM      6  C   UNL     1      46.670   3.291  13.779  0.00  0.00    +0.000 A 
ATOM      7  C   UNL     1      47.402   4.311  14.373  0.00  0.00    +0.000 A 
ATOM      8  C   UNL     1      47.271   5.629  13.927  0.00  0.00    +0.000 A 
ATOM      9  C   UNL     1      46.392   5.941  12.865  0.00  0.00    +0.000 A 
ENDROOT
BRANCH   1  11
ATOM     10  C   UNL     1      46.790   8.874  13.900  0.00  0.00    +0.000 C 
ATOM     11  C   UNL     1      46.610   8.565  12.394  0.00  0.00    +0.000 C 
ATOM     12  C   UNL     1      45.643   9.624  11.827  0.00  0.00    +0.000 C 
ATOM     13  C   UNL     1      47.993   8.723  11.733  0.00  0.00    +0.000 C 
ENDBRANCH   1  11
BRANCH   3  14
ATOM     14  C   UNL     1      44.065   4.703  10.341  0.00  0.00    +0.000 C 
BRANCH  14  15
ATOM     15  C   UNL     1      44.871   3.938   9.343  0.00  0.00    +0.000 A 
ATOM     16  C   UNL     1      45.630   4.549   8.364  0.00  0.00    +0.000 A 
ATOM     17  N   UNL     1      46.377   3.881   7.463  0.00  0.00    +0.000 NA
ATOM     18  C   UNL     1      46.345   2.545   7.558  0.00  0.00    +0.000 A 
ATOM     19  N   UNL     1      45.659   1.838   8.470  0.00  0.00    +0.000 NA
ATOM     20  C   UNL     1      44.934   2.559   9.347  0.00  0.00    +0.000 A 
ENDBRANCH  14  15
ENDBRANCH   3  14
TORSDOF 3
ENDMDL
MODEL 3
REMARK VINA RESULT:    -5.903      2.104      5.345
REMARK INTER + INTRA:          -7.358
REMARK INTER:                  -6.797
REMARK INTRA:                  -0.561
REMARK UNBOUND:                -0.420
REMARK  Name = 
REMARK  6 active torsions:
REMARK  status: ('A' for Active; 'I' for Inactive)
REMARK    1  A    between atoms: C_1  and  C_2
REMARK    2  A    between atoms: C_2  and  C_3
REMARK    3  A    between atoms: C_2  and  C_4
REMARK    4  A    between atoms: C_2  and  C_5
REMARK    5  A    between atoms: N_7  and  C_8
REMARK    6  A    between atoms: C_8  and  C_9
REMARK                            x       y       z     vdW  Elec       q    Type
REMARK                         _______ _______ _______ _____ _____    ______ ____
ROOT
ATOM      1  C   UNL     1      45.501   4.236   9.400  0.00  0.00    +0.000 A 
ATOM      2  C   UNL     1      46.043   5.484   9.654  0.00  0.00    +0.000 A 
ATOM      3  N   UNL     1      45.635   5.913  10.890  0.00  0.00    +0.000 N 
ATOM      4  C   UNL     1      44.850   4.952  11.488  0.00  0.00    +0.000 A 
ATOM      5  C   UNL     1      44.213   4.931  12.741  0.00  0.00    +0.000 A 
ATOM      6  C   UNL     1      43.457   3.808  13.084  0.00  0.00    +0.000 A 
ATOM      7  C   UNL     1      43.339   2.738  12.208  0.00  0.00    +0.000 A 
ATOM      8  C   UNL     1      43.977   2.767  10.964  0.00  0.00    +0.000 A 
ATOM      9  C   UNL     1      44.750   3.887  10.583  0.00  0.00    +0.000 A 
ENDROOT
BRANCH   1  11
ATOM     10  C   UNL     1      46.067   1.965   8.393  0.00  0.00    +0.000 C 
ATOM     11  C   UNL     1      45.652   3.429   8.107  0.00  0.00    +0.000 C 
ATOM     12  C   UNL     1      46.751   4.045   7.219  0.00  0.00    +0.000 C 
ATOM     13  C   UNL     1      44.326   3.376   7.323  0.00  0.00    +0.000 C 
ENDBRANCH   1  11
BRANCH   3  14
ATOM     14  C   UNL     1      45.924   7.238  11.426  0.00  0.00    +0.000 C 
BRANCH  14  15
ATOM     15  C   UNL     1      47.234   7.287  12.142  0.00  0.00    +0.000 A 
ATOM     16  C   UNL     1      47.539   6.461  13.206  0.00  0.00    +0.000 A 
ATOM     17  N   UNL     1      48.719   6.474  13.858  0.00  0.00    +0.000 NA
ATOM     18  C   UNL     1      49.616   7.365  13.414  0.00  0.00    +0.000 A 
ATOM     19  N   UNL     1      49.443   8.211  12.385  0.00  0.00    +0.000 NA
ATOM     20  C   UNL     1      48.246   8.148  11.770  0.00  0.00    +0.000 A 
ENDBRANCH  14  15
ENDBRANCH   3  14
TORSDOF 3
ENDMDL
MODEL 4
REMARK VINA RESULT:    -5.801      1.832      3.729
REMARK INTER + INTRA:          -7.239
REMARK INTER:                  -6.886
REMARK INTRA:                  -0.353
REMARK UNBOUND:                -0.420
REMARK  Name = 
REMARK  6 active torsions:
REMARK  status: ('A' for Active; 'I' for Inactive)
REMARK    1  A    between atoms: C_1  and  C_2
REMARK    2  A    between atoms: C_2  and  C_3
REMARK    3  A    between atoms: C_2  and  C_4
REMARK    4  A    between atoms: C_2  and  C_5
REMARK    5  A    between atoms: N_7  and  C_8
REMARK    6  A    between atoms: C_8  and  C_9
REMARK                            x       y       z     vdW  Elec       q    Type
REMARK                         _______ _______ _______ _____ _____    ______ ____
ROOT
ATOM      1  C   UNL     1      46.848   7.079  12.899  0.00  0.00    +0.000 A 
ATOM      2  C   UNL     1      46.300   5.857  12.549  0.00  0.00    +0.000 A 
ATOM      3  N   UNL     1      45.154   6.063  11.827  0.00  0.00    +0.000 N 
ATOM      4  C   UNL     1      44.940   7.413  11.655  0.00  0.00    +0.000 A 
ATOM      5  C   UNL     1      43.913   8.106  10.990  0.00  0.00    +0.000 A 
ATOM      6  C   UNL     1      43.946   9.502  10.988  0.00  0.00    +0.000 A 
ATOM      7  C   UNL     1      44.969  10.188  11.630  0.00  0.00    +0.000 A 
ATOM      8  C   UNL     1      45.985   9.490  12.290  0.00  0.00    +0.000 A 
ATOM      9  C   UNL     1      45.985   8.077  12.311  0.00  0.00    +0.000 A 
ENDROOT
BRANCH   1  11
ATOM     10  C   UNL     1      48.012   8.632  14.549  0.00  0.00    +0.000 C 
ATOM     11  C   UNL     1      48.092   7.300  13.763  0.00  0.00    +0.000 C 
ATOM     12  C   UNL     1      49.352   7.374  12.876  0.00  0.00    +0.000 C 
ATOM     13  C   UNL     1      48.259   6.175  14.802  0.00  0.00    +0.000 C 
ENDBRANCH   1  11
BRANCH   3  14
ATOM     14  C   UNL     1      44.259   4.993  11.400  0.00  0.00    +0.000 C 
BRANCH  14  15
ATOM     15  C   UNL     1      44.790   4.247  10.220  0.00  0.00    +0.000 A 
ATOM     16  C   UNL     1      44.730   2.871  10.111  0.00  0.00    +0.000 A 
ATOM     17  N   UNL     1      45.187   2.177   9.051  0.00  0.00    +0.000 NA
ATOM     18  C   UNL     1      45.733   2.910   8.070  0.00  0.00    +0.000 A 
ATOM     19  N   UNL     1      45.838   4.248   8.053  0.00  0.00    +0.000 NA
ATOM     20  C   UNL     1      45.359   4.888   9.137  0.00  0.00    +0.000 A 
ENDBRANCH  14  15
ENDBRANCH   3  14
TORSDOF 3
ENDMDL
MODEL 5
REMARK VINA RESULT:    -5.730      3.276      5.759
REMARK INTER + INTRA:          -7.156
REMARK INTER:                  -6.618
REMARK INTRA:                  -0.537
REMARK UNBOUND:                -0.420
REMARK  Name = 
REMARK  6 active torsions:
REMARK  status: ('A' for Active; 'I' for Inactive)
REMARK    1  A    between atoms: C_1  and  C_2
REMARK    2  A    between atoms: C_2  and  C_3
REMARK    3  A    between atoms: C_2  and  C_4
REMARK    4  A    between atoms: C_2  and  C_5
REMARK    5  A    between atoms: N_7  and  C_8
REMARK    6  A    between atoms: C_8  and  C_9
REMARK                            x       y       z     vdW  Elec       q    Type
REMARK                         _______ _______ _______ _____ _____    ______ ____
ROOT
ATOM      1  C   UNL     1      47.619   4.571  15.562  0.00  0.00    +0.000 A 
ATOM      2  C   UNL     1      46.951   3.660  14.762  0.00  0.00    +0.000 A 
ATOM      3  N   UNL     1      46.759   4.203  13.520  0.00  0.00    +0.000 N 
ATOM      4  C   UNL     1      47.321   5.459  13.460  0.00  0.00    +0.000 A 
ATOM      5  C   UNL     1      47.384   6.393  12.411  0.00  0.00    +0.000 A 
ATOM      6  C   UNL     1      48.019   7.614  12.644  0.00  0.00    +0.000 A 
ATOM      7  C   UNL     1      48.574   7.899  13.885  0.00  0.00    +0.000 A 
ATOM      8  C   UNL     1      48.506   6.965  14.923  0.00  0.00    +0.000 A 
ATOM      9  C   UNL     1      47.872   5.718  14.723  0.00  0.00    +0.000 A 
ENDROOT
BRANCH   1  11
ATOM     10  C   UNL     1      47.185   5.373  17.941  0.00  0.00    +0.000 C 
ATOM     11  C   UNL     1      47.973   4.389  17.041  0.00  0.00    +0.000 C 
ATOM     12  C   UNL     1      49.472   4.669  17.269  0.00  0.00    +0.000 C 
ATOM     13  C   UNL     1      47.635   2.966  17.527  0.00  0.00    +0.000 C 
ENDBRANCH   1  11
BRANCH   3  14
ATOM     14  C   UNL     1      45.983   3.562  12.463  0.00  0.00    +0.000 C 
BRANCH  14  15
ATOM     15  C   UNL     1      44.683   4.255  12.214  0.00  0.00    +0.000 A 
ATOM     16  C   UNL     1      43.761   4.503  13.213  0.00  0.00    +0.000 A 
ATOM     17  N   UNL     1      42.590   5.139  13.016  0.00  0.00    +0.000 NA
ATOM     18  C   UNL     1      42.345   5.530  11.758  0.00  0.00    +0.000 A 
ATOM     19  N   UNL     1      43.165   5.358  10.708  0.00  0.00    +0.000 NA
ATOM     20  C   UNL     1      44.323   4.720  10.966  0.00  0.00    +0.000 A 
ENDBRANCH  14  15
ENDBRANCH   3  14
TORSDOF 3
ENDMDL
MODEL 6
REMARK VINA RESULT:    -5.715      4.029      6.280
REMARK INTER + INTRA:          -7.137
REMARK INTER:                  -6.553
REMARK INTRA:                  -0.585
REMARK UNBOUND:                -0.420
REMARK  Name = 
REMARK  6 active torsions:
REMARK  status: ('A' for Active; 'I' for Inactive)
REMARK    1  A    between atoms: C_1  and  C_2
REMARK    2  A    between atoms: C_2  and  C_3
REMARK    3  A    between atoms: C_2  and  C_4
REMARK    4  A    between atoms: C_2  and  C_5
REMARK    5  A    between atoms: N_7  and  C_8
REMARK    6  A    between atoms: C_8  and  C_9
REMARK                            x       y       z     vdW  Elec       q    Type
REMARK                         _______ _______ _______ _____ _____    ______ ____
ROOT
ATOM      1  C   UNL     1      48.125   6.890  13.355  0.00  0.00    +0.000 A 
ATOM      2  C   UNL     1      48.229   6.315  14.610  0.00  0.00    +0.000 A 
ATOM      3  N   UNL     1      47.263   5.354  14.750  0.00  0.00    +0.000 N 
ATOM      4  C   UNL     1      46.529   5.248  13.590  0.00  0.00    +0.000 A 
ATOM      5  C   UNL     1      45.450   4.412  13.254  0.00  0.00    +0.000 A 
ATOM      6  C   UNL     1      44.882   4.535  11.985  0.00  0.00    +0.000 A 
ATOM      7  C   UNL     1      45.372   5.463  11.076  0.00  0.00    +0.000 A 
ATOM      8  C   UNL     1      46.446   6.292  11.419  0.00  0.00    +0.000 A 
ATOM      9  C   UNL     1      47.046   6.194  12.694  0.00  0.00    +0.000 A 
ENDROOT
BRANCH   1  11
ATOM     10  C   UNL     1      49.788   7.628  11.571  0.00  0.00    +0.000 C 
ATOM     11  C   UNL     1      48.968   8.049  12.816  0.00  0.00    +0.000 C 
ATOM     12  C   UNL     1      49.977   8.516  13.884  0.00  0.00    +0.000 C 
ATOM     13  C   UNL     1      48.082   9.235  12.390  0.00  0.00    +0.000 C 
ENDBRANCH   1  11
BRANCH   3  14
ATOM     14  C   UNL     1      47.010   4.632  15.992  0.00  0.00    +0.000 C 
BRANCH  14  15
ATOM     15  C   UNL     1      48.169   3.783  16.401  0.00  0.00    +0.000 A 
ATOM     16  C   UNL     1      49.113   4.194  17.322  0.00  0.00    +0.000 A 
ATOM     17  N   UNL     1      50.158   3.441  17.718  0.00  0.00    +0.000 NA
ATOM     18  C   UNL     1      50.249   2.230  17.151  0.00  0.00    +0.000 A 
ATOM     19  N   UNL     1      49.391   1.714  16.256  0.00  0.00    +0.000 NA
ATOM     20  C   UNL     1      48.364   2.511  15.902  0.00  0.00    +0.000 A 
ENDBRANCH  14  15
ENDBRANCH   3  14
TORSDOF 3
ENDMDL
MODEL 7
REMARK VINA RESULT:    -5.689      3.100      5.324
REMARK INTER + INTRA:          -7.107
REMARK INTER:                  -6.497
REMARK INTRA:                  -0.610
REMARK UNBOUND:                -0.420
REMARK  Name = 
REMARK  6 active torsions:
REMARK  status: ('A' for Active; 'I' for Inactive)
REMARK    1  A    between atoms: C_1  and  C_2
REMARK    2  A    between atoms: C_2  and  C_3
REMARK    3  A    between atoms: C_2  and  C_4
REMARK    4  A    between atoms: C_2  and  C_5
REMARK    5  A    between atoms: N_7  and  C_8
REMARK    6  A    between atoms: C_8  and  C_9
REMARK                            x       y       z     vdW  Elec       q    Type
REMARK                         _______ _______ _______ _____ _____    ______ ____
ROOT
ATOM      1  C   UNL     1      48.257   6.760  13.901  0.00  0.00    +0.000 A 
ATOM      2  C   UNL     1      47.482   5.994  13.047  0.00  0.00    +0.000 A 
ATOM      3  N   UNL     1      47.007   4.901  13.722  0.00  0.00    +0.000 N 
ATOM      4  C   UNL     1      47.426   4.937  15.034  0.00  0.00    +0.000 A 
ATOM      5  C   UNL     1      47.193   4.051  16.101  0.00  0.00    +0.000 A 
ATOM      6  C   UNL     1      47.764   4.340  17.341  0.00  0.00    +0.000 A 
ATOM      7  C   UNL     1      48.544   5.476  17.516  0.00  0.00    +0.000 A 
ATOM      8  C   UNL     1      48.770   6.351  16.449  0.00  0.00    +0.000 A 
ATOM      9  C   UNL     1      48.207   6.091  15.179  0.00  0.00    +0.000 A 
ENDROOT
BRANCH   1  11
ATOM     10  C   UNL     1      48.435   9.281  14.223  0.00  0.00    +0.000 C 
ATOM     11  C   UNL     1      49.029   8.029  13.531  0.00  0.00    +0.000 C 
ATOM     12  C   UNL     1      48.954   8.275  12.010  0.00  0.00    +0.000 C 
ATOM     13  C   UNL     1      50.505   7.934  13.965  0.00  0.00    +0.000 C 
ENDBRANCH   1  11
BRANCH   3  14
ATOM     14  C   UNL     1      46.252   3.822  13.094  0.00  0.00    +0.000 C 
BRANCH  14  15
ATOM     15  C   UNL     1      44.978   4.304  12.482  0.00  0.00    +0.000 A 
ATOM     16  C   UNL     1      44.748   4.295  11.120  0.00  0.00    +0.000 A 
ATOM     17  N   UNL     1      43.602   4.709  10.545  0.00  0.00    +0.000 NA
ATOM     18  C   UNL     1      42.659   5.154  11.387  0.00  0.00    +0.000 A 
ATOM     19  N   UNL     1      42.758   5.200  12.726  0.00  0.00    +0.000 NA
ATOM     20  C   UNL     1      43.924   4.769  13.242  0.00  0.00    +0.000 A 
ENDBRANCH  14  15
ENDBRANCH   3  14
TORSDOF 3
ENDMDL
MODEL 8
REMARK VINA RESULT:    -5.591      3.395      6.739
REMARK INTER + INTRA:          -6.992
REMARK INTER:                  -6.731
REMARK INTRA:                  -0.261
REMARK UNBOUND:                -0.420
REMARK  Name = 
REMARK  6 active torsions:
REMARK  status: ('A' for Active; 'I' for Inactive)
REMARK    1  A    between atoms: C_1  and  C_2
REMARK    2  A    between atoms: C_2  and  C_3
REMARK    3  A    between atoms: C_2  and  C_4
REMARK    4  A    between atoms: C_2  and  C_5
REMARK    5  A    between atoms: N_7  and  C_8
REMARK    6  A    between atoms: C_8  and  C_9
REMARK                            x       y       z     vdW  Elec       q    Type
REMARK                         _______ _______ _______ _____ _____    ______ ____
ROOT
ATOM      1  C   UNL     1      44.821   5.458  12.151  0.00  0.00    +0.000 A 
ATOM      2  C   UNL     1      45.834   4.872  12.891  0.00  0.00    +0.000 A 
ATOM      3  N   UNL     1      46.732   5.833  13.273  0.00  0.00    +0.000 N 
ATOM      4  C   UNL     1      46.318   7.070  12.828  0.00  0.00    +0.000 A 
ATOM      5  C   UNL     1      46.897   8.342  12.975  0.00  0.00    +0.000 A 
ATOM      6  C   UNL     1      46.251   9.437  12.397  0.00  0.00    +0.000 A 
ATOM      7  C   UNL     1      45.065   9.271  11.695  0.00  0.00    +0.000 A 
ATOM      8  C   UNL     1      44.497   8.001  11.554  0.00  0.00    +0.000 A 
ATOM      9  C   UNL     1      45.123   6.870  12.126  0.00  0.00    +0.000 A 
ENDROOT
BRANCH   1  11
ATOM     10  C   UNL     1      42.307   5.451  11.741  0.00  0.00    +0.000 C 
ATOM     11  C   UNL     1      43.653   4.732  11.478  0.00  0.00    +0.000 C 
ATOM     12  C   UNL     1      43.519   3.302  12.040  0.00  0.00    +0.000 C 
ATOM     13  C   UNL     1      43.839   4.670   9.950  0.00  0.00    +0.000 C 
ENDBRANCH   1  11
BRANCH   3  14
ATOM     14  C   UNL     1      47.984   5.546  13.964  0.00  0.00    +0.000 C 
BRANCH  14  15
ATOM     15  C   UNL     1      47.769   5.173  15.394  0.00  0.00    +0.000 A 
ATOM     16  C   UNL     1      47.022   4.077  15.780  0.00  0.00    +0.000 A 
ATOM     17  N   UNL     1      46.826   3.711  17.062  0.00  0.00    +0.000 NA
ATOM     18  C   UNL     1      47.407   4.492  17.984  0.00  0.00    +0.000 A 
ATOM     19  N   UNL     1      48.164   5.573  17.734  0.00  0.00    +0.000 NA
ATOM     20  C   UNL     1      48.328   5.887  16.435  0.00  0.00    +0.000 A 
ENDBRANCH  14  15
ENDBRANCH   3  14
TORSDOF 3
ENDMDL
MODEL 9
REMARK VINA RESULT:    -5.266      3.572      7.184
REMARK INTER + INTRA:          -6.610
REMARK INTER:                  -5.950
REMARK INTRA:                  -0.660
REMARK UNBOUND:                -0.420
REMARK  Name = 
REMARK  6 active torsions:
REMARK  status: ('A' for Active; 'I' for Inactive)
REMARK    1  A    between atoms: C_1  and  C_2
REMARK    2  A    between atoms: C_2  and  C_3
REMARK    3  A    between atoms: C_2  and  C_4
REMARK    4  A    between atoms: C_2  and  C_5
REMARK    5  A    between atoms: N_7  and  C_8
REMARK    6  A    between atoms: C_8  and  C_9
REMARK                            x       y       z     vdW  Elec       q    Type
REMARK                         _______ _______ _______ _____ _____    ______ ____
ROOT
ATOM      1  C   UNL     1      45.563   5.766  12.257  0.00  0.00    +0.000 A 
ATOM      2  C   UNL     1      46.768   5.595  12.918  0.00  0.00    +0.000 A 
ATOM      3  N   UNL     1      47.375   6.812  13.077  0.00  0.00    +0.000 N 
ATOM      4  C   UNL     1      46.578   7.810  12.562  0.00  0.00    +0.000 A 
ATOM      5  C   UNL     1      46.768   9.201  12.497  0.00  0.00    +0.000 A 
ATOM      6  C   UNL     1      45.778   9.981  11.896  0.00  0.00    +0.000 A 
ATOM      7  C   UNL     1      44.633   9.394  11.373  0.00  0.00    +0.000 A 
ATOM      8  C   UNL     1      44.453   8.009  11.442  0.00  0.00    +0.000 A 
ATOM      9  C   UNL     1      45.433   7.189  12.044  0.00  0.00    +0.000 A 
ENDROOT
BRANCH   1  11
ATOM     10  C   UNL     1      43.213   4.811  12.485  0.00  0.00    +0.000 C 
ATOM     11  C   UNL     1      44.603   4.656  11.821  0.00  0.00    +0.000 C 
ATOM     12  C   UNL     1      45.154   3.279  12.240  0.00  0.00    +0.000 C 
ATOM     13  C   UNL     1      44.378   4.679  10.296  0.00  0.00    +0.000 C 
ENDBRANCH   1  11
BRANCH   3  14
ATOM     14  C   UNL     1      48.715   6.985  13.628  0.00  0.00    +0.000 C 
BRANCH  14  15
ATOM     15  C   UNL     1      48.696   7.221  15.103  0.00  0.00    +0.000 A 
ATOM     16  C   UNL     1      48.755   6.196  16.027  0.00  0.00    +0.000 A 
ATOM     17  N   UNL     1      48.755   6.383  17.361  0.00  0.00    +0.000 NA
ATOM     18  C   UNL     1      48.685   7.658  17.769  0.00  0.00    +0.000 A 
ATOM     19  N   UNL     1      48.636   8.737  16.970  0.00  0.00    +0.000 NA
ATOM     20  C   UNL     1      48.644   8.488  15.647  0.00  0.00    +0.000 A 
ENDBRANCH  14  15
ENDBRANCH   3  14
TORSDOF 3
ENDMDL
