MODEL 1
REMARK VINA RESULT:    -7.940      0.000      0.000
REMARK INTER + INTRA:          -9.703
REMARK INTER:                  -9.332
REMARK INTRA:                  -0.371
REMARK UNBOUND:                -0.371
REMARK  Name = 
REMARK  3 active torsions:
REMARK  status: ('A' for Active; 'I' for Inactive)
REMARK    1  A    between atoms: C_2  and  C_4
REMARK    2  A    between atoms: N_8  and  C_9
REMARK    3  A    between atoms: C_9  and  C_10
REMARK                            x       y       z     vdW  Elec       q    Type
REMARK                         _______ _______ _______ _____ _____    ______ ____
ROOT
ATOM      1  C   UNL     1      45.574   6.984  12.616  0.00  0.00    +0.000 A 
ATOM      2  C   UNL     1      46.262   5.929  13.207  0.00  0.00    +0.000 A 
ATOM      3  C   UNL     1      45.992   4.624  12.784  0.00  0.00    +0.000 A 
ATOM      4  C   UNL     1      45.083   4.401  11.750  0.00  0.00    +0.000 A 
ATOM      5  N   UNL     1      44.878   3.085  11.331  0.00  0.00    +0.000 N 
ATOM      6  N   UNL     1      44.425   5.421  11.169  0.00  0.00    +0.000 NA
ATOM      7  C   UNL     1      44.650   6.677  11.631  0.00  0.00    +0.000 A 
ATOM      8  H   UNL     1      44.414   2.548  12.060  0.00  0.00    +0.000 HD
ENDROOT
BRANCH   1  10
ATOM      9  N   UNL     1      46.680   8.663  13.972  0.00  0.00    +0.000 N 
ATOM     10  C   UNL     1      45.775   8.400  12.982  0.00  0.00    +0.000 C 
ATOM     11  O   UNL     1      45.187   9.304  12.400  0.00  0.00    +0.000 OA
ATOM     12  H   UNL     1      46.899   9.639  14.132  0.00  0.00    +0.000 HD
ATOM     13  H   UNL     1      47.361   7.981  14.280  0.00  0.00    +0.000 HD
ENDBRANCH   1  10
BRANCH   5  14
ATOM     14  C   UNL     1      44.241   2.885  10.031  0.00  0.00    +0.000 C 
BRANCH  14  15
ATOM     15  C   UNL     1      45.201   2.669   8.875  0.00  0.00    +0.000 A 
ATOM     16  C   UNL     1      45.545   3.737   8.042  0.00  0.00    +0.000 A 
ATOM     17  C   UNL     1      46.464   3.537   7.020  0.00  0.00    +0.000 A 
ATOM     18  C   UNL     1      47.033   2.282   6.863  0.00  0.00    +0.000 A 
ATOM     19  C   UNL     1      46.645   1.277   7.732  0.00  0.00    +0.000 A 
ATOM     20  F   UNL     1      47.212   0.070   7.596  0.00  0.00    +0.000 F 
ATOM     21  N   UNL     1      45.741   1.432   8.724  0.00  0.00    +0.000 NA
ENDBRANCH  14  15
ENDBRANCH   5  14
TORSDOF 3
ENDMDL
MODEL 2
REMARK VINA RESULT:    -7.898      1.566      1.676
REMARK INTER + INTRA:          -9.654
REMARK INTER:                  -9.287
REMARK INTRA:                  -0.366
REMARK UNBOUND:                -0.371
REMARK  Name = 
REMARK  3 active torsions:
REMARK  status: ('A' for Active; 'I' for Inactive)
REMARK    1  A    between atoms: C_2  and  C_4
REMARK    2  A    between atoms: N_8  and  C_9
REMARK    3  A    between atoms: C_9  and  C_10
REMARK                            x       y       z     vdW  Elec       q    Type
REMARK                         _______ _______ _______ _____ _____    ______ ____
ROOT
ATOM      1  C   UNL     1      46.853   5.497  13.291  0.00  0.00    +0.000 A 
ATOM      2  C   UNL     1      46.791   4.174  13.719  0.00  0.00    +0.000 A 
ATOM      3  C   UNL     1      45.999   3.269  13.007  0.00  0.00    +0.000 A 
ATOM      4  C   UNL     1      45.326   3.686  11.859  0.00  0.00    +0.000 A 
ATOM      5  N   UNL     1      44.581   2.736  11.156  0.00  0.00    +0.000 N 
ATOM      6  N   UNL     1      45.392   4.961  11.437  0.00  0.00    +0.000 NA
ATOM      7  C   UNL     1      46.116   5.845  12.172  0.00  0.00    +0.000 A 
ATOM      8  H   UNL     1      43.777   2.438  11.703  0.00  0.00    +0.000 HD
ENDROOT
BRANCH   1  10
ATOM      9  N   UNL     1      47.142   7.807  13.970  0.00  0.00    +0.000 N 
ATOM     10  C   UNL     1      47.654   6.539  13.963  0.00  0.00    +0.000 C 
ATOM     11  O   UNL     1      48.711   6.276  14.524  0.00  0.00    +0.000 OA
ATOM     12  H   UNL     1      47.637   8.487  14.536  0.00  0.00    +0.000 HD
ATOM     13  H   UNL     1      46.173   8.002  13.758  0.00  0.00    +0.000 HD
ENDBRANCH   1  10
BRANCH   5  14
ATOM     14  C   UNL     1      44.202   3.063   9.783  0.00  0.00    +0.000 C 
BRANCH  14  15
ATOM     15  C   UNL     1      45.230   2.691   8.730  0.00  0.00    +0.000 A 
ATOM     16  C   UNL     1      45.766   3.676   7.896  0.00  0.00    +0.000 A 
ATOM     17  C   UNL     1      46.744   3.332   6.972  0.00  0.00    +0.000 A 
ATOM     18  C   UNL     1      47.179   2.016   6.913  0.00  0.00    +0.000 A 
ATOM     19  C   UNL     1      46.604   1.100   7.777  0.00  0.00    +0.000 A 
ATOM     20  F   UNL     1      47.041  -0.167   7.736  0.00  0.00    +0.000 F 
ATOM     21  N   UNL     1      45.639   1.397   8.673  0.00  0.00    +0.000 NA
ENDBRANCH  14  15
ENDBRANCH   5  14
TORSDOF 3
ENDMDL
MODEL 3
REMARK VINA RESULT:    -7.619      3.425      6.507
REMARK INTER + INTRA:          -9.326
REMARK INTER:                  -9.093
REMARK INTRA:                  -0.233
REMARK UNBOUND:                -0.371
REMARK  Name = 
REMARK  3 active torsions:
REMARK  status: ('A' for Active; 'I' for Inactive)
REMARK    1  A    between atoms: C_2  and  C_4
REMARK    2  A    between atoms: N_8  and  C_9
REMARK    3  A    between atoms: C_9  and  C_10
REMARK                            x       y       z     vdW  Elec       q    Type
REMARK                         _______ _______ _______ _____ _____    ______ ____
ROOT
ATOM      1  C   UNL     1      46.234   2.024   7.878  0.00  0.00    +0.000 A 
ATOM      2  C   UNL     1      46.042   3.278   7.306  0.00  0.00    +0.000 A 
ATOM      3  C   UNL     1      45.268   4.221   7.988  0.00  0.00    +0.000 A 
ATOM      4  C   UNL     1      44.742   3.914   9.243  0.00  0.00    +0.000 A 
ATOM      5  N   UNL     1      44.011   4.902   9.906  0.00  0.00    +0.000 N 
ATOM      6  N   UNL     1      44.936   2.706   9.803  0.00  0.00    +0.000 NA
ATOM      7  C   UNL     1      45.639   1.778   9.103  0.00  0.00    +0.000 A 
ATOM      8  H   UNL     1      43.138   5.086   9.418  0.00  0.00    +0.000 HD
ENDROOT
BRANCH   1  10
ATOM      9  N   UNL     1      46.742  -0.333   7.619  0.00  0.00    +0.000 N 
ATOM     10  C   UNL     1      47.030   0.951   7.250  0.00  0.00    +0.000 C 
ATOM     11  O   UNL     1      47.886   1.194   6.407  0.00  0.00    +0.000 OA
ATOM     12  H   UNL     1      47.208  -1.066   7.096  0.00  0.00    +0.000 HD
ATOM     13  H   UNL     1      45.886  -0.581   8.097  0.00  0.00    +0.000 HD
ENDBRANCH   1  10
BRANCH   5  14
ATOM     14  C   UNL     1      43.794   4.728  11.341  0.00  0.00    +0.000 C 
BRANCH  14  15
ATOM     15  C   UNL     1      45.014   4.987  12.208  0.00  0.00    +0.000 A 
ATOM     16  C   UNL     1      45.495   6.289  12.369  0.00  0.00    +0.000 A 
ATOM     17  C   UNL     1      46.580   6.518  13.206  0.00  0.00    +0.000 A 
ATOM     18  C   UNL     1      47.149   5.445  13.877  0.00  0.00    +0.000 A 
ATOM     19  C   UNL     1      46.611   4.187  13.670  0.00  0.00    +0.000 A 
ATOM     20  F   UNL     1      47.146   3.154  14.337  0.00  0.00    +0.000 F 
ATOM     21  N   UNL     1      45.570   3.927  12.849  0.00  0.00    +0.000 NA
ENDBRANCH  14  15
ENDBRANCH   5  14
TORSDOF 3
ENDMDL
MODEL 4
REMARK VINA RESULT:    -7.070      3.628      6.614
REMARK INTER + INTRA:          -8.681
REMARK INTER:                  -8.511
REMARK INTRA:                  -0.170
REMARK UNBOUND:                -0.371
REMARK  Name = 
REMARK  3 active torsions:
REMARK  status: ('A' for Active; 'I' for Inactive)
REMARK    1  A    between atoms: C_2  and  C_4
REMARK    2  A    between atoms: N_8  and  C_9
REMARK    3  A    between atoms: C_9  and  C_10
REMARK                            x       y       z     vdW  Elec       q    Type
REMARK                         _______ _______ _______ _____ _____    ______ ____
ROOT
ATOM      1  C   UNL     1      46.489   2.786   7.347  0.00  0.00    +0.000 A 
ATOM      2  C   UNL     1      45.970   1.666   7.989  0.00  0.00    +0.000 A 
ATOM      3  C   UNL     1      45.170   1.846   9.121  0.00  0.00    +0.000 A 
ATOM      4  C   UNL     1      44.863   3.134   9.560  0.00  0.00    +0.000 A 
ATOM      5  N   UNL     1      44.024   3.266  10.668  0.00  0.00    +0.000 N 
ATOM      6  N   UNL     1      45.355   4.219   8.934  0.00  0.00    +0.000 NA
ATOM      7  C   UNL     1      46.180   4.029   7.873  0.00  0.00    +0.000 A 
ATOM      8  H   UNL     1      44.489   2.926  11.508  0.00  0.00    +0.000 HD
ENDROOT
BRANCH   1  10
ATOM      9  N   UNL     1      48.666   2.425   6.342  0.00  0.00    +0.000 N 
ATOM     10  C   UNL     1      47.346   2.718   6.146  0.00  0.00    +0.000 C 
ATOM     11  O   UNL     1      46.889   2.879   5.021  0.00  0.00    +0.000 OA
ATOM     12  H   UNL     1      49.218   2.261   5.508  0.00  0.00    +0.000 HD
ATOM     13  H   UNL     1      49.013   2.032   7.208  0.00  0.00    +0.000 HD
ENDBRANCH   1  10
BRANCH   5  14
ATOM     14  C   UNL     1      43.404   4.570  10.891  0.00  0.00    +0.000 C 
BRANCH  14  15
ATOM     15  C   UNL     1      44.271   5.570  11.636  0.00  0.00    +0.000 A 
ATOM     16  C   UNL     1      45.159   5.130  12.621  0.00  0.00    +0.000 A 
ATOM     17  C   UNL     1      45.983   6.049  13.258  0.00  0.00    +0.000 A 
ATOM     18  C   UNL     1      45.915   7.384  12.886  0.00  0.00    +0.000 A 
ATOM     19  C   UNL     1      45.014   7.740  11.898  0.00  0.00    +0.000 A 
ATOM     20  F   UNL     1      44.965   9.026  11.521  0.00  0.00    +0.000 F 
ATOM     21  N   UNL     1      44.186   6.876  11.272  0.00  0.00    +0.000 NA
ENDBRANCH  14  15
ENDBRANCH   5  14
TORSDOF 3
ENDMDL
MODEL 5
REMARK VINA RESULT:    -6.666      1.706      1.989
REMARK INTER + INTRA:          -8.206
REMARK INTER:                  -7.845
REMARK INTRA:                  -0.361
REMARK UNBOUND:                -0.371
REMARK  Name = 
REMARK  3 active torsions:
REMARK  status: ('A' for Active; 'I' for Inactive)
REMARK    1  A    between atoms: C_2  and  C_4
REMARK    2  A    between atoms: N_8  and  C_9
REMARK    3  A    between atoms: C_9  and  C_10
REMARK                            x       y       z     vdW  Elec       q    Type
REMARK                         _______ _______ _______ _____ _____    ______ ____
ROOT
ATOM      1  C   UNL     1      45.676   5.954  12.263  0.00  0.00    +0.000 A 
ATOM      2  C   UNL     1      45.911   4.741  12.905  0.00  0.00    +0.000 A 
ATOM      3  C   UNL     1      45.460   3.561  12.306  0.00  0.00    +0.000 A 
ATOM      4  C   UNL     1      44.829   3.607  11.063  0.00  0.00    +0.000 A 
ATOM      5  N   UNL     1      44.435   2.399  10.484  0.00  0.00    +0.000 N 
ATOM      6  N   UNL     1      44.611   4.777  10.436  0.00  0.00    +0.000 NA
ATOM      7  C   UNL     1      44.999   5.921  11.056  0.00  0.00    +0.000 A 
ATOM      8  H   UNL     1      43.680   1.977  11.021  0.00  0.00    +0.000 HD
ENDROOT
BRANCH   1  10
ATOM      9  N   UNL     1      45.591   8.376  12.199  0.00  0.00    +0.000 N 
ATOM     10  C   UNL     1      46.105   7.261  12.800  0.00  0.00    +0.000 C 
ATOM     11  O   UNL     1      46.856   7.345  13.764  0.00  0.00    +0.000 OA
ATOM     12  H   UNL     1      45.795   9.261  12.649  0.00  0.00    +0.000 HD
ATOM     13  H   UNL     1      44.783   8.343  11.592  0.00  0.00    +0.000 HD
ENDBRANCH   1  10
BRANCH   5  14
ATOM     14  C   UNL     1      44.134   2.406   9.054  0.00  0.00    +0.000 C 
BRANCH  14  15
ATOM     15  C   UNL     1      45.344   2.282   8.146  0.00  0.00    +0.000 A 
ATOM     16  C   UNL     1      46.155   1.146   8.212  0.00  0.00    +0.000 A 
ATOM     17  C   UNL     1      47.229   1.022   7.339  0.00  0.00    +0.000 A 
ATOM     18  C   UNL     1      47.458   2.025   6.409  0.00  0.00    +0.000 A 
ATOM     19  C   UNL     1      46.606   3.115   6.402  0.00  0.00    +0.000 A 
ATOM     20  F   UNL     1      46.813   4.073   5.487  0.00  0.00    +0.000 F 
ATOM     21  N   UNL     1      45.566   3.276   7.248  0.00  0.00    +0.000 NA
ENDBRANCH  14  15
ENDBRANCH   5  14
TORSDOF 3
ENDMDL
MODEL 6
REMARK VINA RESULT:    -6.473      2.272      2.895
REMARK INTER + INTRA:          -7.980
REMARK INTER:                  -7.696
REMARK INTRA:                  -0.284
REMARK UNBOUND:                -0.371
REMARK  Name = 
REMARK  3 active torsions:
REMARK  status: ('A' for Active; 'I' for Inactive)
REMARK    1  A    between atoms: C_2  and  C_4
REMARK    2  A    between atoms: N_8  and  C_9
REMARK    3  A    between atoms: C_9  and  C_10
REMARK                            x       y       z     vdW  Elec       q    Type
REMARK                         _______ _______ _______ _____ _____    ______ ____
ROOT
ATOM      1  C   UNL     1      47.498   7.060  13.636  0.00  0.00    +0.000 A 
ATOM      2  C   UNL     1      46.881   8.103  12.952  0.00  0.00    +0.000 A 
ATOM      3  C   UNL     1      46.004   7.801  11.906  0.00  0.00    +0.000 A 
ATOM      4  C   UNL     1      45.723   6.471  11.595  0.00  0.00    +0.000 A 
ATOM      5  N   UNL     1      44.809   6.217  10.571  0.00  0.00    +0.000 N 
ATOM      6  N   UNL     1      46.311   5.461  12.262  0.00  0.00    +0.000 NA
ATOM      7  C   UNL     1      47.206   5.768  13.235  0.00  0.00    +0.000 A 
ATOM      8  H   UNL     1      45.191   6.505   9.673  0.00  0.00    +0.000 HD
ENDROOT
BRANCH   1  10
ATOM      9  N   UNL     1      48.334   6.403  15.815  0.00  0.00    +0.000 N 
ATOM     10  C   UNL     1      48.440   7.259  14.755  0.00  0.00    +0.000 C 
ATOM     11  O   UNL     1      49.305   8.126  14.720  0.00  0.00    +0.000 OA
ATOM     12  H   UNL     1      49.059   6.470  16.520  0.00  0.00    +0.000 HD
ATOM     13  H   UNL     1      47.823   5.532  15.761  0.00  0.00    +0.000 HD
ENDBRANCH   1  10
BRANCH   5  14
ATOM     14  C   UNL     1      44.233   4.876  10.501  0.00  0.00    +0.000 C 
BRANCH  14  15
ATOM     15  C   UNL     1      44.918   3.937   9.524  0.00  0.00    +0.000 A 
ATOM     16  C   UNL     1      44.838   2.554   9.709  0.00  0.00    +0.000 A 
ATOM     17  C   UNL     1      45.425   1.705   8.779  0.00  0.00    +0.000 A 
ATOM     18  C   UNL     1      46.062   2.254   7.676  0.00  0.00    +0.000 A 
ATOM     19  C   UNL     1      46.092   3.633   7.560  0.00  0.00    +0.000 A 
ATOM     20  F   UNL     1      46.687   4.164   6.481  0.00  0.00    +0.000 F 
ATOM     21  N   UNL     1      45.549   4.487   8.454  0.00  0.00    +0.000 NA
ENDBRANCH  14  15
ENDBRANCH   5  14
TORSDOF 3
ENDMDL
MODEL 7
REMARK VINA RESULT:    -6.305      4.898      7.281
REMARK INTER + INTRA:          -7.782
REMARK INTER:                  -7.532
REMARK INTRA:                  -0.250
REMARK UNBOUND:                -0.371
REMARK  Name = 
REMARK  3 active torsions:
REMARK  status: ('A' for Active; 'I' for Inactive)
REMARK    1  A    between atoms: C_2  and  C_4
REMARK    2  A    between atoms: N_8  and  C_9
REMARK    3  A    between atoms: C_9  and  C_10
REMARK                            x       y       z     vdW  Elec       q    Type
REMARK                         _______ _______ _______ _____ _____    ______ ____
ROOT
ATOM      1  C   UNL     1      45.412   4.773  11.516  0.00  0.00    +0.000 A 
ATOM      2  C   UNL     1      46.119   5.926  11.844  0.00  0.00    +0.000 A 
ATOM      3  C   UNL     1      46.661   6.044  13.127  0.00  0.00    +0.000 A 
ATOM      4  C   UNL     1      46.531   4.996  14.038  0.00  0.00    +0.000 A 
ATOM      5  N   UNL     1      47.127   5.140  15.292  0.00  0.00    +0.000 N 
ATOM      6  N   UNL     1      45.857   3.876  13.719  0.00  0.00    +0.000 NA
ATOM      7  C   UNL     1      45.283   3.799  12.491  0.00  0.00    +0.000 A 
ATOM      8  H   UNL     1      46.655   5.865  15.828  0.00  0.00    +0.000 HD
ENDROOT
BRANCH   1  10
ATOM      9  N   UNL     1      45.400   5.121   9.116  0.00  0.00    +0.000 N 
ATOM     10  C   UNL     1      44.795   4.540  10.195  0.00  0.00    +0.000 C 
ATOM     11  O   UNL     1      43.808   3.825  10.064  0.00  0.00    +0.000 OA
ATOM     12  H   UNL     1      45.042   4.857   8.205  0.00  0.00    +0.000 HD
ATOM     13  H   UNL     1      46.343   5.485   9.153  0.00  0.00    +0.000 HD
ENDBRANCH   1  10
BRANCH   5  14
ATOM     14  C   UNL     1      47.321   3.930  16.088  0.00  0.00    +0.000 C 
BRANCH  14  15
ATOM     15  C   UNL     1      48.708   3.773  16.685  0.00  0.00    +0.000 A 
ATOM     16  C   UNL     1      49.349   4.871  17.264  0.00  0.00    +0.000 A 
ATOM     17  C   UNL     1      50.596   4.703  17.853  0.00  0.00    +0.000 A 
ATOM     18  C   UNL     1      51.167   3.439  17.866  0.00  0.00    +0.000 A 
ATOM     19  C   UNL     1      50.467   2.401  17.277  0.00  0.00    +0.000 A 
ATOM     20  F   UNL     1      51.008   1.174  17.311  0.00  0.00    +0.000 F 
ATOM     21  N   UNL     1      49.263   2.534  16.680  0.00  0.00    +0.000 NA
ENDBRANCH  14  15
ENDBRANCH   5  14
TORSDOF 3
ENDMDL
MODEL 8
REMARK VINA RESULT:    -6.085      4.953      6.145
REMARK INTER + INTRA:          -7.524
REMARK INTER:                  -7.294
REMARK INTRA:                  -0.230
REMARK UNBOUND:                -0.371
REMARK  Name = 
REMARK  3 active torsions:
REMARK  status: ('A' for Active; 'I' for Inactive)
REMARK    1  A    between atoms: C_2  and  C_4
REMARK    2  A    between atoms: N_8  and  C_9
REMARK    3  A    between atoms: C_9  and  C_10
REMARK                            x       y       z     vdW  Elec       q    Type
REMARK                         _______ _______ _______ _____ _____    ______ ____
ROOT
ATOM      1  C   UNL     1      49.254   4.512  18.165  0.00  0.00    +0.000 A 
ATOM      2  C   UNL     1      48.446   3.379  18.142  0.00  0.00    +0.000 A 
ATOM      3  C   UNL     1      47.542   3.214  17.089  0.00  0.00    +0.000 A 
ATOM      4  C   UNL     1      47.494   4.152  16.059  0.00  0.00    +0.000 A 
ATOM      5  N   UNL     1      46.606   3.923  15.006  0.00  0.00    +0.000 N 
ATOM      6  N   UNL     1      48.282   5.243  16.073  0.00  0.00    +0.000 NA
ATOM      7  C   UNL     1      49.112   5.422  17.132  0.00  0.00    +0.000 A 
ATOM      8  H   UNL     1      45.644   4.004  15.328  0.00  0.00    +0.000 HD
ENDROOT
BRANCH   1  10
ATOM      9  N   UNL     1      49.908   4.423  20.499  0.00  0.00    +0.000 N 
ATOM     10  C   UNL     1      50.242   4.791  19.225  0.00  0.00    +0.000 C 
ATOM     11  O   UNL     1      51.330   5.296  18.973  0.00  0.00    +0.000 OA
ATOM     12  H   UNL     1      50.638   4.508  21.196  0.00  0.00    +0.000 HD
ATOM     13  H   UNL     1      49.154   3.779  20.697  0.00  0.00    +0.000 HD
ENDBRANCH   1  10
BRANCH   5  14
ATOM     14  C   UNL     1      46.820   4.675  13.771  0.00  0.00    +0.000 C 
BRANCH  14  15
ATOM     15  C   UNL     1      45.730   4.512  12.727  0.00  0.00    +0.000 A 
ATOM     16  C   UNL     1      45.678   5.375  11.629  0.00  0.00    +0.000 A 
ATOM     17  C   UNL     1      44.706   5.183  10.654  0.00  0.00    +0.000 A 
ATOM     18  C   UNL     1      43.821   4.124  10.788  0.00  0.00    +0.000 A 
ATOM     19  C   UNL     1      43.941   3.309  11.900  0.00  0.00    +0.000 A 
ATOM     20  F   UNL     1      43.101   2.271  12.017  0.00  0.00    +0.000 F 
ATOM     21  N   UNL     1      44.861   3.479  12.875  0.00  0.00    +0.000 NA
ENDBRANCH  14  15
ENDBRANCH   5  14
TORSDOF 3
ENDMDL
MODEL 9
REMARK VINA RESULT:    -5.862      5.130      8.042
REMARK INTER + INTRA:          -7.262
REMARK INTER:                  -7.041
REMARK INTRA:                  -0.221
REMARK UNBOUND:                -0.371
REMARK  Name = 
REMARK  3 active torsions:
REMARK  status: ('A' for Active; 'I' for Inactive)
REMARK    1  A    between atoms: C_2  and  C_4
REMARK    2  A    between atoms: N_8  and  C_9
REMARK    3  A    between atoms: C_9  and  C_10
REMARK                            x       y       z     vdW  Elec       q    Type
REMARK                         _______ _______ _______ _____ _____    ______ ____
ROOT
ATOM      1  C   UNL     1      44.946   4.314  11.346  0.00  0.00    +0.000 A 
ATOM      2  C   UNL     1      45.695   5.486  11.298  0.00  0.00    +0.000 A 
ATOM      3  C   UNL     1      46.391   5.891  12.440  0.00  0.00    +0.000 A 
ATOM      4  C   UNL     1      46.367   5.100  13.588  0.00  0.00    +0.000 A 
ATOM      5  N   UNL     1      47.112   5.522  14.691  0.00  0.00    +0.000 N 
ATOM      6  N   UNL     1      45.652   3.961  13.634  0.00  0.00    +0.000 NA
ATOM      7  C   UNL     1      44.932   3.610  12.537  0.00  0.00    +0.000 A 
ATOM      8  H   UNL     1      46.714   6.372  15.084  0.00  0.00    +0.000 HD
ENDROOT
BRANCH   1  10
ATOM      9  N   UNL     1      43.902   4.661   9.185  0.00  0.00    +0.000 N 
ATOM     10  C   UNL     1      44.172   3.790  10.204  0.00  0.00    +0.000 C 
ATOM     11  O   UNL     1      43.819   2.618  10.150  0.00  0.00    +0.000 OA
ATOM     12  H   UNL     1      43.477   4.262   8.355  0.00  0.00    +0.000 HD
ATOM     13  H   UNL     1      44.394   5.537   9.075  0.00  0.00    +0.000 HD
ENDBRANCH   1  10
BRANCH   5  14
ATOM     14  C   UNL     1      47.395   4.534  15.730  0.00  0.00    +0.000 C 
BRANCH  14  15
ATOM     15  C   UNL     1      48.173   5.064  16.921  0.00  0.00    +0.000 A 
ATOM     16  C   UNL     1      49.305   5.858  16.720  0.00  0.00    +0.000 A 
ATOM     17  C   UNL     1      49.977   6.379  17.819  0.00  0.00    +0.000 A 
ATOM     18  C   UNL     1      49.494   6.112  19.091  0.00  0.00    +0.000 A 
ATOM     19  C   UNL     1      48.363   5.322  19.207  0.00  0.00    +0.000 A 
ATOM     20  F   UNL     1      47.882   5.084  20.435  0.00  0.00    +0.000 F 
ATOM     21  N   UNL     1      47.697   4.785  18.162  0.00  0.00    +0.000 NA
ENDBRANCH  14  15
ENDBRANCH   5  14
TORSDOF 3
ENDMDL
