MODEL 1
REMARK VINA RESULT:    -9.220      0.000      0.000
REMARK INTER + INTRA:         -12.787
REMARK INTER:                 -11.915
REMARK INTRA:                  -0.872
REMARK UNBOUND:                -0.872
REMARK  Name = 
REMARK  5 active torsions:
REMARK  status: ('A' for Active; 'I' for Inactive)
REMARK    1  A    between atoms: C_2  and  C_4
REMARK    2  A    between atoms: C_7  and  O_8
REMARK    3  A    between atoms: O_8  and  C_9
REMARK    4  A    between atoms: C_9  and  C_10
REMARK    5  A    between atoms: C_15  and  C_16
REMARK                            x       y       z     vdW  Elec       q    Type
REMARK                         _______ _______ _______ _____ _____    ______ ____
ROOT
ATOM      1  C   UNL     1      44.857   4.681  11.970  0.00  0.00    +0.000 A 
ATOM      2  C   UNL     1      45.509   3.804  12.841  0.00  0.00    +0.000 A 
ATOM      3  C   UNL     1      46.670   4.212  13.485  0.00  0.00    +0.000 A 
ATOM      4  F   UNL     1      47.291   3.365  14.317  0.00  0.00    +0.000 F 
ATOM      5  C   UNL     1      47.202   5.483  13.282  0.00  0.00    +0.000 A 
ATOM      6  C   UNL     1      46.590   6.385  12.397  0.00  0.00    +0.000 A 
ATOM      7  C   UNL     1      45.422   5.948  11.739  0.00  0.00    +0.000 A 
ENDROOT
BRANCH   6   8
ATOM      8  C   UNL     1      47.138   7.740  12.156  0.00  0.00    +0.000 A 
ATOM      9  C   UNL     1      48.488   7.941  11.805  0.00  0.00    +0.000 A 
ATOM     10  C   UNL     1      49.003   9.222  11.570  0.00  0.00    +0.000 A 
ATOM     11  C   UNL     1      48.173  10.333  11.669  0.00  0.00    +0.000 A 
ATOM     12  C   UNL     1      46.841  10.154  12.009  0.00  0.00    +0.000 A 
ATOM     13  F   UNL     1      46.032  11.218  12.097  0.00  0.00    +0.000 F 
ATOM     14  C   UNL     1      46.326   8.885  12.258  0.00  0.00    +0.000 A 
ENDBRANCH   6   8
BRANCH   1  15
ATOM     15  C   UNL     1      43.613   4.232  11.234  0.00  0.00    +0.000 C 
BRANCH  15  16
ATOM     16  O   UNL     1      43.656   4.656   9.867  0.00  0.00    +0.000 OA
BRANCH  16  20
ATOM     17  C   UNL     1      46.377   2.439   7.714  0.00  0.00    +0.000 A 
ATOM     18  C   UNL     1      45.494   1.792   8.581  0.00  0.00    +0.000 A 
ATOM     19  C   UNL     1      44.572   2.553   9.303  0.00  0.00    +0.000 A 
ATOM     20  C   UNL     1      44.566   3.930   9.128  0.00  0.00    +0.000 A 
ATOM     21  N   UNL     1      45.403   4.578   8.293  0.00  0.00    +0.000 NA
ATOM     22  C   UNL     1      46.296   3.821   7.613  0.00  0.00    +0.000 A 
BRANCH  17  24
ATOM     23  N   UNL     1      48.469   2.486   6.475  0.00  0.00    +0.000 N 
ATOM     24  C   UNL     1      47.413   1.747   6.926  0.00  0.00    +0.000 C 
ATOM     25  O   UNL     1      47.349   0.543   6.712  0.00  0.00    +0.000 OA
ATOM     26  H   UNL     1      49.217   1.965   6.033  0.00  0.00    +0.000 HD
ATOM     27  H   UNL     1      48.689   3.404   6.837  0.00  0.00    +0.000 HD
ENDBRANCH  17  24
ENDBRANCH  16  20
ENDBRANCH  15  16
ENDBRANCH   1  15
TORSDOF 5
ENDMDL
MODEL 2
REMARK VINA RESULT:    -8.864      2.125      4.253
REMARK INTER + INTRA:         -12.327
REMARK INTER:                 -11.635
REMARK INTRA:                  -0.692
REMARK UNBOUND:                -0.872
REMARK  Name = 
REMARK  5 active torsions:
REMARK  status: ('A' for Active; 'I' for Inactive)
REMARK    1  A    between atoms: C_2  and  C_4
REMARK    2  A    between atoms: C_7  and  O_8
REMARK    3  A    between atoms: O_8  and  C_9
REMARK    4  A    between atoms: C_9  and  C_10
REMARK    5  A    between atoms: C_15  and  C_16
REMARK                            x       y       z     vdW  Elec       q    Type
REMARK                         _______ _______ _______ _____ _____    ______ ____
ROOT
ATOM      1  C   UNL     1      45.546   5.202  12.124  0.00  0.00    +0.000 A 
ATOM      2  C   UNL     1      46.165   6.285  11.493  0.00  0.00    +0.000 A 
ATOM      3  C   UNL     1      47.224   6.931  12.117  0.00  0.00    +0.000 A 
ATOM      4  F   UNL     1      47.811   7.968  11.507  0.00  0.00    +0.000 F 
ATOM      5  C   UNL     1      47.687   6.521  13.366  0.00  0.00    +0.000 A 
ATOM      6  C   UNL     1      47.076   5.454  14.044  0.00  0.00    +0.000 A 
ATOM      7  C   UNL     1      45.992   4.821  13.402  0.00  0.00    +0.000 A 
ENDROOT
BRANCH   6   8
ATOM      8  C   UNL     1      47.542   5.003  15.376  0.00  0.00    +0.000 A 
ATOM      9  C   UNL     1      48.515   5.719  16.101  0.00  0.00    +0.000 A 
ATOM     10  C   UNL     1      48.949   5.295  17.363  0.00  0.00    +0.000 A 
ATOM     11  C   UNL     1      48.408   4.149  17.935  0.00  0.00    +0.000 A 
ATOM     12  C   UNL     1      47.446   3.435  17.238  0.00  0.00    +0.000 A 
ATOM     13  F   UNL     1      46.912   2.335  17.786  0.00  0.00    +0.000 F 
ATOM     14  C   UNL     1      47.021   3.842  15.977  0.00  0.00    +0.000 A 
ENDBRANCH   6   8
BRANCH   1  15
ATOM     15  C   UNL     1      44.367   4.518  11.469  0.00  0.00    +0.000 C 
BRANCH  15  16
ATOM     16  O   UNL     1      44.252   4.915  10.098  0.00  0.00    +0.000 OA
BRANCH  16  20
ATOM     17  C   UNL     1      46.500   2.477   7.657  0.00  0.00    +0.000 A 
ATOM     18  C   UNL     1      45.680   1.907   8.633  0.00  0.00    +0.000 A 
ATOM     19  C   UNL     1      44.919   2.742   9.453  0.00  0.00    +0.000 A 
ATOM     20  C   UNL     1      45.002   4.115   9.262  0.00  0.00    +0.000 A 
ATOM     21  N   UNL     1      45.781   4.690   8.323  0.00  0.00    +0.000 NA
ATOM     22  C   UNL     1      46.520   3.861   7.549  0.00  0.00    +0.000 A 
BRANCH  17  24
ATOM     23  N   UNL     1      48.445   2.338   6.205  0.00  0.00    +0.000 N 
ATOM     24  C   UNL     1      47.372   1.700   6.757  0.00  0.00    +0.000 C 
ATOM     25  O   UNL     1      47.164   0.513   6.540  0.00  0.00    +0.000 OA
ATOM     26  H   UNL     1      49.086   1.754   5.681  0.00  0.00    +0.000 HD
ATOM     27  H   UNL     1      48.794   3.222   6.549  0.00  0.00    +0.000 HD
ENDBRANCH  17  24
ENDBRANCH  16  20
ENDBRANCH  15  16
ENDBRANCH   1  15
TORSDOF 5
ENDMDL
MODEL 3
REMARK VINA RESULT:    -8.248      4.999      8.283
REMARK INTER + INTRA:         -11.531
REMARK INTER:                 -10.896
REMARK INTRA:                  -0.635
REMARK UNBOUND:                -0.872
REMARK  Name = 
REMARK  5 active torsions:
REMARK  status: ('A' for Active; 'I' for Inactive)
REMARK    1  A    between atoms: C_2  and  C_4
REMARK    2  A    between atoms: C_7  and  O_8
REMARK    3  A    between atoms: O_8  and  C_9
REMARK    4  A    between atoms: C_9  and  C_10
REMARK    5  A    between atoms: C_15  and  C_16
REMARK                            x       y       z     vdW  Elec       q    Type
REMARK                         _______ _______ _______ _____ _____    ______ ____
ROOT
ATOM      1  C   UNL     1      45.123   4.982  12.797  0.00  0.00    +0.000 A 
ATOM      2  C   UNL     1      43.788   5.397  12.816  0.00  0.00    +0.000 A 
ATOM      3  C   UNL     1      42.988   5.192  11.701  0.00  0.00    +0.000 A 
ATOM      4  F   UNL     1      41.710   5.593  11.726  0.00  0.00    +0.000 F 
ATOM      5  C   UNL     1      43.488   4.577  10.555  0.00  0.00    +0.000 A 
ATOM      6  C   UNL     1      44.829   4.168  10.486  0.00  0.00    +0.000 A 
ATOM      7  C   UNL     1      45.631   4.400  11.622  0.00  0.00    +0.000 A 
ENDROOT
BRANCH   6   8
ATOM      8  C   UNL     1      45.389   3.520   9.277  0.00  0.00    +0.000 A 
ATOM      9  C   UNL     1      45.839   4.272   8.175  0.00  0.00    +0.000 A 
ATOM     10  C   UNL     1      46.374   3.658   7.036  0.00  0.00    +0.000 A 
ATOM     11  C   UNL     1      46.485   2.273   6.980  0.00  0.00    +0.000 A 
ATOM     12  C   UNL     1      46.052   1.517   8.058  0.00  0.00    +0.000 A 
ATOM     13  F   UNL     1      46.163   0.182   8.017  0.00  0.00    +0.000 F 
ATOM     14  C   UNL     1      45.505   2.120   9.187  0.00  0.00    +0.000 A 
ENDBRANCH   6   8
BRANCH   1  15
ATOM     15  C   UNL     1      46.012   5.237  13.994  0.00  0.00    +0.000 C 
BRANCH  15  16
ATOM     16  O   UNL     1      46.521   4.004  14.515  0.00  0.00    +0.000 OA
BRANCH  16  20
ATOM     17  C   UNL     1      48.399   4.528  18.142  0.00  0.00    +0.000 A 
ATOM     18  C   UNL     1      48.716   5.371  17.074  0.00  0.00    +0.000 A 
ATOM     19  C   UNL     1      48.070   5.187  15.850  0.00  0.00    +0.000 A 
ATOM     20  C   UNL     1      47.129   4.172  15.741  0.00  0.00    +0.000 A 
ATOM     21  N   UNL     1      46.800   3.350  16.758  0.00  0.00    +0.000 NA
ATOM     22  C   UNL     1      47.449   3.538  17.931  0.00  0.00    +0.000 A 
BRANCH  17  24
ATOM     23  N   UNL     1      48.517   3.834  20.469  0.00  0.00    +0.000 N 
ATOM     24  C   UNL     1      49.037   4.605  19.469  0.00  0.00    +0.000 C 
ATOM     25  O   UNL     1      50.020   5.309  19.661  0.00  0.00    +0.000 OA
ATOM     26  H   UNL     1      49.040   3.824  21.337  0.00  0.00    +0.000 HD
ATOM     27  H   UNL     1      47.885   3.065  20.296  0.00  0.00    +0.000 HD
ENDBRANCH  17  24
ENDBRANCH  16  20
ENDBRANCH  15  16
ENDBRANCH   1  15
TORSDOF 5
ENDMDL
MODEL 4
REMARK VINA RESULT:    -8.095      1.735      2.846
REMARK INTER + INTRA:         -11.333
REMARK INTER:                 -10.542
REMARK INTRA:                  -0.790
REMARK UNBOUND:                -0.872
REMARK  Name = 
REMARK  5 active torsions:
REMARK  status: ('A' for Active; 'I' for Inactive)
REMARK    1  A    between atoms: C_2  and  C_4
REMARK    2  A    between atoms: C_7  and  O_8
REMARK    3  A    between atoms: O_8  and  C_9
REMARK    4  A    between atoms: C_9  and  C_10
REMARK    5  A    between atoms: C_15  and  C_16
REMARK                            x       y       z     vdW  Elec       q    Type
REMARK                         _______ _______ _______ _____ _____    ______ ____
ROOT
ATOM      1  C   UNL     1      44.653   5.224  11.578  0.00  0.00    +0.000 A 
ATOM      2  C   UNL     1      43.720   6.212  11.250  0.00  0.00    +0.000 A 
ATOM      3  C   UNL     1      44.080   7.550  11.329  0.00  0.00    +0.000 A 
ATOM      4  F   UNL     1      43.180   8.491  11.014  0.00  0.00    +0.000 F 
ATOM      5  C   UNL     1      45.358   7.934  11.728  0.00  0.00    +0.000 A 
ATOM      6  C   UNL     1      46.316   6.974  12.089  0.00  0.00    +0.000 A 
ATOM      7  C   UNL     1      45.927   5.620  12.020  0.00  0.00    +0.000 A 
ENDROOT
BRANCH   6   8
ATOM      8  C   UNL     1      47.680   7.353  12.526  0.00  0.00    +0.000 A 
ATOM      9  C   UNL     1      48.470   8.254  11.786  0.00  0.00    +0.000 A 
ATOM     10  C   UNL     1      49.757   8.617  12.204  0.00  0.00    +0.000 A 
ATOM     11  C   UNL     1      50.277   8.096  13.384  0.00  0.00    +0.000 A 
ATOM     12  C   UNL     1      49.511   7.212  14.128  0.00  0.00    +0.000 A 
ATOM     13  F   UNL     1      50.001   6.712  15.270  0.00  0.00    +0.000 F 
ATOM     14  C   UNL     1      48.238   6.835  13.710  0.00  0.00    +0.000 A 
ENDBRANCH   6   8
BRANCH   1  15
ATOM     15  C   UNL     1      44.257   3.764  11.532  0.00  0.00    +0.000 C 
BRANCH  15  16
ATOM     16  O   UNL     1      43.646   3.446  10.277  0.00  0.00    +0.000 OA
BRANCH  16  20
ATOM     17  C   UNL     1      46.467   2.554   7.413  0.00  0.00    +0.000 A 
ATOM     18  C   UNL     1      46.036   1.555   8.290  0.00  0.00    +0.000 A 
ATOM     19  C   UNL     1      45.076   1.868   9.255  0.00  0.00    +0.000 A 
ATOM     20  C   UNL     1      44.580   3.164   9.303  0.00  0.00    +0.000 A 
ATOM     21  N   UNL     1      44.974   4.143   8.464  0.00  0.00    +0.000 NA
ATOM     22  C   UNL     1      45.915   3.821   7.546  0.00  0.00    +0.000 A 
BRANCH  17  24
ATOM     23  N   UNL     1      47.475   3.177   5.290  0.00  0.00    +0.000 N 
ATOM     24  C   UNL     1      47.497   2.351   6.377  0.00  0.00    +0.000 C 
ATOM     25  O   UNL     1      48.364   1.496   6.503  0.00  0.00    +0.000 OA
ATOM     26  H   UNL     1      48.256   3.088   4.651  0.00  0.00    +0.000 HD
ATOM     27  H   UNL     1      46.950   4.040   5.268  0.00  0.00    +0.000 HD
ENDBRANCH  17  24
ENDBRANCH  16  20
ENDBRANCH  15  16
ENDBRANCH   1  15
TORSDOF 5
ENDMDL
MODEL 5
REMARK VINA RESULT:    -8.060      4.065      7.474
REMARK INTER + INTRA:         -11.289
REMARK INTER:                 -10.712
REMARK INTRA:                  -0.577
REMARK UNBOUND:                -0.872
REMARK  Name = 
REMARK  5 active torsions:
REMARK  status: ('A' for Active; 'I' for Inactive)
REMARK    1  A    between atoms: C_2  and  C_4
REMARK    2  A    between atoms: C_7  and  O_8
REMARK    3  A    between atoms: O_8  and  C_9
REMARK    4  A    between atoms: C_9  and  C_10
REMARK    5  A    between atoms: C_15  and  C_16
REMARK                            x       y       z     vdW  Elec       q    Type
REMARK                         _______ _______ _______ _____ _____    ______ ____
ROOT
ATOM      1  C   UNL     1      45.451   6.189  11.445  0.00  0.00    +0.000 A 
ATOM      2  C   UNL     1      44.091   6.132  11.762  0.00  0.00    +0.000 A 
ATOM      3  C   UNL     1      43.264   5.245  11.086  0.00  0.00    +0.000 A 
ATOM      4  F   UNL     1      41.961   5.198  11.394  0.00  0.00    +0.000 F 
ATOM      5  C   UNL     1      43.762   4.405  10.093  0.00  0.00    +0.000 A 
ATOM      6  C   UNL     1      45.117   4.448   9.728  0.00  0.00    +0.000 A 
ATOM      7  C   UNL     1      45.938   5.366  10.414  0.00  0.00    +0.000 A 
ENDROOT
BRANCH   6   8
ATOM      8  C   UNL     1      45.672   3.571   8.670  0.00  0.00    +0.000 A 
ATOM      9  C   UNL     1      46.212   4.098   7.481  0.00  0.00    +0.000 A 
ATOM     10  C   UNL     1      46.742   3.268   6.485  0.00  0.00    +0.000 A 
ATOM     11  C   UNL     1      46.756   1.890   6.664  0.00  0.00    +0.000 A 
ATOM     12  C   UNL     1      46.234   1.354   7.831  0.00  0.00    +0.000 A 
ATOM     13  F   UNL     1      46.252   0.027   8.016  0.00  0.00    +0.000 F 
ATOM     14  C   UNL     1      45.691   2.172   8.818  0.00  0.00    +0.000 A 
ENDBRANCH   6   8
BRANCH   1  15
ATOM     15  C   UNL     1      46.351   7.179  12.150  0.00  0.00    +0.000 C 
BRANCH  15  16
ATOM     16  O   UNL     1      47.634   6.597  12.410  0.00  0.00    +0.000 OA
BRANCH  16  20
ATOM     17  C   UNL     1      47.711   4.727  16.077  0.00  0.00    +0.000 A 
ATOM     18  C   UNL     1      46.993   4.152  15.026  0.00  0.00    +0.000 A 
ATOM     19  C   UNL     1      46.977   4.792  13.785  0.00  0.00    +0.000 A 
ATOM     20  C   UNL     1      47.683   5.980  13.642  0.00  0.00    +0.000 A 
ATOM     21  N   UNL     1      48.388   6.552  14.638  0.00  0.00    +0.000 NA
ATOM     22  C   UNL     1      48.379   5.920  15.835  0.00  0.00    +0.000 A 
BRANCH  17  24
ATOM     23  N   UNL     1      47.122   4.828  18.434  0.00  0.00    +0.000 N 
ATOM     24  C   UNL     1      47.774   4.161  17.438  0.00  0.00    +0.000 C 
ATOM     25  O   UNL     1      48.360   3.110  17.661  0.00  0.00    +0.000 OA
ATOM     26  H   UNL     1      47.090   4.361  19.332  0.00  0.00    +0.000 HD
ATOM     27  H   UNL     1      46.429   5.541  18.254  0.00  0.00    +0.000 HD
ENDBRANCH  17  24
ENDBRANCH  16  20
ENDBRANCH  15  16
ENDBRANCH   1  15
TORSDOF 5
ENDMDL
MODEL 6
REMARK VINA RESULT:    -7.772      2.186      2.895
REMARK INTER + INTRA:         -10.916
REMARK INTER:                 -10.077
REMARK INTRA:                  -0.840
REMARK UNBOUND:                -0.872
REMARK  Name = 
REMARK  5 active torsions:
REMARK  status: ('A' for Active; 'I' for Inactive)
REMARK    1  A    between atoms: C_2  and  C_4
REMARK    2  A    between atoms: C_7  and  O_8
REMARK    3  A    between atoms: O_8  and  C_9
REMARK    4  A    between atoms: C_9  and  C_10
REMARK    5  A    between atoms: C_15  and  C_16
REMARK                            x       y       z     vdW  Elec       q    Type
REMARK                         _______ _______ _______ _____ _____    ______ ____
ROOT
ATOM      1  C   UNL     1      44.203   4.177  11.442  0.00  0.00    +0.000 A 
ATOM      2  C   UNL     1      42.908   4.699  11.500  0.00  0.00    +0.000 A 
ATOM      3  C   UNL     1      42.725   6.066  11.656  0.00  0.00    +0.000 A 
ATOM      4  F   UNL     1      41.481   6.559  11.713  0.00  0.00    +0.000 F 
ATOM      5  C   UNL     1      43.809   6.935  11.756  0.00  0.00    +0.000 A 
ATOM      6  C   UNL     1      45.125   6.448  11.727  0.00  0.00    +0.000 A 
ATOM      7  C   UNL     1      45.292   5.055  11.584  0.00  0.00    +0.000 A 
ENDROOT
BRANCH   6   8
ATOM      8  C   UNL     1      46.297   7.348  11.839  0.00  0.00    +0.000 A 
ATOM      9  C   UNL     1      46.155   8.708  12.178  0.00  0.00    +0.000 A 
ATOM     10  C   UNL     1      47.264   9.556  12.291  0.00  0.00    +0.000 A 
ATOM     11  C   UNL     1      48.544   9.057  12.080  0.00  0.00    +0.000 A 
ATOM     12  C   UNL     1      48.703   7.720  11.751  0.00  0.00    +0.000 A 
ATOM     13  F   UNL     1      49.934   7.229  11.555  0.00  0.00    +0.000 F 
ATOM     14  C   UNL     1      47.604   6.875  11.622  0.00  0.00    +0.000 A 
ENDBRANCH   6   8
BRANCH   1  15
ATOM     15  C   UNL     1      44.412   2.684  11.311  0.00  0.00    +0.000 C 
BRANCH  15  16
ATOM     16  O   UNL     1      43.902   2.212  10.059  0.00  0.00    +0.000 OA
BRANCH  16  20
ATOM     17  C   UNL     1      46.634   2.569   6.999  0.00  0.00    +0.000 A 
ATOM     18  C   UNL     1      45.768   3.629   7.276  0.00  0.00    +0.000 A 
ATOM     19  C   UNL     1      44.848   3.499   8.318  0.00  0.00    +0.000 A 
ATOM     20  C   UNL     1      44.833   2.317   9.047  0.00  0.00    +0.000 A 
ATOM     21  N   UNL     1      45.663   1.282   8.805  0.00  0.00    +0.000 NA
ATOM     22  C   UNL     1      46.537   1.426   7.781  0.00  0.00    +0.000 A 
BRANCH  17  24
ATOM     23  N   UNL     1      48.940   2.431   6.238  0.00  0.00    +0.000 N 
ATOM     24  C   UNL     1      47.624   2.577   5.905  0.00  0.00    +0.000 C 
ATOM     25  O   UNL     1      47.276   2.676   4.736  0.00  0.00    +0.000 OA
ATOM     26  H   UNL     1      49.583   2.331   5.463  0.00  0.00    +0.000 HD
ATOM     27  H   UNL     1      49.242   2.097   7.143  0.00  0.00    +0.000 HD
ENDBRANCH  17  24
ENDBRANCH  16  20
ENDBRANCH  15  16
ENDBRANCH   1  15
TORSDOF 5
ENDMDL
MODEL 7
REMARK VINA RESULT:    -7.629      3.871      7.185
REMARK INTER + INTRA:         -10.732
REMARK INTER:                  -9.949
REMARK INTRA:                  -0.783
REMARK UNBOUND:                -0.872
REMARK  Name = 
REMARK  5 active torsions:
REMARK  status: ('A' for Active; 'I' for Inactive)
REMARK    1  A    between atoms: C_2  and  C_4
REMARK    2  A    between atoms: C_7  and  O_8
REMARK    3  A    between atoms: O_8  and  C_9
REMARK    4  A    between atoms: C_9  and  C_10
REMARK    5  A    between atoms: C_15  and  C_16
REMARK                            x       y       z     vdW  Elec       q    Type
REMARK                         _______ _______ _______ _____ _____    ______ ____
ROOT
ATOM      1  C   UNL     1      44.060   5.219  11.143  0.00  0.00    +0.000 A 
ATOM      2  C   UNL     1      43.495   4.281  12.012  0.00  0.00    +0.000 A 
ATOM      3  C   UNL     1      43.639   2.926  11.748  0.00  0.00    +0.000 A 
ATOM      4  F   UNL     1      43.094   2.032  12.584  0.00  0.00    +0.000 F 
ATOM      5  C   UNL     1      44.338   2.476  10.630  0.00  0.00    +0.000 A 
ATOM      6  C   UNL     1      44.899   3.386   9.720  0.00  0.00    +0.000 A 
ATOM      7  C   UNL     1      44.728   4.758   9.995  0.00  0.00    +0.000 A 
ENDROOT
BRANCH   6   8
ATOM      8  C   UNL     1      45.640   2.936   8.518  0.00  0.00    +0.000 A 
ATOM      9  C   UNL     1      46.003   3.832   7.494  0.00  0.00    +0.000 A 
ATOM     10  C   UNL     1      46.710   3.407   6.363  0.00  0.00    +0.000 A 
ATOM     11  C   UNL     1      47.081   2.072   6.237  0.00  0.00    +0.000 A 
ATOM     12  C   UNL     1      46.736   1.177   7.237  0.00  0.00    +0.000 A 
ATOM     13  F   UNL     1      47.097  -0.108   7.128  0.00  0.00    +0.000 F 
ATOM     14  C   UNL     1      46.020   1.590   8.357  0.00  0.00    +0.000 A 
ENDBRANCH   6   8
BRANCH   1  15
ATOM     15  C   UNL     1      43.875   6.698  11.402  0.00  0.00    +0.000 C 
BRANCH  15  16
ATOM     16  O   UNL     1      45.021   7.434  10.959  0.00  0.00    +0.000 OA
BRANCH  16  20
ATOM     17  C   UNL     1      47.948   7.580  13.851  0.00  0.00    +0.000 A 
ATOM     18  C   UNL     1      48.062   6.665  12.802  0.00  0.00    +0.000 A 
ATOM     19  C   UNL     1      47.065   6.627  11.824  0.00  0.00    +0.000 A 
ATOM     20  C   UNL     1      45.997   7.507  11.930  0.00  0.00    +0.000 A 
ATOM     21  N   UNL     1      45.867   8.404  12.929  0.00  0.00    +0.000 NA
ATOM     22  C   UNL     1      46.838   8.414  13.872  0.00  0.00    +0.000 A 
BRANCH  17  24
ATOM     23  N   UNL     1      48.437   8.003  16.195  0.00  0.00    +0.000 N 
ATOM     24  C   UNL     1      48.918   7.690  14.956  0.00  0.00    +0.000 C 
ATOM     25  O   UNL     1      50.110   7.473  14.778  0.00  0.00    +0.000 OA
ATOM     26  H   UNL     1      49.108   7.964  16.953  0.00  0.00    +0.000 HD
ATOM     27  H   UNL     1      47.458   7.939  16.435  0.00  0.00    +0.000 HD
ENDBRANCH  17  24
ENDBRANCH  16  20
ENDBRANCH  15  16
ENDBRANCH   1  15
TORSDOF 5
ENDMDL
MODEL 8
REMARK VINA RESULT:    -7.215      5.476      7.832
REMARK INTER + INTRA:         -10.196
REMARK INTER:                  -9.363
REMARK INTRA:                  -0.834
REMARK UNBOUND:                -0.872
REMARK  Name = 
REMARK  5 active torsions:
REMARK  status: ('A' for Active; 'I' for Inactive)
REMARK    1  A    between atoms: C_2  and  C_4
REMARK    2  A    between atoms: C_7  and  O_8
REMARK    3  A    between atoms: O_8  and  C_9
REMARK    4  A    between atoms: C_9  and  C_10
REMARK    5  A    between atoms: C_15  and  C_16
REMARK                            x       y       z     vdW  Elec       q    Type
REMARK                         _______ _______ _______ _____ _____    ______ ____
ROOT
ATOM      1  C   UNL     1      48.357   6.687  14.423  0.00  0.00    +0.000 A 
ATOM      2  C   UNL     1      49.112   7.422  13.505  0.00  0.00    +0.000 A 
ATOM      3  C   UNL     1      48.704   7.494  12.180  0.00  0.00    +0.000 A 
ATOM      4  F   UNL     1      49.434   8.200  11.306  0.00  0.00    +0.000 F 
ATOM      5  C   UNL     1      47.551   6.848  11.742  0.00  0.00    +0.000 A 
ATOM      6  C   UNL     1      46.778   6.079  12.627  0.00  0.00    +0.000 A 
ATOM      7  C   UNL     1      47.217   6.003  13.965  0.00  0.00    +0.000 A 
ENDROOT
BRANCH   6   8
ATOM      8  C   UNL     1      45.552   5.374  12.186  0.00  0.00    +0.000 A 
ATOM      9  C   UNL     1      44.625   4.853  13.110  0.00  0.00    +0.000 A 
ATOM     10  C   UNL     1      43.463   4.192  12.692  0.00  0.00    +0.000 A 
ATOM     11  C   UNL     1      43.195   4.050  11.335  0.00  0.00    +0.000 A 
ATOM     12  C   UNL     1      44.093   4.561  10.412  0.00  0.00    +0.000 A 
ATOM     13  F   UNL     1      43.838   4.437   9.102  0.00  0.00    +0.000 F 
ATOM     14  C   UNL     1      45.258   5.206  10.820  0.00  0.00    +0.000 A 
ENDBRANCH   6   8
BRANCH   1  15
ATOM     15  C   UNL     1      48.816   6.571  15.860  0.00  0.00    +0.000 C 
BRANCH  15  16
ATOM     16  O   UNL     1      48.223   5.428  16.487  0.00  0.00    +0.000 OA
BRANCH  16  20
ATOM     17  C   UNL     1      50.954   2.480  17.387  0.00  0.00    +0.000 A 
ATOM     18  C   UNL     1      49.642   2.128  17.062  0.00  0.00    +0.000 A 
ATOM     19  C   UNL     1      48.725   3.135  16.754  0.00  0.00    +0.000 A 
ATOM     20  C   UNL     1      49.156   4.455  16.779  0.00  0.00    +0.000 A 
ATOM     21  N   UNL     1      50.417   4.821  17.082  0.00  0.00    +0.000 NA
ATOM     22  C   UNL     1      51.285   3.828  17.390  0.00  0.00    +0.000 A 
BRANCH  17  24
ATOM     23  N   UNL     1      51.601   0.250  18.108  0.00  0.00    +0.000 N 
ATOM     24  C   UNL     1      51.999   1.509  17.760  0.00  0.00    +0.000 C 
ATOM     25  O   UNL     1      53.186   1.808  17.724  0.00  0.00    +0.000 OA
ATOM     26  H   UNL     1      52.343  -0.424  18.252  0.00  0.00    +0.000 HD
ATOM     27  H   UNL     1      50.677  -0.107  17.909  0.00  0.00    +0.000 HD
ENDBRANCH  17  24
ENDBRANCH  16  20
ENDBRANCH  15  16
ENDBRANCH   1  15
TORSDOF 5
ENDMDL
MODEL 9
REMARK VINA RESULT:    -7.037      3.751      7.430
REMARK INTER + INTRA:          -9.966
REMARK INTER:                  -9.195
REMARK INTRA:                  -0.771
REMARK UNBOUND:                -0.872
REMARK  Name = 
REMARK  5 active torsions:
REMARK  status: ('A' for Active; 'I' for Inactive)
REMARK    1  A    between atoms: C_2  and  C_4
REMARK    2  A    between atoms: C_7  and  O_8
REMARK    3  A    between atoms: O_8  and  C_9
REMARK    4  A    between atoms: C_9  and  C_10
REMARK    5  A    between atoms: C_15  and  C_16
REMARK                            x       y       z     vdW  Elec       q    Type
REMARK                         _______ _______ _______ _____ _____    ______ ____
ROOT
ATOM      1  C   UNL     1      45.171   4.763  12.812  0.00  0.00    +0.000 A 
ATOM      2  C   UNL     1      43.871   5.275  12.828  0.00  0.00    +0.000 A 
ATOM      3  C   UNL     1      43.078   5.175  11.693  0.00  0.00    +0.000 A 
ATOM      4  F   UNL     1      41.834   5.670  11.716  0.00  0.00    +0.000 F 
ATOM      5  C   UNL     1      43.551   4.570  10.531  0.00  0.00    +0.000 A 
ATOM      6  C   UNL     1      44.859   4.064  10.466  0.00  0.00    +0.000 A 
ATOM      7  C   UNL     1      45.656   4.190  11.623  0.00  0.00    +0.000 A 
ENDROOT
BRANCH   6   8
ATOM      8  C   UNL     1      45.391   3.424   9.240  0.00  0.00    +0.000 A 
ATOM      9  C   UNL     1      45.769   4.180   8.114  0.00  0.00    +0.000 A 
ATOM     10  C   UNL     1      46.278   3.573   6.959  0.00  0.00    +0.000 A 
ATOM     11  C   UNL     1      46.434   2.193   6.911  0.00  0.00    +0.000 A 
ATOM     12  C   UNL     1      46.073   1.433   8.012  0.00  0.00    +0.000 A 
ATOM     13  F   UNL     1      46.229   0.103   7.977  0.00  0.00    +0.000 F 
ATOM     14  C   UNL     1      45.552   2.028   9.158  0.00  0.00    +0.000 A 
ENDBRANCH   6   8
BRANCH   1  15
ATOM     15  C   UNL     1      46.055   4.903  14.032  0.00  0.00    +0.000 C 
BRANCH  15  16
ATOM     16  O   UNL     1      47.436   4.935  13.652  0.00  0.00    +0.000 OA
BRANCH  16  20
ATOM     17  C   UNL     1      48.863   8.794  13.498  0.00  0.00    +0.000 A 
ATOM     18  C   UNL     1      48.827   8.122  14.722  0.00  0.00    +0.000 A 
ATOM     19  C   UNL     1      48.345   6.812  14.762  0.00  0.00    +0.000 A 
ATOM     20  C   UNL     1      47.922   6.223  13.577  0.00  0.00    +0.000 A 
ATOM     21  N   UNL     1      47.953   6.848  12.383  0.00  0.00    +0.000 NA
ATOM     22  C   UNL     1      48.412   8.122  12.371  0.00  0.00    +0.000 A 
BRANCH  17  24
ATOM     23  N   UNL     1      50.638  10.454  13.571  0.00  0.00    +0.000 N 
ATOM     24  C   UNL     1      49.320  10.187  13.337  0.00  0.00    +0.000 C 
ATOM     25  O   UNL     1      48.553  11.069  12.972  0.00  0.00    +0.000 OA
ATOM     26  H   UNL     1      50.946  11.393  13.348  0.00  0.00    +0.000 HD
ATOM     27  H   UNL     1      51.343   9.732  13.623  0.00  0.00    +0.000 HD
ENDBRANCH  17  24
ENDBRANCH  16  20
ENDBRANCH  15  16
ENDBRANCH   1  15
TORSDOF 5
ENDMDL
