MODEL 1
REMARK VINA RESULT:    -9.022      0.000      0.000
REMARK INTER + INTRA:         -12.115
REMARK INTER:                 -11.659
REMARK INTRA:                  -0.456
REMARK UNBOUND:                -0.456
REMARK  Name = 
REMARK  5 active torsions:
REMARK  status: ('A' for Active; 'I' for Inactive)
REMARK    1  A    between atoms: C_2  and  C_4
REMARK    2  A    between atoms: C_7  and  O_8
REMARK    3  A    between atoms: O_8  and  C_9
REMARK    4  A    between atoms: C_9  and  C_10
REMARK    5  A    between atoms: C_15  and  C_16
REMARK                            x       y       z     vdW  Elec       q    Type
REMARK                         _______ _______ _______ _____ _____    ______ ____
ROOT
ATOM      1  C   UNL     1      45.079   4.828  12.098  0.00  0.00    +0.000 A 
ATOM      2  C   UNL     1      45.687   5.974  11.579  0.00  0.00    +0.000 A 
ATOM      3  C   UNL     1      46.734   6.571  12.269  0.00  0.00    +0.000 A 
ATOM      4  F   UNL     1      47.314   7.669  11.765  0.00  0.00    +0.000 F 
ATOM      5  C   UNL     1      47.200   6.048  13.469  0.00  0.00    +0.000 A 
ATOM      6  C   UNL     1      46.628   4.888  14.022  0.00  0.00    +0.000 A 
ATOM      7  C   UNL     1      45.549   4.306  13.322  0.00  0.00    +0.000 A 
ENDROOT
BRANCH   6   8
ATOM      8  C   UNL     1      47.146   4.290  15.275  0.00  0.00    +0.000 A 
ATOM      9  C   UNL     1      46.907   4.849  16.517  0.00  0.00    +0.000 A 
ATOM     10  C   UNL     1      47.445   4.194  17.597  0.00  0.00    +0.000 A 
ATOM     11  N   UNL     1      48.183   3.079  17.490  0.00  0.00    +0.000 NA
ATOM     12  C   UNL     1      48.398   2.627  16.253  0.00  0.00    +0.000 A 
ATOM     13  N   UNL     1      49.182   1.501  16.126  0.00  0.00    +0.000 N 
ATOM     14  N   UNL     1      47.894   3.171  15.140  0.00  0.00    +0.000 NA
ATOM     15  H   UNL     1      49.176   0.982  16.992  0.00  0.00    +0.000 HD
ATOM     16  H   UNL     1      48.948   1.004  15.278  0.00  0.00    +0.000 HD
ENDBRANCH   6   8
BRANCH   1  17
ATOM     17  C   UNL     1      43.918   4.182  11.374  0.00  0.00    +0.000 C 
BRANCH  17  18
ATOM     18  O   UNL     1      43.954   4.613  10.015  0.00  0.00    +0.000 OA
BRANCH  18  22
ATOM     19  C   UNL     1      46.406   2.255   7.790  0.00  0.00    +0.000 A 
ATOM     20  C   UNL     1      46.334   3.620   7.535  0.00  0.00    +0.000 A 
ATOM     21  N   UNL     1      45.528   4.458   8.245  0.00  0.00    +0.000 NA
ATOM     22  C   UNL     1      44.804   3.869   9.224  0.00  0.00    +0.000 A 
ATOM     23  C   UNL     1      44.877   2.501   9.476  0.00  0.00    +0.000 A 
ATOM     24  N   UNL     1      45.672   1.655   8.769  0.00  0.00    +0.000 NA
BRANCH  19  26
ATOM     25  N   UNL     1      48.348   2.038   6.355  0.00  0.00    +0.000 N 
ATOM     26  C   UNL     1      47.309   1.396   6.973  0.00  0.00    +0.000 C 
ATOM     27  O   UNL     1      47.139   0.190   6.863  0.00  0.00    +0.000 OA
ATOM     28  H   UNL     1      49.009   1.504   5.808  0.00  0.00    +0.000 HD
ATOM     29  H   UNL     1      48.492   3.032   6.500  0.00  0.00    +0.000 HD
ENDBRANCH  19  26
ENDBRANCH  18  22
ENDBRANCH  17  18
ENDBRANCH   1  17
TORSDOF 5
ENDMDL
MODEL 2
REMARK VINA RESULT:    -9.004      3.217      4.495
REMARK INTER + INTRA:         -12.091
REMARK INTER:                 -11.456
REMARK INTRA:                  -0.635
REMARK UNBOUND:                -0.456
REMARK  Name = 
REMARK  5 active torsions:
REMARK  status: ('A' for Active; 'I' for Inactive)
REMARK    1  A    between atoms: C_2  and  C_4
REMARK    2  A    between atoms: C_7  and  O_8
REMARK    3  A    between atoms: O_8  and  C_9
REMARK    4  A    between atoms: C_9  and  C_10
REMARK    5  A    between atoms: C_15  and  C_16
REMARK                            x       y       z     vdW  Elec       q    Type
REMARK                         _______ _______ _______ _____ _____    ______ ____
ROOT
ATOM      1  C   UNL     1      44.724   4.727  11.813  0.00  0.00    +0.000 A 
ATOM      2  C   UNL     1      45.416   3.876  12.678  0.00  0.00    +0.000 A 
ATOM      3  C   UNL     1      46.551   4.335  13.334  0.00  0.00    +0.000 A 
ATOM      4  F   UNL     1      47.210   3.514  14.162  0.00  0.00    +0.000 F 
ATOM      5  C   UNL     1      47.013   5.633  13.155  0.00  0.00    +0.000 A 
ATOM      6  C   UNL     1      46.340   6.530  12.306  0.00  0.00    +0.000 A 
ATOM      7  C   UNL     1      45.202   6.041  11.628  0.00  0.00    +0.000 A 
ENDROOT
BRANCH   6   8
ATOM      8  C   UNL     1      46.791   7.932  12.145  0.00  0.00    +0.000 A 
ATOM      9  C   UNL     1      48.124   8.268  11.994  0.00  0.00    +0.000 A 
ATOM     10  C   UNL     1      48.406   9.604  11.853  0.00  0.00    +0.000 A 
ATOM     11  N   UNL     1      47.467  10.562  11.874  0.00  0.00    +0.000 NA
ATOM     12  C   UNL     1      46.210  10.156  12.062  0.00  0.00    +0.000 A 
ATOM     13  N   UNL     1      45.238  11.131  12.119  0.00  0.00    +0.000 N 
ATOM     14  N   UNL     1      45.826   8.879  12.177  0.00  0.00    +0.000 NA
ATOM     15  H   UNL     1      45.565  11.965  11.652  0.00  0.00    +0.000 HD
ATOM     16  H   UNL     1      44.345  10.754  11.835  0.00  0.00    +0.000 HD
ENDBRANCH   6   8
BRANCH   1  17
ATOM     17  C   UNL     1      43.503   4.234  11.067  0.00  0.00    +0.000 C 
BRANCH  17  18
ATOM     18  O   UNL     1      43.636   4.625   9.702  0.00  0.00    +0.000 OA
BRANCH  18  22
ATOM     19  C   UNL     1      46.353   2.314   7.753  0.00  0.00    +0.000 A 
ATOM     20  C   UNL     1      46.349   3.692   7.566  0.00  0.00    +0.000 A 
ATOM     21  N   UNL     1      45.460   4.515   8.188  0.00  0.00    +0.000 NA
ATOM     22  C   UNL     1      44.581   3.898   9.011  0.00  0.00    +0.000 A 
ATOM     23  C   UNL     1      44.587   2.518   9.196  0.00  0.00    +0.000 A 
ATOM     24  N   UNL     1      45.464   1.686   8.574  0.00  0.00    +0.000 NA
BRANCH  19  26
ATOM     25  N   UNL     1      48.428   2.137   6.511  0.00  0.00    +0.000 N 
ATOM     26  C   UNL     1      47.353   1.472   7.039  0.00  0.00    +0.000 C 
ATOM     27  O   UNL     1      47.228   0.260   6.932  0.00  0.00    +0.000 OA
ATOM     28  H   UNL     1      49.152   1.616   6.038  0.00  0.00    +0.000 HD
ATOM     29  H   UNL     1      48.528   3.137   6.654  0.00  0.00    +0.000 HD
ENDBRANCH  19  26
ENDBRANCH  18  22
ENDBRANCH  17  18
ENDBRANCH   1  17
TORSDOF 5
ENDMDL
MODEL 3
REMARK VINA RESULT:    -8.236      2.626      7.529
REMARK INTER + INTRA:         -11.099
REMARK INTER:                 -10.776
REMARK INTRA:                  -0.323
REMARK UNBOUND:                -0.456
REMARK  Name = 
REMARK  5 active torsions:
REMARK  status: ('A' for Active; 'I' for Inactive)
REMARK    1  A    between atoms: C_2  and  C_4
REMARK    2  A    between atoms: C_7  and  O_8
REMARK    3  A    between atoms: O_8  and  C_9
REMARK    4  A    between atoms: C_9  and  C_10
REMARK    5  A    between atoms: C_15  and  C_16
REMARK                            x       y       z     vdW  Elec       q    Type
REMARK                         _______ _______ _______ _____ _____    ______ ____
ROOT
ATOM      1  C   UNL     1      45.312   6.300  11.915  0.00  0.00    +0.000 A 
ATOM      2  C   UNL     1      43.941   6.394  12.170  0.00  0.00    +0.000 A 
ATOM      3  C   UNL     1      43.049   5.623  11.436  0.00  0.00    +0.000 A 
ATOM      4  F   UNL     1      41.737   5.716  11.685  0.00  0.00    +0.000 F 
ATOM      5  C   UNL     1      43.492   4.748  10.450  0.00  0.00    +0.000 A 
ATOM      6  C   UNL     1      44.863   4.610  10.169  0.00  0.00    +0.000 A 
ATOM      7  C   UNL     1      45.755   5.418  10.907  0.00  0.00    +0.000 A 
ENDROOT
BRANCH   6   8
ATOM      8  C   UNL     1      45.354   3.646   9.157  0.00  0.00    +0.000 A 
ATOM      9  C   UNL     1      45.286   2.276   9.344  0.00  0.00    +0.000 A 
ATOM     10  C   UNL     1      45.776   1.496   8.327  0.00  0.00    +0.000 A 
ATOM     11  N   UNL     1      46.316   1.997   7.206  0.00  0.00    +0.000 NA
ATOM     12  C   UNL     1      46.378   3.327   7.123  0.00  0.00    +0.000 A 
ATOM     13  N   UNL     1      46.960   3.857   5.991  0.00  0.00    +0.000 N 
ATOM     14  N   UNL     1      45.901   4.176   8.039  0.00  0.00    +0.000 NA
ATOM     15  H   UNL     1      46.923   3.181   5.241  0.00  0.00    +0.000 HD
ATOM     16  H   UNL     1      46.596   4.781   5.809  0.00  0.00    +0.000 HD
ENDBRANCH   6   8
BRANCH   1  17
ATOM     17  C   UNL     1      46.295   7.154  12.685  0.00  0.00    +0.000 C 
BRANCH  17  18
ATOM     18  O   UNL     1      47.501   6.409  12.834  0.00  0.00    +0.000 OA
BRANCH  18  22
ATOM     19  C   UNL     1      47.562   4.166  16.224  0.00  0.00    +0.000 A 
ATOM     20  C   UNL     1      48.269   5.362  16.168  0.00  0.00    +0.000 A 
ATOM     21  N   UNL     1      48.289   6.152  15.059  0.00  0.00    +0.000 NA
ATOM     22  C   UNL     1      47.564   5.694  14.012  0.00  0.00    +0.000 A 
ATOM     23  C   UNL     1      46.858   4.495  14.070  0.00  0.00    +0.000 A 
ATOM     24  N   UNL     1      46.837   3.695  15.169  0.00  0.00    +0.000 NA
BRANCH  19  26
ATOM     25  N   UNL     1      48.661   3.548  18.295  0.00  0.00    +0.000 N 
ATOM     26  C   UNL     1      47.586   3.349  17.469  0.00  0.00    +0.000 C 
ATOM     27  O   UNL     1      46.699   2.552  17.745  0.00  0.00    +0.000 OA
ATOM     28  H   UNL     1      48.718   3.041  19.167  0.00  0.00    +0.000 HD
ATOM     29  H   UNL     1      49.358   4.247  18.064  0.00  0.00    +0.000 HD
ENDBRANCH  19  26
ENDBRANCH  18  22
ENDBRANCH  17  18
ENDBRANCH   1  17
TORSDOF 5
ENDMDL
MODEL 4
REMARK VINA RESULT:    -8.224      1.784      2.330
REMARK INTER + INTRA:         -11.084
REMARK INTER:                 -10.392
REMARK INTRA:                  -0.692
REMARK UNBOUND:                -0.456
REMARK  Name = 
REMARK  5 active torsions:
REMARK  status: ('A' for Active; 'I' for Inactive)
REMARK    1  A    between atoms: C_2  and  C_4
REMARK    2  A    between atoms: C_7  and  O_8
REMARK    3  A    between atoms: O_8  and  C_9
REMARK    4  A    between atoms: C_9  and  C_10
REMARK    5  A    between atoms: C_15  and  C_16
REMARK                            x       y       z     vdW  Elec       q    Type
REMARK                         _______ _______ _______ _____ _____    ______ ____
ROOT
ATOM      1  C   UNL     1      45.144   5.651  11.988  0.00  0.00    +0.000 A 
ATOM      2  C   UNL     1      44.681   6.879  11.508  0.00  0.00    +0.000 A 
ATOM      3  C   UNL     1      45.316   8.053  11.892  0.00  0.00    +0.000 A 
ATOM      4  F   UNL     1      44.869   9.227  11.428  0.00  0.00    +0.000 F 
ATOM      5  C   UNL     1      46.414   8.035  12.744  0.00  0.00    +0.000 A 
ATOM      6  C   UNL     1      46.924   6.821  13.241  0.00  0.00    +0.000 A 
ATOM      7  C   UNL     1      46.253   5.638  12.861  0.00  0.00    +0.000 A 
ENDROOT
BRANCH   6   8
ATOM      8  C   UNL     1      48.124   6.781  14.109  0.00  0.00    +0.000 A 
ATOM      9  C   UNL     1      49.257   7.528  13.841  0.00  0.00    +0.000 A 
ATOM     10  C   UNL     1      50.298   7.398  14.726  0.00  0.00    +0.000 A 
ATOM     11  N   UNL     1      50.262   6.588  15.794  0.00  0.00    +0.000 NA
ATOM     12  C   UNL     1      49.146   5.875  15.959  0.00  0.00    +0.000 A 
ATOM     13  N   UNL     1      49.106   5.013  17.034  0.00  0.00    +0.000 N 
ATOM     14  N   UNL     1      48.064   5.951  15.175  0.00  0.00    +0.000 NA
ATOM     15  H   UNL     1      49.769   5.312  17.734  0.00  0.00    +0.000 HD
ATOM     16  H   UNL     1      48.151   4.860  17.326  0.00  0.00    +0.000 HD
ENDBRANCH   6   8
BRANCH   1  17
ATOM     17  C   UNL     1      44.445   4.365  11.603  0.00  0.00    +0.000 C 
BRANCH  17  18
ATOM     18  O   UNL     1      44.031   4.482  10.244  0.00  0.00    +0.000 OA
BRANCH  18  22
ATOM     19  C   UNL     1      46.515   2.514   7.698  0.00  0.00    +0.000 A 
ATOM     20  C   UNL     1      46.426   3.901   7.651  0.00  0.00    +0.000 A 
ATOM     21  N   UNL     1      45.609   4.612   8.475  0.00  0.00    +0.000 NA
ATOM     22  C   UNL     1      44.890   3.875   9.353  0.00  0.00    +0.000 A 
ATOM     23  C   UNL     1      44.980   2.486   9.397  0.00  0.00    +0.000 A 
ATOM     24  N   UNL     1      45.786   1.765   8.574  0.00  0.00    +0.000 NA
BRANCH  19  26
ATOM     25  N   UNL     1      48.477   2.530   6.275  0.00  0.00    +0.000 N 
ATOM     26  C   UNL     1      47.429   1.798   6.765  0.00  0.00    +0.000 C 
ATOM     27  O   UNL     1      47.260   0.626   6.456  0.00  0.00    +0.000 OA
ATOM     28  H   UNL     1      49.145   2.090   5.658  0.00  0.00    +0.000 HD
ATOM     29  H   UNL     1      48.619   3.486   6.582  0.00  0.00    +0.000 HD
ENDBRANCH  19  26
ENDBRANCH  18  22
ENDBRANCH  17  18
ENDBRANCH   1  17
TORSDOF 5
ENDMDL
MODEL 5
REMARK VINA RESULT:    -8.163      2.996      4.170
REMARK INTER + INTRA:         -11.005
REMARK INTER:                 -10.422
REMARK INTRA:                  -0.582
REMARK UNBOUND:                -0.456
REMARK  Name = 
REMARK  5 active torsions:
REMARK  status: ('A' for Active; 'I' for Inactive)
REMARK    1  A    between atoms: C_2  and  C_4
REMARK    2  A    between atoms: C_7  and  O_8
REMARK    3  A    between atoms: O_8  and  C_9
REMARK    4  A    between atoms: C_9  and  C_10
REMARK    5  A    between atoms: C_15  and  C_16
REMARK                            x       y       z     vdW  Elec       q    Type
REMARK                         _______ _______ _______ _____ _____    ______ ____
ROOT
ATOM      1  C   UNL     1      44.940   5.278  11.638  0.00  0.00    +0.000 A 
ATOM      2  C   UNL     1      45.249   4.360  12.646  0.00  0.00    +0.000 A 
ATOM      3  C   UNL     1      46.377   4.554  13.433  0.00  0.00    +0.000 A 
ATOM      4  F   UNL     1      46.667   3.672  14.398  0.00  0.00    +0.000 F 
ATOM      5  C   UNL     1      47.209   5.652  13.245  0.00  0.00    +0.000 A 
ATOM      6  C   UNL     1      46.929   6.609  12.253  0.00  0.00    +0.000 A 
ATOM      7  C   UNL     1      45.793   6.385  11.445  0.00  0.00    +0.000 A 
ENDROOT
BRANCH   6   8
ATOM      8  C   UNL     1      47.778   7.811  12.074  0.00  0.00    +0.000 A 
ATOM      9  C   UNL     1      47.259   9.093  12.090  0.00  0.00    +0.000 A 
ATOM     10  C   UNL     1      48.155  10.117  11.912  0.00  0.00    +0.000 A 
ATOM     11  N   UNL     1      49.467   9.924  11.712  0.00  0.00    +0.000 NA
ATOM     12  C   UNL     1      49.879   8.655  11.672  0.00  0.00    +0.000 A 
ATOM     13  N   UNL     1      51.219   8.438  11.434  0.00  0.00    +0.000 N 
ATOM     14  N   UNL     1      49.096   7.588  11.866  0.00  0.00    +0.000 NA
ATOM     15  H   UNL     1      51.747   9.262  11.685  0.00  0.00    +0.000 HD
ATOM     16  H   UNL     1      51.508   7.556  11.832  0.00  0.00    +0.000 HD
ENDBRANCH   6   8
BRANCH   1  17
ATOM     17  C   UNL     1      43.732   5.066  10.753  0.00  0.00    +0.000 C 
BRANCH  17  18
ATOM     18  O   UNL     1      43.734   3.704  10.328  0.00  0.00    +0.000 OA
BRANCH  18  22
ATOM     19  C   UNL     1      46.512   2.711   7.533  0.00  0.00    +0.000 A 
ATOM     20  C   UNL     1      46.039   4.016   7.610  0.00  0.00    +0.000 A 
ATOM     21  N   UNL     1      45.106   4.405   8.523  0.00  0.00    +0.000 NA
ATOM     22  C   UNL     1      44.674   3.432   9.357  0.00  0.00    +0.000 A 
ATOM     23  C   UNL     1      45.149   2.126   9.277  0.00  0.00    +0.000 A 
ATOM     24  N   UNL     1      46.074   1.724   8.365  0.00  0.00    +0.000 NA
BRANCH  19  26
ATOM     25  N   UNL     1      47.446   3.024   5.318  0.00  0.00    +0.000 N 
ATOM     26  C   UNL     1      47.532   2.353   6.508  0.00  0.00    +0.000 C 
ATOM     27  O   UNL     1      48.400   1.515   6.715  0.00  0.00    +0.000 OA
ATOM     28  H   UNL     1      48.127   2.843   4.594  0.00  0.00    +0.000 HD
ATOM     29  H   UNL     1      46.745   3.746   5.189  0.00  0.00    +0.000 HD
ENDBRANCH  19  26
ENDBRANCH  18  22
ENDBRANCH  17  18
ENDBRANCH   1  17
TORSDOF 5
ENDMDL
MODEL 6
REMARK VINA RESULT:    -7.717      2.674      3.395
REMARK INTER + INTRA:         -10.428
REMARK INTER:                  -9.756
REMARK INTRA:                  -0.672
REMARK UNBOUND:                -0.456
REMARK  Name = 
REMARK  5 active torsions:
REMARK  status: ('A' for Active; 'I' for Inactive)
REMARK    1  A    between atoms: C_2  and  C_4
REMARK    2  A    between atoms: C_7  and  O_8
REMARK    3  A    between atoms: O_8  and  C_9
REMARK    4  A    between atoms: C_9  and  C_10
REMARK    5  A    between atoms: C_15  and  C_16
REMARK                            x       y       z     vdW  Elec       q    Type
REMARK                         _______ _______ _______ _____ _____    ______ ____
ROOT
ATOM      1  C   UNL     1      45.170   6.010  11.817  0.00  0.00    +0.000 A 
ATOM      2  C   UNL     1      44.420   7.137  11.471  0.00  0.00    +0.000 A 
ATOM      3  C   UNL     1      44.948   8.405  11.675  0.00  0.00    +0.000 A 
ATOM      4  F   UNL     1      44.225   9.482  11.340  0.00  0.00    +0.000 F 
ATOM      5  C   UNL     1      46.217   8.581  12.213  0.00  0.00    +0.000 A 
ATOM      6  C   UNL     1      47.014   7.475  12.563  0.00  0.00    +0.000 A 
ATOM      7  C   UNL     1      46.454   6.193  12.372  0.00  0.00    +0.000 A 
ENDROOT
BRANCH   6   8
ATOM      8  C   UNL     1      48.388   7.645  13.090  0.00  0.00    +0.000 A 
ATOM      9  C   UNL     1      49.411   8.187  12.333  0.00  0.00    +0.000 A 
ATOM     10  C   UNL     1      50.636   8.288  12.943  0.00  0.00    +0.000 A 
ATOM     11  N   UNL     1      50.872   7.878  14.198  0.00  0.00    +0.000 NA
ATOM     12  C   UNL     1      49.841   7.332  14.845  0.00  0.00    +0.000 A 
ATOM     13  N   UNL     1      50.075   6.875  16.124  0.00  0.00    +0.000 N 
ATOM     14  N   UNL     1      48.601   7.216  14.355  0.00  0.00    +0.000 NA
ATOM     15  H   UNL     1      50.883   7.344  16.510  0.00  0.00    +0.000 HD
ATOM     16  H   UNL     1      49.222   6.889  16.664  0.00  0.00    +0.000 HD
ENDBRANCH   6   8
BRANCH   1  17
ATOM     17  C   UNL     1      44.597   4.622  11.629  0.00  0.00    +0.000 C 
BRANCH  17  18
ATOM     18  O   UNL     1      44.089   4.534  10.300  0.00  0.00    +0.000 OA
BRANCH  18  22
ATOM     19  C   UNL     1      46.504   2.529   7.718  0.00  0.00    +0.000 A 
ATOM     20  C   UNL     1      45.727   1.827   8.631  0.00  0.00    +0.000 A 
ATOM     21  N   UNL     1      44.903   2.444   9.522  0.00  0.00    +0.000 NA
ATOM     22  C   UNL     1      44.887   3.795   9.453  0.00  0.00    +0.000 A 
ATOM     23  C   UNL     1      45.668   4.497   8.538  0.00  0.00    +0.000 A 
ATOM     24  N   UNL     1      46.499   3.891   7.649  0.00  0.00    +0.000 NA
BRANCH  19  26
ATOM     25  N   UNL     1      48.382   2.523   6.184  0.00  0.00    +0.000 N 
ATOM     26  C   UNL     1      47.386   1.790   6.772  0.00  0.00    +0.000 C 
ATOM     27  O   UNL     1      47.237   0.598   6.535  0.00  0.00    +0.000 OA
ATOM     28  H   UNL     1      49.028   2.070   5.554  0.00  0.00    +0.000 HD
ATOM     29  H   UNL     1      48.511   3.498   6.433  0.00  0.00    +0.000 HD
ENDBRANCH  19  26
ENDBRANCH  18  22
ENDBRANCH  17  18
ENDBRANCH   1  17
TORSDOF 5
ENDMDL
MODEL 7
REMARK VINA RESULT:    -7.505      3.926      7.578
REMARK INTER + INTRA:         -10.154
REMARK INTER:                  -9.469
REMARK INTRA:                  -0.685
REMARK UNBOUND:                -0.456
REMARK  Name = 
REMARK  5 active torsions:
REMARK  status: ('A' for Active; 'I' for Inactive)
REMARK    1  A    between atoms: C_2  and  C_4
REMARK    2  A    between atoms: C_7  and  O_8
REMARK    3  A    between atoms: O_8  and  C_9
REMARK    4  A    between atoms: C_9  and  C_10
REMARK    5  A    between atoms: C_15  and  C_16
REMARK                            x       y       z     vdW  Elec       q    Type
REMARK                         _______ _______ _______ _____ _____    ______ ____
ROOT
ATOM      1  C   UNL     1      48.063   6.351  14.448  0.00  0.00    +0.000 A 
ATOM      2  C   UNL     1      48.832   7.176  13.623  0.00  0.00    +0.000 A 
ATOM      3  C   UNL     1      48.486   7.329  12.287  0.00  0.00    +0.000 A 
ATOM      4  F   UNL     1      49.226   8.121  11.500  0.00  0.00    +0.000 F 
ATOM      5  C   UNL     1      47.380   6.681  11.748  0.00  0.00    +0.000 A 
ATOM      6  C   UNL     1      46.568   5.853  12.545  0.00  0.00    +0.000 A 
ATOM      7  C   UNL     1      46.947   5.689  13.895  0.00  0.00    +0.000 A 
ENDROOT
BRANCH   6   8
ATOM      8  C   UNL     1      45.358   5.197  11.999  0.00  0.00    +0.000 A 
ATOM      9  C   UNL     1      44.523   5.821  11.089  0.00  0.00    +0.000 A 
ATOM     10  C   UNL     1      43.435   5.101  10.663  0.00  0.00    +0.000 A 
ATOM     11  N   UNL     1      43.154   3.863  11.096  0.00  0.00    +0.000 NA
ATOM     12  C   UNL     1      43.989   3.349  12.002  0.00  0.00    +0.000 A 
ATOM     13  N   UNL     1      43.695   2.091  12.481  0.00  0.00    +0.000 N 
ATOM     14  N   UNL     1      45.092   3.953  12.457  0.00  0.00    +0.000 NA
ATOM     15  H   UNL     1      43.108   1.603  11.820  0.00  0.00    +0.000 HD
ATOM     16  H   UNL     1      44.537   1.628  12.792  0.00  0.00    +0.000 HD
ENDBRANCH   6   8
BRANCH   1  17
ATOM     17  C   UNL     1      48.444   6.150  15.899  0.00  0.00    +0.000 C 
BRANCH  17  18
ATOM     18  O   UNL     1      48.026   4.842  16.285  0.00  0.00    +0.000 OA
BRANCH  18  22
ATOM     19  C   UNL     1      50.985   2.257  17.326  0.00  0.00    +0.000 A 
ATOM     20  C   UNL     1      51.157   3.624  17.515  0.00  0.00    +0.000 A 
ATOM     21  N   UNL     1      50.202   4.537  17.182  0.00  0.00    +0.000 NA
ATOM     22  C   UNL     1      49.068   4.019  16.657  0.00  0.00    +0.000 A 
ATOM     23  C   UNL     1      48.899   2.650  16.467  0.00  0.00    +0.000 A 
ATOM     24  N   UNL     1      49.848   1.731  16.790  0.00  0.00    +0.000 NA
BRANCH  19  26
ATOM     25  N   UNL     1      51.666   0.102  18.203  0.00  0.00    +0.000 N 
ATOM     26  C   UNL     1      52.072   1.314  17.712  0.00  0.00    +0.000 C 
ATOM     27  O   UNL     1      53.256   1.599  17.594  0.00  0.00    +0.000 OA
ATOM     28  H   UNL     1      52.358  -0.589  18.457  0.00  0.00    +0.000 HD
ATOM     29  H   UNL     1      50.678  -0.125  18.248  0.00  0.00    +0.000 HD
ENDBRANCH  19  26
ENDBRANCH  18  22
ENDBRANCH  17  18
ENDBRANCH   1  17
TORSDOF 5
ENDMDL
MODEL 8
REMARK VINA RESULT:    -7.268      3.326      8.057
REMARK INTER + INTRA:          -9.848
REMARK INTER:                  -9.170
REMARK INTRA:                  -0.678
REMARK UNBOUND:                -0.456
REMARK  Name = 
REMARK  5 active torsions:
REMARK  status: ('A' for Active; 'I' for Inactive)
REMARK    1  A    between atoms: C_2  and  C_4
REMARK    2  A    between atoms: C_7  and  O_8
REMARK    3  A    between atoms: O_8  and  C_9
REMARK    4  A    between atoms: C_9  and  C_10
REMARK    5  A    between atoms: C_15  and  C_16
REMARK                            x       y       z     vdW  Elec       q    Type
REMARK                         _______ _______ _______ _____ _____    ______ ____
ROOT
ATOM      1  C   UNL     1      47.059   7.553  13.070  0.00  0.00    +0.000 A 
ATOM      2  C   UNL     1      46.295   8.715  12.931  0.00  0.00    +0.000 A 
ATOM      3  C   UNL     1      45.186   8.714  12.095  0.00  0.00    +0.000 A 
ATOM      4  F   UNL     1      44.457   9.831  11.966  0.00  0.00    +0.000 F 
ATOM      5  C   UNL     1      44.811   7.575  11.393  0.00  0.00    +0.000 A 
ATOM      6  C   UNL     1      45.541   6.378  11.514  0.00  0.00    +0.000 A 
ATOM      7  C   UNL     1      46.679   6.401  12.348  0.00  0.00    +0.000 A 
ENDROOT
BRANCH   6   8
ATOM      8  C   UNL     1      45.124   5.141  10.812  0.00  0.00    +0.000 A 
ATOM      9  C   UNL     1      45.341   4.949   9.460  0.00  0.00    +0.000 A 
ATOM     10  C   UNL     1      44.905   3.758   8.934  0.00  0.00    +0.000 A 
ATOM     11  N   UNL     1      44.284   2.815   9.658  0.00  0.00    +0.000 NA
ATOM     12  C   UNL     1      44.080   3.097  10.947  0.00  0.00    +0.000 A 
ATOM     13  N   UNL     1      43.414   2.152  11.697  0.00  0.00    +0.000 N 
ATOM     14  N   UNL     1      44.493   4.210  11.563  0.00  0.00    +0.000 NA
ATOM     15  H   UNL     1      43.499   1.246  11.258  0.00  0.00    +0.000 HD
ATOM     16  H   UNL     1      43.674   2.229  12.670  0.00  0.00    +0.000 HD
ENDBRANCH   6   8
BRANCH   1  17
ATOM     17  C   UNL     1      48.287   7.545  13.953  0.00  0.00    +0.000 C 
BRANCH  17  18
ATOM     18  O   UNL     1      48.635   6.185  14.207  0.00  0.00    +0.000 OA
BRANCH  18  22
ATOM     19  C   UNL     1      48.319   5.273  18.156  0.00  0.00    +0.000 A 
ATOM     20  C   UNL     1      47.802   4.407  17.198  0.00  0.00    +0.000 A 
ATOM     21  N   UNL     1      47.876   4.663  15.862  0.00  0.00    +0.000 NA
ATOM     22  C   UNL     1      48.494   5.819  15.529  0.00  0.00    +0.000 A 
ATOM     23  C   UNL     1      49.009   6.684  16.490  0.00  0.00    +0.000 A 
ATOM     24  N   UNL     1      48.935   6.444  17.826  0.00  0.00    +0.000 NA
BRANCH  19  26
ATOM     25  N   UNL     1      48.541   3.651  19.944  0.00  0.00    +0.000 N 
ATOM     26  C   UNL     1      48.202   4.933  19.601  0.00  0.00    +0.000 C 
ATOM     27  O   UNL     1      47.833   5.747  20.437  0.00  0.00    +0.000 OA
ATOM     28  H   UNL     1      48.507   3.369  20.913  0.00  0.00    +0.000 HD
ATOM     29  H   UNL     1      48.887   3.010  19.238  0.00  0.00    +0.000 HD
ENDBRANCH  19  26
ENDBRANCH  18  22
ENDBRANCH  17  18
ENDBRANCH   1  17
TORSDOF 5
ENDMDL
MODEL 9
REMARK VINA RESULT:    -7.246      3.167      7.720
REMARK INTER + INTRA:          -9.820
REMARK INTER:                  -9.250
REMARK INTRA:                  -0.570
REMARK UNBOUND:                -0.456
REMARK  Name = 
REMARK  5 active torsions:
REMARK  status: ('A' for Active; 'I' for Inactive)
REMARK    1  A    between atoms: C_2  and  C_4
REMARK    2  A    between atoms: C_7  and  O_8
REMARK    3  A    between atoms: O_8  and  C_9
REMARK    4  A    between atoms: C_9  and  C_10
REMARK    5  A    between atoms: C_15  and  C_16
REMARK                            x       y       z     vdW  Elec       q    Type
REMARK                         _______ _______ _______ _____ _____    ______ ____
ROOT
ATOM      1  C   UNL     1      45.233   5.638  10.849  0.00  0.00    +0.000 A 
ATOM      2  C   UNL     1      44.070   5.131  11.435  0.00  0.00    +0.000 A 
ATOM      3  C   UNL     1      43.529   3.939  10.973  0.00  0.00    +0.000 A 
ATOM      4  F   UNL     1      42.415   3.457  11.539  0.00  0.00    +0.000 F 
ATOM      5  C   UNL     1      44.126   3.227   9.939  0.00  0.00    +0.000 A 
ATOM      6  C   UNL     1      45.306   3.691   9.330  0.00  0.00    +0.000 A 
ATOM      7  C   UNL     1      45.830   4.917   9.793  0.00  0.00    +0.000 A 
ENDROOT
BRANCH   6   8
ATOM      8  C   UNL     1      45.982   2.919   8.261  0.00  0.00    +0.000 A 
ATOM      9  C   UNL     1      46.438   3.509   7.095  0.00  0.00    +0.000 A 
ATOM     10  C   UNL     1      47.046   2.679   6.187  0.00  0.00    +0.000 A 
ATOM     11  N   UNL     1      47.193   1.360   6.376  0.00  0.00    +0.000 NA
ATOM     12  C   UNL     1      46.691   0.865   7.509  0.00  0.00    +0.000 A 
ATOM     13  N   UNL     1      46.806  -0.495   7.703  0.00  0.00    +0.000 N 
ATOM     14  N   UNL     1      46.111   1.589   8.472  0.00  0.00    +0.000 NA
ATOM     15  H   UNL     1      47.562  -0.857   7.140  0.00  0.00    +0.000 HD
ATOM     16  H   UNL     1      46.811  -0.710   8.690  0.00  0.00    +0.000 HD
ENDBRANCH   6   8
BRANCH   1  17
ATOM     17  C   UNL     1      45.819   6.951  11.320  0.00  0.00    +0.000 C 
BRANCH  17  18
ATOM     18  O   UNL     1      47.239   6.853  11.237  0.00  0.00    +0.000 OA
BRANCH  18  22
ATOM     19  C   UNL     1      48.981   6.775  14.908  0.00  0.00    +0.000 A 
ATOM     20  C   UNL     1      49.301   7.785  14.008  0.00  0.00    +0.000 A 
ATOM     21  N   UNL     1      48.752   7.859  12.764  0.00  0.00    +0.000 NA
ATOM     22  C   UNL     1      47.866   6.882  12.464  0.00  0.00    +0.000 A 
ATOM     23  C   UNL     1      47.549   5.871  13.368  0.00  0.00    +0.000 A 
ATOM     24  N   UNL     1      48.095   5.783  14.610  0.00  0.00    +0.000 NA
BRANCH  19  26
ATOM     25  N   UNL     1      50.467   7.793  16.531  0.00  0.00    +0.000 N 
ATOM     26  C   UNL     1      49.620   6.753  16.254  0.00  0.00    +0.000 C 
ATOM     27  O   UNL     1      49.401   5.865  17.067  0.00  0.00    +0.000 OA
ATOM     28  H   UNL     1      50.910   7.846  17.438  0.00  0.00    +0.000 HD
ATOM     29  H   UNL     1      50.595   8.540  15.857  0.00  0.00    +0.000 HD
ENDBRANCH  19  26
ENDBRANCH  18  22
ENDBRANCH  17  18
ENDBRANCH   1  17
TORSDOF 5
ENDMDL
