MODEL 1
REMARK VINA RESULT:    -9.230      0.000      0.000
REMARK INTER + INTRA:         -12.683
REMARK INTER:                 -11.928
REMARK INTRA:                  -0.755
REMARK UNBOUND:                -0.755
REMARK  Name = 
REMARK  5 active torsions:
REMARK  status: ('A' for Active; 'I' for Inactive)
REMARK    1  A    between atoms: C_2  and  C_4
REMARK    2  A    between atoms: C_7  and  O_8
REMARK    3  A    between atoms: O_8  and  C_9
REMARK    4  A    between atoms: C_9  and  C_10
REMARK    5  A    between atoms: C_14  and  C_15
REMARK                            x       y       z     vdW  Elec       q    Type
REMARK                         _______ _______ _______ _____ _____    ______ ____
ROOT
ATOM      1  C   UNL     1      43.672   3.220  11.539  0.00  0.00    +0.000 C 
ENDROOT
BRANCH   1   2
ATOM      2  C   UNL     1      44.865   3.882  12.160  0.00  0.00    +0.000 A 
ATOM      3  C   UNL     1      45.731   3.174  12.981  0.00  0.00    +0.000 A 
ATOM      4  N   UNL     1      46.790   3.718  13.609  0.00  0.00    +0.000 NA
ATOM      5  C   UNL     1      47.005   5.039  13.398  0.00  0.00    +0.000 A 
ATOM      6  C   UNL     1      46.215   5.868  12.596  0.00  0.00    +0.000 A 
ATOM      7  C   UNL     1      45.123   5.246  11.973  0.00  0.00    +0.000 A 
BRANCH   6   8
ATOM      8  C   UNL     1      46.505   7.304  12.421  0.00  0.00    +0.000 A 
ATOM      9  C   UNL     1      45.491   8.275  12.536  0.00  0.00    +0.000 A 
ATOM     10  C   UNL     1      45.760   9.635  12.373  0.00  0.00    +0.000 A 
ATOM     11  C   UNL     1      47.055  10.057  12.084  0.00  0.00    +0.000 A 
ATOM     12  C   UNL     1      48.071   9.117  11.961  0.00  0.00    +0.000 A 
ATOM     13 CL   UNL     1      49.673   9.631  11.597  0.00  0.00    +0.000 Cl
ATOM     14  C   UNL     1      47.804   7.758  12.131  0.00  0.00    +0.000 A 
ENDBRANCH   6   8
ENDBRANCH   1   2
BRANCH   1  15
ATOM     15  O   UNL     1      43.541   3.646  10.181  0.00  0.00    +0.000 OA
BRANCH  15  19
ATOM     16  C   UNL     1      46.525   2.593   7.449  0.00  0.00    +0.000 A 
ATOM     17  C   UNL     1      46.139   3.924   7.649  0.00  0.00    +0.000 A 
ATOM     18  C   UNL     1      45.136   4.234   8.576  0.00  0.00    +0.000 A 
ATOM     19  C   UNL     1      44.516   3.224   9.319  0.00  0.00    +0.000 A 
ATOM     20  C   UNL     1      44.918   1.902   9.135  0.00  0.00    +0.000 A 
ATOM     21  C   UNL     1      45.909   1.598   8.207  0.00  0.00    +0.000 A 
ATOM     22  F   UNL     1      46.247   0.306   8.067  0.00  0.00    +0.000 F 
BRANCH  16  24
ATOM     23  N   UNL     1      47.492   2.949   5.236  0.00  0.00    +0.000 N 
ATOM     24  C   UNL     1      47.560   2.289   6.430  0.00  0.00    +0.000 C 
ATOM     25  O   UNL     1      48.455   1.483   6.649  0.00  0.00    +0.000 OA
ATOM     26  H   UNL     1      48.209   2.762   4.546  0.00  0.00    +0.000 HD
ATOM     27  H   UNL     1      46.782   3.638   5.025  0.00  0.00    +0.000 HD
ENDBRANCH  16  24
ENDBRANCH  15  19
ENDBRANCH   1  15
TORSDOF 5
ENDMDL
MODEL 2
REMARK VINA RESULT:    -9.145      1.534      1.876
REMARK INTER + INTRA:         -12.573
REMARK INTER:                 -11.819
REMARK INTRA:                  -0.754
REMARK UNBOUND:                -0.755
REMARK  Name = 
REMARK  5 active torsions:
REMARK  status: ('A' for Active; 'I' for Inactive)
REMARK    1  A    between atoms: C_2  and  C_4
REMARK    2  A    between atoms: C_7  and  O_8
REMARK    3  A    between atoms: O_8  and  C_9
REMARK    4  A    between atoms: C_9  and  C_10
REMARK    5  A    between atoms: C_14  and  C_15
REMARK                            x       y       z     vdW  Elec       q    Type
REMARK                         _______ _______ _______ _____ _____    ______ ____
ROOT
ATOM      1  C   UNL     1      43.864   5.145  10.783  0.00  0.00    +0.000 C 
ENDROOT
BRANCH   1   2
ATOM      2  C   UNL     1      44.929   5.121  11.837  0.00  0.00    +0.000 A 
ATOM      3  C   UNL     1      44.831   4.280  12.936  0.00  0.00    +0.000 A 
ATOM      4  N   UNL     1      45.726   4.245  13.942  0.00  0.00    +0.000 NA
ATOM      5  C   UNL     1      46.783   5.085  13.840  0.00  0.00    +0.000 A 
ATOM      6  C   UNL     1      47.005   5.981  12.790  0.00  0.00    +0.000 A 
ATOM      7  C   UNL     1      46.036   5.976  11.775  0.00  0.00    +0.000 A 
BRANCH   6   8
ATOM      8  C   UNL     1      48.177   6.877  12.752  0.00  0.00    +0.000 A 
ATOM      9  C   UNL     1      48.457   7.669  11.622  0.00  0.00    +0.000 A 
ATOM     10  C   UNL     1      49.563   8.520  11.582  0.00  0.00    +0.000 A 
ATOM     11  C   UNL     1      50.423   8.591  12.674  0.00  0.00    +0.000 A 
ATOM     12  C   UNL     1      50.171   7.815  13.798  0.00  0.00    +0.000 A 
ATOM     13 CL   UNL     1      51.235   7.893  15.149  0.00  0.00    +0.000 Cl
ATOM     14  C   UNL     1      49.062   6.970  13.843  0.00  0.00    +0.000 A 
ENDBRANCH   6   8
ENDBRANCH   1   2
BRANCH   1  15
ATOM     15  O   UNL     1      43.667   3.827  10.271  0.00  0.00    +0.000 OA
BRANCH  15  19
ATOM     16  C   UNL     1      46.549   2.677   7.469  0.00  0.00    +0.000 A 
ATOM     17  C   UNL     1      46.177   4.016   7.643  0.00  0.00    +0.000 A 
ATOM     18  C   UNL     1      45.208   4.358   8.595  0.00  0.00    +0.000 A 
ATOM     19  C   UNL     1      44.609   3.374   9.388  0.00  0.00    +0.000 A 
ATOM     20  C   UNL     1      44.998   2.045   9.228  0.00  0.00    +0.000 A 
ATOM     21  C   UNL     1      45.954   1.708   8.276  0.00  0.00    +0.000 A 
ATOM     22  F   UNL     1      46.281   0.410   8.162  0.00  0.00    +0.000 F 
BRANCH  16  24
ATOM     23  N   UNL     1      47.437   2.958   5.213  0.00  0.00    +0.000 N 
ATOM     24  C   UNL     1      47.547   2.337   6.424  0.00  0.00    +0.000 C 
ATOM     25  O   UNL     1      48.448   1.537   6.637  0.00  0.00    +0.000 OA
ATOM     26  H   UNL     1      48.128   2.746   4.504  0.00  0.00    +0.000 HD
ATOM     27  H   UNL     1      46.720   3.641   5.004  0.00  0.00    +0.000 HD
ENDBRANCH  16  24
ENDBRANCH  15  19
ENDBRANCH   1  15
TORSDOF 5
ENDMDL
MODEL 3
REMARK VINA RESULT:    -9.139      1.195      1.523
REMARK INTER + INTRA:         -12.565
REMARK INTER:                 -11.834
REMARK INTRA:                  -0.732
REMARK UNBOUND:                -0.755
REMARK  Name = 
REMARK  5 active torsions:
REMARK  status: ('A' for Active; 'I' for Inactive)
REMARK    1  A    between atoms: C_2  and  C_4
REMARK    2  A    between atoms: C_7  and  O_8
REMARK    3  A    between atoms: O_8  and  C_9
REMARK    4  A    between atoms: C_9  and  C_10
REMARK    5  A    between atoms: C_14  and  C_15
REMARK                            x       y       z     vdW  Elec       q    Type
REMARK                         _______ _______ _______ _____ _____    ______ ____
ROOT
ATOM      1  C   UNL     1      43.920   3.090  11.605  0.00  0.00    +0.000 C 
ENDROOT
BRANCH   1   2
ATOM      2  C   UNL     1      45.051   3.884  12.186  0.00  0.00    +0.000 A 
ATOM      3  C   UNL     1      45.997   3.288  13.008  0.00  0.00    +0.000 A 
ATOM      4  N   UNL     1      47.008   3.952  13.601  0.00  0.00    +0.000 NA
ATOM      5  C   UNL     1      47.085   5.282  13.352  0.00  0.00    +0.000 A 
ATOM      6  C   UNL     1      46.202   6.006  12.546  0.00  0.00    +0.000 A 
ATOM      7  C   UNL     1      45.168   5.261  11.960  0.00  0.00    +0.000 A 
BRANCH   6   8
ATOM      8  C   UNL     1      46.344   7.459  12.329  0.00  0.00    +0.000 A 
ATOM      9  C   UNL     1      47.610   8.074  12.303  0.00  0.00    +0.000 A 
ATOM     10  C   UNL     1      47.750   9.447  12.096  0.00  0.00    +0.000 A 
ATOM     11  C   UNL     1      46.621  10.242  11.918  0.00  0.00    +0.000 A 
ATOM     12  C   UNL     1      45.361   9.658  11.945  0.00  0.00    +0.000 A 
ATOM     13 CL   UNL     1      43.960  10.635  11.732  0.00  0.00    +0.000 Cl
ATOM     14  C   UNL     1      45.220   8.284  12.144  0.00  0.00    +0.000 A 
ENDBRANCH   6   8
ENDBRANCH   1   2
BRANCH   1  15
ATOM     15  O   UNL     1      43.693   3.498  10.255  0.00  0.00    +0.000 OA
BRANCH  15  19
ATOM     16  C   UNL     1      46.563   2.573   7.360  0.00  0.00    +0.000 A 
ATOM     17  C   UNL     1      46.095   3.879   7.550  0.00  0.00    +0.000 A 
ATOM     18  C   UNL     1      45.134   4.146   8.533  0.00  0.00    +0.000 A 
ATOM     19  C   UNL     1      44.638   3.119   9.342  0.00  0.00    +0.000 A 
ATOM     20  C   UNL     1      45.121   1.824   9.166  0.00  0.00    +0.000 A 
ATOM     21  C   UNL     1      46.070   1.561   8.183  0.00  0.00    +0.000 A 
ATOM     22  F   UNL     1      46.490   0.292   8.055  0.00  0.00    +0.000 F 
BRANCH  16  24
ATOM     23  N   UNL     1      47.484   3.082   5.158  0.00  0.00    +0.000 N 
ATOM     24  C   UNL     1      47.549   2.310   6.283  0.00  0.00    +0.000 C 
ATOM     25  O   UNL     1      48.404   1.441   6.397  0.00  0.00    +0.000 OA
ATOM     26  H   UNL     1      48.169   2.922   4.429  0.00  0.00    +0.000 HD
ATOM     27  H   UNL     1      46.808   3.825   5.034  0.00  0.00    +0.000 HD
ENDBRANCH  16  24
ENDBRANCH  15  19
ENDBRANCH   1  15
TORSDOF 5
ENDMDL
MODEL 4
REMARK VINA RESULT:    -8.679      2.517      3.446
REMARK INTER + INTRA:         -11.971
REMARK INTER:                 -11.462
REMARK INTRA:                  -0.509
REMARK UNBOUND:                -0.755
REMARK  Name = 
REMARK  5 active torsions:
REMARK  status: ('A' for Active; 'I' for Inactive)
REMARK    1  A    between atoms: C_2  and  C_4
REMARK    2  A    between atoms: C_7  and  O_8
REMARK    3  A    between atoms: O_8  and  C_9
REMARK    4  A    between atoms: C_9  and  C_10
REMARK    5  A    between atoms: C_14  and  C_15
REMARK                            x       y       z     vdW  Elec       q    Type
REMARK                         _______ _______ _______ _____ _____    ______ ____
ROOT
ATOM      1  C   UNL     1      43.960   3.201  11.517  0.00  0.00    +0.000 C 
ENDROOT
BRANCH   1   2
ATOM      2  C   UNL     1      44.649   4.420  12.053  0.00  0.00    +0.000 A 
ATOM      3  C   UNL     1      44.435   5.670  11.490  0.00  0.00    +0.000 A 
ATOM      4  N   UNL     1      45.057   6.795  11.890  0.00  0.00    +0.000 NA
ATOM      5  C   UNL     1      45.934   6.668  12.915  0.00  0.00    +0.000 A 
ATOM      6  C   UNL     1      46.242   5.473  13.572  0.00  0.00    +0.000 A 
ATOM      7  C   UNL     1      45.566   4.335  13.107  0.00  0.00    +0.000 A 
BRANCH   6   8
ATOM      8  C   UNL     1      47.218   5.411  14.677  0.00  0.00    +0.000 A 
ATOM      9  C   UNL     1      48.204   6.403  14.839  0.00  0.00    +0.000 A 
ATOM     10  C   UNL     1      49.129   6.350  15.884  0.00  0.00    +0.000 A 
ATOM     11  C   UNL     1      49.093   5.294  16.790  0.00  0.00    +0.000 A 
ATOM     12  C   UNL     1      48.132   4.301  16.647  0.00  0.00    +0.000 A 
ATOM     13 CL   UNL     1      48.086   2.988  17.761  0.00  0.00    +0.000 Cl
ATOM     14  C   UNL     1      47.203   4.356  15.609  0.00  0.00    +0.000 A 
ENDBRANCH   6   8
ENDBRANCH   1   2
BRANCH   1  15
ATOM     15  O   UNL     1      43.654   3.392  10.135  0.00  0.00    +0.000 OA
BRANCH  15  19
ATOM     16  C   UNL     1      46.607   2.530   7.304  0.00  0.00    +0.000 A 
ATOM     17  C   UNL     1      46.074   3.816   7.452  0.00  0.00    +0.000 A 
ATOM     18  C   UNL     1      45.087   4.063   8.415  0.00  0.00    +0.000 A 
ATOM     19  C   UNL     1      44.630   3.035   9.245  0.00  0.00    +0.000 A 
ATOM     20  C   UNL     1      45.178   1.760   9.112  0.00  0.00    +0.000 A 
ATOM     21  C   UNL     1      46.152   1.517   8.149  0.00  0.00    +0.000 A 
ATOM     22  F   UNL     1      46.635   0.268   8.062  0.00  0.00    +0.000 F 
BRANCH  16  24
ATOM     23  N   UNL     1      47.560   3.053   5.119  0.00  0.00    +0.000 N 
ATOM     24  C   UNL     1      47.620   2.286   6.248  0.00  0.00    +0.000 C 
ATOM     25  O   UNL     1      48.492   1.437   6.382  0.00  0.00    +0.000 OA
ATOM     26  H   UNL     1      48.263   2.906   4.405  0.00  0.00    +0.000 HD
ATOM     27  H   UNL     1      46.870   3.780   4.980  0.00  0.00    +0.000 HD
ENDBRANCH  16  24
ENDBRANCH  15  19
ENDBRANCH   1  15
TORSDOF 5
ENDMDL
MODEL 5
REMARK VINA RESULT:    -8.673      1.528      2.136
REMARK INTER + INTRA:         -11.963
REMARK INTER:                 -11.304
REMARK INTRA:                  -0.659
REMARK UNBOUND:                -0.755
REMARK  Name = 
REMARK  5 active torsions:
REMARK  status: ('A' for Active; 'I' for Inactive)
REMARK    1  A    between atoms: C_2  and  C_4
REMARK    2  A    between atoms: C_7  and  O_8
REMARK    3  A    between atoms: O_8  and  C_9
REMARK    4  A    between atoms: C_9  and  C_10
REMARK    5  A    between atoms: C_14  and  C_15
REMARK                            x       y       z     vdW  Elec       q    Type
REMARK                         _______ _______ _______ _____ _____    ______ ____
ROOT
ATOM      1  C   UNL     1      44.041   3.500  11.540  0.00  0.00    +0.000 C 
ENDROOT
BRANCH   1   2
ATOM      2  C   UNL     1      44.469   4.930  11.681  0.00  0.00    +0.000 A 
ATOM      3  C   UNL     1      43.619   5.970  11.334  0.00  0.00    +0.000 A 
ATOM      4  N   UNL     1      43.957   7.272  11.389  0.00  0.00    +0.000 NA
ATOM      5  C   UNL     1      45.208   7.553  11.826  0.00  0.00    +0.000 A 
ATOM      6  C   UNL     1      46.163   6.606  12.208  0.00  0.00    +0.000 A 
ATOM      7  C   UNL     1      45.754   5.267  12.123  0.00  0.00    +0.000 A 
BRANCH   6   8
ATOM      8  C   UNL     1      47.513   6.988  12.664  0.00  0.00    +0.000 A 
ATOM      9  C   UNL     1      47.965   6.671  13.960  0.00  0.00    +0.000 A 
ATOM     10  C   UNL     1      49.242   7.028  14.396  0.00  0.00    +0.000 A 
ATOM     11  C   UNL     1      50.098   7.720  13.544  0.00  0.00    +0.000 A 
ATOM     12  C   UNL     1      49.673   8.048  12.263  0.00  0.00    +0.000 A 
ATOM     13 CL   UNL     1      50.724   8.910  11.206  0.00  0.00    +0.000 Cl
ATOM     14  C   UNL     1      48.400   7.685  11.823  0.00  0.00    +0.000 A 
ENDBRANCH   6   8
ENDBRANCH   1   2
BRANCH   1  15
ATOM     15  O   UNL     1      43.607   3.260  10.201  0.00  0.00    +0.000 OA
BRANCH  15  19
ATOM     16  C   UNL     1      46.562   2.556   7.328  0.00  0.00    +0.000 A 
ATOM     17  C   UNL     1      46.002   3.825   7.521  0.00  0.00    +0.000 A 
ATOM     18  C   UNL     1      45.016   4.018   8.496  0.00  0.00    +0.000 A 
ATOM     19  C   UNL     1      44.586   2.954   9.294  0.00  0.00    +0.000 A 
ATOM     20  C   UNL     1      45.160   1.697   9.116  0.00  0.00    +0.000 A 
ATOM     21  C   UNL     1      46.134   1.507   8.141  0.00  0.00    +0.000 A 
ATOM     22  F   UNL     1      46.644   0.272   8.010  0.00  0.00    +0.000 F 
BRANCH  16  24
ATOM     23  N   UNL     1      47.507   3.189   5.168  0.00  0.00    +0.000 N 
ATOM     24  C   UNL     1      47.574   2.370   6.259  0.00  0.00    +0.000 C 
ATOM     25  O   UNL     1      48.452   1.521   6.351  0.00  0.00    +0.000 OA
ATOM     26  H   UNL     1      48.209   3.081   4.447  0.00  0.00    +0.000 HD
ATOM     27  H   UNL     1      46.812   3.917   5.065  0.00  0.00    +0.000 HD
ENDBRANCH  16  24
ENDBRANCH  15  19
ENDBRANCH   1  15
TORSDOF 5
ENDMDL
MODEL 6
REMARK VINA RESULT:    -8.128      4.204      7.133
REMARK INTER + INTRA:         -11.258
REMARK INTER:                 -10.252
REMARK INTRA:                  -1.006
REMARK UNBOUND:                -0.755
REMARK  Name = 
REMARK  5 active torsions:
REMARK  status: ('A' for Active; 'I' for Inactive)
REMARK    1  A    between atoms: C_2  and  C_4
REMARK    2  A    between atoms: C_7  and  O_8
REMARK    3  A    between atoms: O_8  and  C_9
REMARK    4  A    between atoms: C_9  and  C_10
REMARK    5  A    between atoms: C_14  and  C_15
REMARK                            x       y       z     vdW  Elec       q    Type
REMARK                         _______ _______ _______ _____ _____    ______ ____
ROOT
ATOM      1  C   UNL     1      44.252   7.050  11.680  0.00  0.00    +0.000 C 
ENDROOT
BRANCH   1   2
ATOM      2  C   UNL     1      44.085   5.628  11.235  0.00  0.00    +0.000 A 
ATOM      3  C   UNL     1      43.196   4.776  11.874  0.00  0.00    +0.000 A 
ATOM      4  N   UNL     1      43.034   3.478  11.557  0.00  0.00    +0.000 NA
ATOM      5  C   UNL     1      43.793   3.005  10.539  0.00  0.00    +0.000 A 
ATOM      6  C   UNL     1      44.724   3.752   9.811  0.00  0.00    +0.000 A 
ATOM      7  C   UNL     1      44.852   5.096  10.191  0.00  0.00    +0.000 A 
BRANCH   6   8
ATOM      8  C   UNL     1      45.524   3.164   8.719  0.00  0.00    +0.000 A 
ATOM      9  C   UNL     1      46.066   3.967   7.697  0.00  0.00    +0.000 A 
ATOM     10  C   UNL     1      46.826   3.417   6.663  0.00  0.00    +0.000 A 
ATOM     11  C   UNL     1      47.054   2.044   6.623  0.00  0.00    +0.000 A 
ATOM     12  C   UNL     1      46.525   1.232   7.618  0.00  0.00    +0.000 A 
ATOM     13 CL   UNL     1      46.798  -0.467   7.571  0.00  0.00    +0.000 Cl
ATOM     14  C   UNL     1      45.772   1.781   8.656  0.00  0.00    +0.000 A 
ENDBRANCH   6   8
ENDBRANCH   1   2
BRANCH   1  15
ATOM     15  O   UNL     1      45.070   7.092  12.850  0.00  0.00    +0.000 OA
BRANCH  15  19
ATOM     16  C   UNL     1      49.159   7.829  12.389  0.00  0.00    +0.000 A 
ATOM     17  C   UNL     1      48.678   6.624  12.915  0.00  0.00    +0.000 A 
ATOM     18  C   UNL     1      47.299   6.417  13.051  0.00  0.00    +0.000 A 
ATOM     19  C   UNL     1      46.389   7.402  12.655  0.00  0.00    +0.000 A 
ATOM     20  C   UNL     1      46.869   8.591  12.111  0.00  0.00    +0.000 A 
ATOM     21  C   UNL     1      48.239   8.797  11.985  0.00  0.00    +0.000 A 
ATOM     22  F   UNL     1      48.643   9.966  11.462  0.00  0.00    +0.000 F 
BRANCH  16  24
ATOM     23  N   UNL     1      51.333   8.111  13.461  0.00  0.00    +0.000 N 
ATOM     24  C   UNL     1      50.625   8.040  12.296  0.00  0.00    +0.000 C 
ATOM     25  O   UNL     1      51.190   8.135  11.214  0.00  0.00    +0.000 OA
ATOM     26  H   UNL     1      52.337   8.232  13.403  0.00  0.00    +0.000 HD
ATOM     27  H   UNL     1      50.908   8.015  14.374  0.00  0.00    +0.000 HD
ENDBRANCH  16  24
ENDBRANCH  15  19
ENDBRANCH   1  15
TORSDOF 5
ENDMDL
MODEL 7
REMARK VINA RESULT:    -7.887      4.020      7.503
REMARK INTER + INTRA:         -10.947
REMARK INTER:                 -10.330
REMARK INTRA:                  -0.617
REMARK UNBOUND:                -0.755
REMARK  Name = 
REMARK  5 active torsions:
REMARK  status: ('A' for Active; 'I' for Inactive)
REMARK    1  A    between atoms: C_2  and  C_4
REMARK    2  A    between atoms: C_7  and  O_8
REMARK    3  A    between atoms: O_8  and  C_9
REMARK    4  A    between atoms: C_9  and  C_10
REMARK    5  A    between atoms: C_14  and  C_15
REMARK                            x       y       z     vdW  Elec       q    Type
REMARK                         _______ _______ _______ _____ _____    ______ ____
ROOT
ATOM      1  C   UNL     1      44.951   7.099  11.792  0.00  0.00    +0.000 C 
ENDROOT
BRANCH   1   2
ATOM      2  C   UNL     1      44.537   5.775  11.224  0.00  0.00    +0.000 A 
ATOM      3  C   UNL     1      43.444   5.087  11.732  0.00  0.00    +0.000 A 
ATOM      4  N   UNL     1      43.049   3.874  11.301  0.00  0.00    +0.000 NA
ATOM      5  C   UNL     1      43.776   3.322  10.301  0.00  0.00    +0.000 A 
ATOM      6  C   UNL     1      44.895   3.904   9.699  0.00  0.00    +0.000 A 
ATOM      7  C   UNL     1      45.262   5.164  10.194  0.00  0.00    +0.000 A 
BRANCH   6   8
ATOM      8  C   UNL     1      45.646   3.235   8.618  0.00  0.00    +0.000 A 
ATOM      9  C   UNL     1      46.195   3.967   7.548  0.00  0.00    +0.000 A 
ATOM     10  C   UNL     1      46.908   3.341   6.524  0.00  0.00    +0.000 A 
ATOM     11  C   UNL     1      47.082   1.960   6.544  0.00  0.00    +0.000 A 
ATOM     12  C   UNL     1      46.546   1.216   7.588  0.00  0.00    +0.000 A 
ATOM     13 CL   UNL     1      46.752  -0.493   7.616  0.00  0.00    +0.000 Cl
ATOM     14  C   UNL     1      45.840   1.842   8.616  0.00  0.00    +0.000 A 
ENDBRANCH   6   8
ENDBRANCH   1   2
BRANCH   1  15
ATOM     15  O   UNL     1      46.375   7.155  11.885  0.00  0.00    +0.000 OA
BRANCH  15  19
ATOM     16  C   UNL     1      48.203   5.956  15.450  0.00  0.00    +0.000 A 
ATOM     17  C   UNL     1      48.421   7.222  14.894  0.00  0.00    +0.000 A 
ATOM     18  C   UNL     1      47.787   7.585  13.699  0.00  0.00    +0.000 A 
ATOM     19  C   UNL     1      46.923   6.695  13.052  0.00  0.00    +0.000 A 
ATOM     20  C   UNL     1      46.690   5.443  13.619  0.00  0.00    +0.000 A 
ATOM     21  C   UNL     1      47.328   5.084  14.802  0.00  0.00    +0.000 A 
ATOM     22  F   UNL     1      47.071   3.861  15.294  0.00  0.00    +0.000 F 
BRANCH  16  24
ATOM     23  N   UNL     1      48.723   6.357  17.800  0.00  0.00    +0.000 N 
ATOM     24  C   UNL     1      48.920   5.581  16.693  0.00  0.00    +0.000 C 
ATOM     25  O   UNL     1      49.655   4.603  16.738  0.00  0.00    +0.000 OA
ATOM     26  H   UNL     1      49.192   6.093  18.658  0.00  0.00    +0.000 HD
ATOM     27  H   UNL     1      48.107   7.159  17.811  0.00  0.00    +0.000 HD
ENDBRANCH  16  24
ENDBRANCH  15  19
ENDBRANCH   1  15
TORSDOF 5
ENDMDL
MODEL 8
REMARK VINA RESULT:    -7.462      2.287      2.619
REMARK INTER + INTRA:         -10.398
REMARK INTER:                  -9.729
REMARK INTRA:                  -0.669
REMARK UNBOUND:                -0.755
REMARK  Name = 
REMARK  5 active torsions:
REMARK  status: ('A' for Active; 'I' for Inactive)
REMARK    1  A    between atoms: C_2  and  C_4
REMARK    2  A    between atoms: C_7  and  O_8
REMARK    3  A    between atoms: O_8  and  C_9
REMARK    4  A    between atoms: C_9  and  C_10
REMARK    5  A    between atoms: C_14  and  C_15
REMARK                            x       y       z     vdW  Elec       q    Type
REMARK                         _______ _______ _______ _____ _____    ______ ____
ROOT
ATOM      1  C   UNL     1      45.174   5.999  10.989  0.00  0.00    +0.000 C 
ENDROOT
BRANCH   1   2
ATOM      2  C   UNL     1      45.932   5.675  12.241  0.00  0.00    +0.000 A 
ATOM      3  C   UNL     1      45.736   4.474  12.907  0.00  0.00    +0.000 A 
ATOM      4  N   UNL     1      46.346   4.143  14.061  0.00  0.00    +0.000 NA
ATOM      5  C   UNL     1      47.208   5.054  14.572  0.00  0.00    +0.000 A 
ATOM      6  C   UNL     1      47.499   6.299  14.005  0.00  0.00    +0.000 A 
ATOM      7  C   UNL     1      46.828   6.589  12.808  0.00  0.00    +0.000 A 
BRANCH   6   8
ATOM      8  C   UNL     1      48.443   7.247  14.627  0.00  0.00    +0.000 A 
ATOM      9  C   UNL     1      48.174   8.628  14.665  0.00  0.00    +0.000 A 
ATOM     10  C   UNL     1      49.062   9.530  15.254  0.00  0.00    +0.000 A 
ATOM     11  C   UNL     1      50.251   9.068  15.813  0.00  0.00    +0.000 A 
ATOM     12  C   UNL     1      50.541   7.709  15.783  0.00  0.00    +0.000 A 
ATOM     13 CL   UNL     1      52.011   7.132  16.466  0.00  0.00    +0.000 Cl
ATOM     14  C   UNL     1      49.650   6.807  15.201  0.00  0.00    +0.000 A 
ENDBRANCH   6   8
ENDBRANCH   1   2
BRANCH   1  15
ATOM     15  O   UNL     1      44.507   4.827  10.517  0.00  0.00    +0.000 OA
BRANCH  15  19
ATOM     16  C   UNL     1      46.557   2.840   7.463  0.00  0.00    +0.000 A 
ATOM     17  C   UNL     1      46.593   4.234   7.596  0.00  0.00    +0.000 A 
ATOM     18  C   UNL     1      45.893   4.860   8.635  0.00  0.00    +0.000 A 
ATOM     19  C   UNL     1      45.161   4.105   9.556  0.00  0.00    +0.000 A 
ATOM     20  C   UNL     1      45.145   2.716   9.436  0.00  0.00    +0.000 A 
ATOM     21  C   UNL     1      45.835   2.099   8.398  0.00  0.00    +0.000 A 
ATOM     22  F   UNL     1      45.775   0.759   8.328  0.00  0.00    +0.000 F 
BRANCH  16  24
ATOM     23  N   UNL     1      46.946   2.609   5.065  0.00  0.00    +0.000 N 
ATOM     24  C   UNL     1      47.272   2.206   6.328  0.00  0.00    +0.000 C 
ATOM     25  O   UNL     1      48.136   1.357   6.511  0.00  0.00    +0.000 OA
ATOM     26  H   UNL     1      47.447   2.196   4.288  0.00  0.00    +0.000 HD
ATOM     27  H   UNL     1      46.255   3.323   4.873  0.00  0.00    +0.000 HD
ENDBRANCH  16  24
ENDBRANCH  15  19
ENDBRANCH   1  15
TORSDOF 5
ENDMDL
MODEL 9
REMARK VINA RESULT:    -7.172      4.805      8.327
REMARK INTER + INTRA:         -10.023
REMARK INTER:                  -9.165
REMARK INTRA:                  -0.859
REMARK UNBOUND:                -0.755
REMARK  Name = 
REMARK  5 active torsions:
REMARK  status: ('A' for Active; 'I' for Inactive)
REMARK    1  A    between atoms: C_2  and  C_4
REMARK    2  A    between atoms: C_7  and  O_8
REMARK    3  A    between atoms: O_8  and  C_9
REMARK    4  A    between atoms: C_9  and  C_10
REMARK    5  A    between atoms: C_14  and  C_15
REMARK                            x       y       z     vdW  Elec       q    Type
REMARK                         _______ _______ _______ _____ _____    ______ ____
ROOT
ATOM      1  C   UNL     1      48.165   7.495  13.717  0.00  0.00    +0.000 C 
ENDROOT
BRANCH   1   2
ATOM      2  C   UNL     1      46.961   7.419  12.827  0.00  0.00    +0.000 A 
ATOM      3  C   UNL     1      46.062   8.472  12.746  0.00  0.00    +0.000 A 
ATOM      4  N   UNL     1      44.937   8.450  12.005  0.00  0.00    +0.000 NA
ATOM      5  C   UNL     1      44.703   7.319  11.297  0.00  0.00    +0.000 A 
ATOM      6  C   UNL     1      45.523   6.188  11.287  0.00  0.00    +0.000 A 
ATOM      7  C   UNL     1      46.676   6.268  12.081  0.00  0.00    +0.000 A 
BRANCH   6   8
ATOM      8  C   UNL     1      45.196   4.984  10.497  0.00  0.00    +0.000 A 
ATOM      9  C   UNL     1      44.386   3.961  11.025  0.00  0.00    +0.000 A 
ATOM     10  C   UNL     1      44.071   2.822  10.282  0.00  0.00    +0.000 A 
ATOM     11  C   UNL     1      44.570   2.676   8.990  0.00  0.00    +0.000 A 
ATOM     12  C   UNL     1      45.376   3.670   8.450  0.00  0.00    +0.000 A 
ATOM     13 CL   UNL     1      46.002   3.493   6.856  0.00  0.00    +0.000 Cl
ATOM     14  C   UNL     1      45.685   4.813   9.189  0.00  0.00    +0.000 A 
ENDBRANCH   6   8
ENDBRANCH   1   2
BRANCH   1  15
ATOM     15  O   UNL     1      48.555   6.178  14.107  0.00  0.00    +0.000 OA
BRANCH  15  19
ATOM     16  C   UNL     1      48.111   5.365  18.184  0.00  0.00    +0.000 A 
ATOM     17  C   UNL     1      48.809   6.488  17.723  0.00  0.00    +0.000 A 
ATOM     18  C   UNL     1      48.933   6.724  16.348  0.00  0.00    +0.000 A 
ATOM     19  C   UNL     1      48.355   5.852  15.421  0.00  0.00    +0.000 A 
ATOM     20  C   UNL     1      47.641   4.747  15.882  0.00  0.00    +0.000 A 
ATOM     21  C   UNL     1      47.527   4.511  17.248  0.00  0.00    +0.000 A 
ATOM     22  F   UNL     1      46.836   3.426  17.632  0.00  0.00    +0.000 F 
BRANCH  16  24
ATOM     23  N   UNL     1      46.954   5.612  20.318  0.00  0.00    +0.000 N 
ATOM     24  C   UNL     1      48.032   5.114  19.645  0.00  0.00    +0.000 C 
ATOM     25  O   UNL     1      48.894   4.472  20.231  0.00  0.00    +0.000 OA
ATOM     26  H   UNL     1      46.883   5.425  21.311  0.00  0.00    +0.000 HD
ATOM     27  H   UNL     1      46.209   6.128  19.867  0.00  0.00    +0.000 HD
ENDBRANCH  16  24
ENDBRANCH  15  19
ENDBRANCH   1  15
TORSDOF 5
ENDMDL
