MODEL 1
REMARK VINA RESULT:    -8.161      0.000      0.000
REMARK INTER + INTRA:         -11.879
REMARK INTER:                 -11.024
REMARK INTRA:                  -0.855
REMARK UNBOUND:                -0.855
REMARK  Name = 
REMARK  6 active torsions:
REMARK  status: ('A' for Active; 'I' for Inactive)
REMARK    1  A    between atoms: C_2  and  C_4
REMARK    2  A    between atoms: C_7  and  N_8
REMARK    3  A    between atoms: N_8  and  C_9
REMARK    4  A    between atoms: C_9  and  C_10
REMARK    5  A    between atoms: C_10  and  C_11
REMARK    6  A    between atoms: C_15  and  N_16
REMARK                            x       y       z     vdW  Elec       q    Type
REMARK                         _______ _______ _______ _____ _____    ______ ____
ROOT
ATOM      1  C   UNL     1      43.470   3.196  11.561  0.00  0.00    +0.000 C 
ENDROOT
BRANCH   1   2
ATOM      2  N   UNL     1      43.740   3.978  10.355  0.00  0.00    +0.000 N 
ATOM      3  H   UNL     1      42.926   4.416   9.926  0.00  0.00    +0.000 HD
BRANCH   2   7
ATOM      4  C   UNL     1      46.608   2.636   7.553  0.00  0.00    +0.000 A 
ATOM      5  C   UNL     1      45.945   1.710   8.358  0.00  0.00    +0.000 A 
ATOM      6  C   UNL     1      44.983   2.142   9.277  0.00  0.00    +0.000 A 
ATOM      7  C   UNL     1      44.638   3.495   9.397  0.00  0.00    +0.000 A 
ATOM      8  C   UNL     1      45.329   4.415   8.592  0.00  0.00    +0.000 A 
ATOM      9  C   UNL     1      46.311   3.993   7.681  0.00  0.00    +0.000 A 
BRANCH   4  11
ATOM     10  N   UNL     1      47.876   3.021   5.511  0.00  0.00    +0.000 N 
ATOM     11  C   UNL     1      47.660   2.211   6.593  0.00  0.00    +0.000 C 
ATOM     12  O   UNL     1      48.330   1.202   6.773  0.00  0.00    +0.000 OA
ATOM     13  H   UNL     1      48.659   2.779   4.918  0.00  0.00    +0.000 HD
ATOM     14  H   UNL     1      47.525   3.965   5.464  0.00  0.00    +0.000 HD
ENDBRANCH   4  11
ENDBRANCH   2   7
ENDBRANCH   1   2
BRANCH   1  15
ATOM     15  C   UNL     1      43.522   4.080  12.813  0.00  0.00    +0.000 C 
BRANCH  15  16
ATOM     16  C   UNL     1      44.862   4.745  12.997  0.00  0.00    +0.000 A 
ATOM     17  C   UNL     1      46.012   3.997  13.203  0.00  0.00    +0.000 A 
ATOM     18  N   UNL     1      47.238   4.529  13.369  0.00  0.00    +0.000 NA
ATOM     19  C   UNL     1      47.315   5.886  13.331  0.00  0.00    +0.000 A 
ATOM     20  C   UNL     1      46.248   6.763  13.127  0.00  0.00    +0.000 A 
ATOM     21  C   UNL     1      45.004   6.142  12.954  0.00  0.00    +0.000 A 
BRANCH  20  22
ATOM     22  N   UNL     1      46.397   8.133  13.122  0.00  0.00    +0.000 N 
ATOM     23  C   UNL     1      45.342   9.053  12.666  0.00  0.00    +0.000 C 
ATOM     24  C   UNL     1      45.937  10.078  11.691  0.00  0.00    +0.000 C 
ATOM     25  O   UNL     1      47.054  10.773  12.272  0.00  0.00    +0.000 OA
ATOM     26  C   UNL     1      48.085   9.842  12.641  0.00  0.00    +0.000 C 
ATOM     27  C   UNL     1      47.582   8.810  13.667  0.00  0.00    +0.000 C 
ENDBRANCH  20  22
ENDBRANCH  15  16
ENDBRANCH   1  15
TORSDOF 6
ENDMDL
MODEL 2
REMARK VINA RESULT:    -8.143      1.471      1.847
REMARK INTER + INTRA:         -11.854
REMARK INTER:                 -10.907
REMARK INTRA:                  -0.947
REMARK UNBOUND:                -0.855
REMARK  Name = 
REMARK  6 active torsions:
REMARK  status: ('A' for Active; 'I' for Inactive)
REMARK    1  A    between atoms: C_2  and  C_4
REMARK    2  A    between atoms: C_7  and  N_8
REMARK    3  A    between atoms: N_8  and  C_9
REMARK    4  A    between atoms: C_9  and  C_10
REMARK    5  A    between atoms: C_10  and  C_11
REMARK    6  A    between atoms: C_15  and  N_16
REMARK                            x       y       z     vdW  Elec       q    Type
REMARK                         _______ _______ _______ _____ _____    ______ ____
ROOT
ATOM      1  C   UNL     1      42.982   4.613  11.002  0.00  0.00    +0.000 C 
ENDROOT
BRANCH   1   2
ATOM      2  N   UNL     1      43.821   5.022   9.874  0.00  0.00    +0.000 N 
ATOM      3  H   UNL     1      43.365   5.616   9.183  0.00  0.00    +0.000 HD
BRANCH   2   7
ATOM      4  C   UNL     1      46.266   2.129   7.995  0.00  0.00    +0.000 A 
ATOM      5  C   UNL     1      46.421   3.477   7.672  0.00  0.00    +0.000 A 
ATOM      6  C   UNL     1      45.628   4.443   8.300  0.00  0.00    +0.000 A 
ATOM      7  C   UNL     1      44.687   4.098   9.279  0.00  0.00    +0.000 A 
ATOM      8  C   UNL     1      44.531   2.735   9.578  0.00  0.00    +0.000 A 
ATOM      9  C   UNL     1      45.308   1.755   8.938  0.00  0.00    +0.000 A 
BRANCH   4  11
ATOM     10  N   UNL     1      46.791  -0.223   7.651  0.00  0.00    +0.000 N 
ATOM     11  C   UNL     1      47.069   1.076   7.320  0.00  0.00    +0.000 C 
ATOM     12  O   UNL     1      47.917   1.348   6.480  0.00  0.00    +0.000 OA
ATOM     13  H   UNL     1      47.270  -0.935   7.115  0.00  0.00    +0.000 HD
ATOM     14  H   UNL     1      45.951  -0.489   8.139  0.00  0.00    +0.000 HD
ENDBRANCH   4  11
ENDBRANCH   2   7
ENDBRANCH   1   2
BRANCH   1  15
ATOM     15  C   UNL     1      43.230   5.506  12.223  0.00  0.00    +0.000 C 
BRANCH  15  16
ATOM     16  C   UNL     1      44.638   5.389  12.750  0.00  0.00    +0.000 A 
ATOM     17  C   UNL     1      45.122   4.185  13.240  0.00  0.00    +0.000 A 
ATOM     18  N   UNL     1      46.369   4.013  13.720  0.00  0.00    +0.000 NA
ATOM     19  C   UNL     1      47.173   5.110  13.712  0.00  0.00    +0.000 A 
ATOM     20  C   UNL     1      46.825   6.379  13.247  0.00  0.00    +0.000 A 
ATOM     21  C   UNL     1      45.517   6.484  12.756  0.00  0.00    +0.000 A 
BRANCH  20  22
ATOM     22  N   UNL     1      47.687   7.454  13.290  0.00  0.00    +0.000 N 
ATOM     23  C   UNL     1      47.228   8.852  13.251  0.00  0.00    +0.000 C 
ATOM     24  C   UNL     1      48.045   9.634  12.212  0.00  0.00    +0.000 C 
ATOM     25  O   UNL     1      49.456   9.528  12.462  0.00  0.00    +0.000 OA
ATOM     26  C   UNL     1      49.870   8.152  12.426  0.00  0.00    +0.000 C 
ATOM     27  C   UNL     1      49.137   7.308  13.484  0.00  0.00    +0.000 C 
ENDBRANCH  20  22
ENDBRANCH  15  16
ENDBRANCH   1  15
TORSDOF 6
ENDMDL
MODEL 3
REMARK VINA RESULT:    -8.087      2.950      4.040
REMARK INTER + INTRA:         -11.779
REMARK INTER:                 -11.117
REMARK INTRA:                  -0.662
REMARK UNBOUND:                -0.855
REMARK  Name = 
REMARK  6 active torsions:
REMARK  status: ('A' for Active; 'I' for Inactive)
REMARK    1  A    between atoms: C_2  and  C_4
REMARK    2  A    between atoms: C_7  and  N_8
REMARK    3  A    between atoms: N_8  and  C_9
REMARK    4  A    between atoms: C_9  and  C_10
REMARK    5  A    between atoms: C_10  and  C_11
REMARK    6  A    between atoms: C_15  and  N_16
REMARK                            x       y       z     vdW  Elec       q    Type
REMARK                         _______ _______ _______ _____ _____    ______ ____
ROOT
ATOM      1  C   UNL     1      44.385   5.475  11.216  0.00  0.00    +0.000 C 
ENDROOT
BRANCH   1   2
ATOM      2  N   UNL     1      43.806   4.773  10.070  0.00  0.00    +0.000 N 
ATOM      3  H   UNL     1      42.900   4.338  10.236  0.00  0.00    +0.000 HD
BRANCH   2   7
ATOM      4  C   UNL     1      46.444   2.484   7.686  0.00  0.00    +0.000 A 
ATOM      5  C   UNL     1      45.533   1.838   8.522  0.00  0.00    +0.000 A 
ATOM      6  C   UNL     1      44.646   2.586   9.303  0.00  0.00    +0.000 A 
ATOM      7  C   UNL     1      44.622   3.986   9.250  0.00  0.00    +0.000 A 
ATOM      8  C   UNL     1      45.558   4.620   8.417  0.00  0.00    +0.000 A 
ATOM      9  C   UNL     1      46.467   3.879   7.646  0.00  0.00    +0.000 A 
BRANCH   4  11
ATOM     10  N   UNL     1      48.524   2.397   6.426  0.00  0.00    +0.000 N 
ATOM     11  C   UNL     1      47.423   1.718   6.872  0.00  0.00    +0.000 C 
ATOM     12  O   UNL     1      47.275   0.526   6.636  0.00  0.00    +0.000 OA
ATOM     13  H   UNL     1      49.234   1.846   5.960  0.00  0.00    +0.000 HD
ATOM     14  H   UNL     1      48.797   3.291   6.802  0.00  0.00    +0.000 HD
ENDBRANCH   4  11
ENDBRANCH   2   7
ENDBRANCH   1   2
BRANCH   1  15
ATOM     15  C   UNL     1      45.140   4.504  12.131  0.00  0.00    +0.000 C 
BRANCH  15  16
ATOM     16  C   UNL     1      46.240   5.179  12.911  0.00  0.00    +0.000 A 
ATOM     17  C   UNL     1      46.955   6.238  12.371  0.00  0.00    +0.000 A 
ATOM     18  N   UNL     1      47.944   6.885  13.016  0.00  0.00    +0.000 NA
ATOM     19  C   UNL     1      48.235   6.445  14.269  0.00  0.00    +0.000 A 
ATOM     20  C   UNL     1      47.598   5.398  14.940  0.00  0.00    +0.000 A 
ATOM     21  C   UNL     1      46.575   4.775  14.213  0.00  0.00    +0.000 A 
BRANCH  20  22
ATOM     22  N   UNL     1      47.961   4.990  16.205  0.00  0.00    +0.000 N 
ATOM     23  C   UNL     1      49.083   5.584  16.948  0.00  0.00    +0.000 C 
ATOM     24  C   UNL     1      49.973   4.469  17.518  0.00  0.00    +0.000 C 
ATOM     25  O   UNL     1      49.214   3.548  18.319  0.00  0.00    +0.000 OA
ATOM     26  C   UNL     1      48.171   2.943  17.535  0.00  0.00    +0.000 C 
ATOM     27  C   UNL     1      47.198   3.995  16.973  0.00  0.00    +0.000 C 
ENDBRANCH  20  22
ENDBRANCH  15  16
ENDBRANCH   1  15
TORSDOF 6
ENDMDL
MODEL 4
REMARK VINA RESULT:    -7.823      2.283      3.062
REMARK INTER + INTRA:         -11.422
REMARK INTER:                 -10.842
REMARK INTRA:                  -0.580
REMARK UNBOUND:                -0.855
REMARK  Name = 
REMARK  6 active torsions:
REMARK  status: ('A' for Active; 'I' for Inactive)
REMARK    1  A    between atoms: C_2  and  C_4
REMARK    2  A    between atoms: C_7  and  N_8
REMARK    3  A    between atoms: N_8  and  C_9
REMARK    4  A    between atoms: C_9  and  C_10
REMARK    5  A    between atoms: C_10  and  C_11
REMARK    6  A    between atoms: C_15  and  N_16
REMARK                            x       y       z     vdW  Elec       q    Type
REMARK                         _______ _______ _______ _____ _____    ______ ____
ROOT
ATOM      1  C   UNL     1      44.176   5.763  10.898  0.00  0.00    +0.000 C 
ENDROOT
BRANCH   1   2
ATOM      2  N   UNL     1      43.773   4.988   9.724  0.00  0.00    +0.000 N 
ATOM      3  H   UNL     1      42.815   4.641   9.736  0.00  0.00    +0.000 HD
BRANCH   2   7
ATOM      4  C   UNL     1      46.275   2.072   7.957  0.00  0.00    +0.000 A 
ATOM      5  C   UNL     1      46.411   3.412   7.591  0.00  0.00    +0.000 A 
ATOM      6  C   UNL     1      45.599   4.386   8.180  0.00  0.00    +0.000 A 
ATOM      7  C   UNL     1      44.658   4.058   9.165  0.00  0.00    +0.000 A 
ATOM      8  C   UNL     1      44.521   2.703   9.509  0.00  0.00    +0.000 A 
ATOM      9  C   UNL     1      45.317   1.716   8.907  0.00  0.00    +0.000 A 
BRANCH   4  11
ATOM     10  N   UNL     1      46.816  -0.283   7.669  0.00  0.00    +0.000 N 
ATOM     11  C   UNL     1      47.099   1.011   7.323  0.00  0.00    +0.000 C 
ATOM     12  O   UNL     1      47.968   1.271   6.502  0.00  0.00    +0.000 OA
ATOM     13  H   UNL     1      47.311  -1.003   7.159  0.00  0.00    +0.000 HD
ATOM     14  H   UNL     1      45.964  -0.543   8.139  0.00  0.00    +0.000 HD
ENDBRANCH   4  11
ENDBRANCH   2   7
ENDBRANCH   1   2
BRANCH   1  15
ATOM     15  C   UNL     1      45.703   5.863  10.994  0.00  0.00    +0.000 C 
BRANCH  15  16
ATOM     16  C   UNL     1      46.226   5.456  12.348  0.00  0.00    +0.000 A 
ATOM     17  C   UNL     1      45.893   4.232  12.907  0.00  0.00    +0.000 A 
ATOM     18  N   UNL     1      46.330   3.808  14.108  0.00  0.00    +0.000 NA
ATOM     19  C   UNL     1      47.143   4.660  14.788  0.00  0.00    +0.000 A 
ATOM     20  C   UNL     1      47.566   5.916  14.349  0.00  0.00    +0.000 A 
ATOM     21  C   UNL     1      47.079   6.290  13.089  0.00  0.00    +0.000 A 
BRANCH  20  22
ATOM     22  N   UNL     1      48.375   6.739  15.103  0.00  0.00    +0.000 N 
ATOM     23  C   UNL     1      49.209   6.246  16.210  0.00  0.00    +0.000 C 
ATOM     24  C   UNL     1      49.006   7.137  17.445  0.00  0.00    +0.000 C 
ATOM     25  O   UNL     1      49.258   8.520  17.144  0.00  0.00    +0.000 OA
ATOM     26  C   UNL     1      48.377   8.975  16.103  0.00  0.00    +0.000 C 
ATOM     27  C   UNL     1      48.561   8.167  14.806  0.00  0.00    +0.000 C 
ENDBRANCH  20  22
ENDBRANCH  15  16
ENDBRANCH   1  15
TORSDOF 6
ENDMDL
MODEL 5
REMARK VINA RESULT:    -7.108      2.212      2.748
REMARK INTER + INTRA:         -10.456
REMARK INTER:                  -9.877
REMARK INTRA:                  -0.578
REMARK UNBOUND:                -0.855
REMARK  Name = 
REMARK  6 active torsions:
REMARK  status: ('A' for Active; 'I' for Inactive)
REMARK    1  A    between atoms: C_2  and  C_4
REMARK    2  A    between atoms: C_7  and  N_8
REMARK    3  A    between atoms: N_8  and  C_9
REMARK    4  A    between atoms: C_9  and  C_10
REMARK    5  A    between atoms: C_10  and  C_11
REMARK    6  A    between atoms: C_15  and  N_16
REMARK                            x       y       z     vdW  Elec       q    Type
REMARK                         _______ _______ _______ _____ _____    ______ ____
ROOT
ATOM      1  C   UNL     1      44.562   5.521  11.222  0.00  0.00    +0.000 C 
ENDROOT
BRANCH   1   2
ATOM      2  N   UNL     1      44.009   4.994   9.974  0.00  0.00    +0.000 N 
ATOM      3  H   UNL     1      42.999   4.861   9.965  0.00  0.00    +0.000 HD
BRANCH   2   7
ATOM      4  C   UNL     1      46.213   1.978   7.992  0.00  0.00    +0.000 A 
ATOM      5  C   UNL     1      45.234   1.621   8.920  0.00  0.00    +0.000 A 
ATOM      6  C   UNL     1      44.489   2.610   9.570  0.00  0.00    +0.000 A 
ATOM      7  C   UNL     1      44.676   3.971   9.292  0.00  0.00    +0.000 A 
ATOM      8  C   UNL     1      45.678   4.314   8.369  0.00  0.00    +0.000 A 
ATOM      9  C   UNL     1      46.446   3.329   7.728  0.00  0.00    +0.000 A 
BRANCH   4  11
ATOM     10  N   UNL     1      46.820  -0.354   7.654  0.00  0.00    +0.000 N 
ATOM     11  C   UNL     1      47.045   0.952   7.312  0.00  0.00    +0.000 C 
ATOM     12  O   UNL     1      47.870   1.250   6.459  0.00  0.00    +0.000 OA
ATOM     13  H   UNL     1      47.317  -1.052   7.116  0.00  0.00    +0.000 HD
ATOM     14  H   UNL     1      45.997  -0.648   8.156  0.00  0.00    +0.000 HD
ENDBRANCH   4  11
ENDBRANCH   2   7
ENDBRANCH   1   2
BRANCH   1  15
ATOM     15  C   UNL     1      45.573   6.640  10.947  0.00  0.00    +0.000 C 
BRANCH  15  16
ATOM     16  C   UNL     1      46.690   6.674  11.959  0.00  0.00    +0.000 A 
ATOM     17  C   UNL     1      46.776   5.722  12.964  0.00  0.00    +0.000 A 
ATOM     18  N   UNL     1      47.749   5.695  13.895  0.00  0.00    +0.000 NA
ATOM     19  C   UNL     1      48.685   6.678  13.817  0.00  0.00    +0.000 A 
ATOM     20  C   UNL     1      48.728   7.695  12.860  0.00  0.00    +0.000 A 
ATOM     21  C   UNL     1      47.691   7.659  11.920  0.00  0.00    +0.000 A 
BRANCH  20  22
ATOM     22  N   UNL     1      49.697   8.675  12.855  0.00  0.00    +0.000 N 
ATOM     23  C   UNL     1      49.427  10.068  12.466  0.00  0.00    +0.000 C 
ATOM     24  C   UNL     1      50.490  10.541  11.464  0.00  0.00    +0.000 C 
ATOM     25  O   UNL     1      51.818  10.367  11.984  0.00  0.00    +0.000 OA
ATOM     26  C   UNL     1      52.061   8.982  12.288  0.00  0.00    +0.000 C 
ATOM     27  C   UNL     1      51.068   8.446  13.335  0.00  0.00    +0.000 C 
ENDBRANCH  20  22
ENDBRANCH  15  16
ENDBRANCH   1  15
TORSDOF 6
ENDMDL
MODEL 6
REMARK VINA RESULT:    -6.490      2.305      7.187
REMARK INTER + INTRA:          -9.621
REMARK INTER:                  -8.958
REMARK INTRA:                  -0.663
REMARK UNBOUND:                -0.855
REMARK  Name = 
REMARK  6 active torsions:
REMARK  status: ('A' for Active; 'I' for Inactive)
REMARK    1  A    between atoms: C_2  and  C_4
REMARK    2  A    between atoms: C_7  and  N_8
REMARK    3  A    between atoms: N_8  and  C_9
REMARK    4  A    between atoms: C_9  and  C_10
REMARK    5  A    between atoms: C_10  and  C_11
REMARK    6  A    between atoms: C_15  and  N_16
REMARK                            x       y       z     vdW  Elec       q    Type
REMARK                         _______ _______ _______ _____ _____    ______ ____
ROOT
ATOM      1  C   UNL     1      44.982   6.867  12.635  0.00  0.00    +0.000 C 
ENDROOT
BRANCH   1   2
ATOM      2  N   UNL     1      45.763   8.007  13.117  0.00  0.00    +0.000 N 
ATOM      3  H   UNL     1      45.287   8.908  13.084  0.00  0.00    +0.000 HD
BRANCH   2   7
ATOM      4  C   UNL     1      49.831   8.167  11.973  0.00  0.00    +0.000 A 
ATOM      5  C   UNL     1      48.993   9.247  11.695  0.00  0.00    +0.000 A 
ATOM      6  C   UNL     1      47.649   9.211  12.083  0.00  0.00    +0.000 A 
ATOM      7  C   UNL     1      47.116   8.119  12.779  0.00  0.00    +0.000 A 
ATOM      8  C   UNL     1      47.968   7.032  13.035  0.00  0.00    +0.000 A 
ATOM      9  C   UNL     1      49.313   7.050  12.631  0.00  0.00    +0.000 A 
BRANCH   4  11
ATOM     10  N   UNL     1      52.195   7.974  12.517  0.00  0.00    +0.000 N 
ATOM     11  C   UNL     1      51.253   8.161  11.543  0.00  0.00    +0.000 C 
ATOM     12  O   UNL     1      51.573   8.283  10.368  0.00  0.00    +0.000 OA
ATOM     13  H   UNL     1      53.151   7.871  12.204  0.00  0.00    +0.000 HD
ATOM     14  H   UNL     1      51.962   7.629  13.435  0.00  0.00    +0.000 HD
ENDBRANCH   4  11
ENDBRANCH   2   7
ENDBRANCH   1   2
BRANCH   1  15
ATOM     15  C   UNL     1      45.205   6.643  11.135  0.00  0.00    +0.000 C 
BRANCH  15  16
ATOM     16  C   UNL     1      44.859   5.241  10.700  0.00  0.00    +0.000 A 
ATOM     17  C   UNL     1      43.886   4.506  11.362  0.00  0.00    +0.000 A 
ATOM     18  N   UNL     1      43.527   3.253  11.021  0.00  0.00    +0.000 NA
ATOM     19  C   UNL     1      44.182   2.706   9.962  0.00  0.00    +0.000 A 
ATOM     20  C   UNL     1      45.175   3.328   9.202  0.00  0.00    +0.000 A 
ATOM     21  C   UNL     1      45.493   4.630   9.606  0.00  0.00    +0.000 A 
BRANCH  20  22
ATOM     22  N   UNL     1      45.813   2.703   8.152  0.00  0.00    +0.000 N 
ATOM     23  C   UNL     1      45.837   1.241   7.984  0.00  0.00    +0.000 C 
ATOM     24  C   UNL     1      47.274   0.777   7.706  0.00  0.00    +0.000 C 
ATOM     25  O   UNL     1      47.843   1.466   6.580  0.00  0.00    +0.000 OA
ATOM     26  C   UNL     1      47.859   2.884   6.816  0.00  0.00    +0.000 C 
ATOM     27  C   UNL     1      46.442   3.440   7.046  0.00  0.00    +0.000 C 
ENDBRANCH  20  22
ENDBRANCH  15  16
ENDBRANCH   1  15
TORSDOF 6
ENDMDL
MODEL 7
REMARK VINA RESULT:    -6.062      2.092      6.926
REMARK INTER + INTRA:          -9.043
REMARK INTER:                  -8.744
REMARK INTRA:                  -0.299
REMARK UNBOUND:                -0.855
REMARK  Name = 
REMARK  6 active torsions:
REMARK  status: ('A' for Active; 'I' for Inactive)
REMARK    1  A    between atoms: C_2  and  C_4
REMARK    2  A    between atoms: C_7  and  N_8
REMARK    3  A    between atoms: N_8  and  C_9
REMARK    4  A    between atoms: C_9  and  C_10
REMARK    5  A    between atoms: C_10  and  C_11
REMARK    6  A    between atoms: C_15  and  N_16
REMARK                            x       y       z     vdW  Elec       q    Type
REMARK                         _______ _______ _______ _____ _____    ______ ____
ROOT
ATOM      1  C   UNL     1      43.175   7.365  11.216  0.00  0.00    +0.000 C 
ENDROOT
BRANCH   1   2
ATOM      2  N   UNL     1      44.565   7.053  10.883  0.00  0.00    +0.000 N 
ATOM      3  H   UNL     1      44.704   6.205  10.335  0.00  0.00    +0.000 HD
BRANCH   2   7
ATOM      4  C   UNL     1      47.739   7.552  13.633  0.00  0.00    +0.000 A 
ATOM      5  C   UNL     1      46.760   8.539  13.523  0.00  0.00    +0.000 A 
ATOM      6  C   UNL     1      45.698   8.377  12.628  0.00  0.00    +0.000 A 
ATOM      7  C   UNL     1      45.567   7.222  11.845  0.00  0.00    +0.000 A 
ATOM      8  C   UNL     1      46.572   6.246  11.955  0.00  0.00    +0.000 A 
ATOM      9  C   UNL     1      47.653   6.410  12.835  0.00  0.00    +0.000 A 
BRANCH   4  11
ATOM     10  N   UNL     1      50.132   7.394  14.049  0.00  0.00    +0.000 N 
ATOM     11  C   UNL     1      48.898   7.712  14.548  0.00  0.00    +0.000 C 
ATOM     12  O   UNL     1      48.768   8.141  15.687  0.00  0.00    +0.000 OA
ATOM     13  H   UNL     1      50.925   7.601  14.643  0.00  0.00    +0.000 HD
ATOM     14  H   UNL     1      50.302   7.279  13.062  0.00  0.00    +0.000 HD
ENDBRANCH   4  11
ENDBRANCH   2   7
ENDBRANCH   1   2
BRANCH   1  15
ATOM     15  C   UNL     1      42.440   6.122  11.732  0.00  0.00    +0.000 C 
BRANCH  15  16
ATOM     16  C   UNL     1      43.252   4.862  11.573  0.00  0.00    +0.000 A 
ATOM     17  C   UNL     1      43.591   4.084  12.670  0.00  0.00    +0.000 A 
ATOM     18  N   UNL     1      44.308   2.947  12.595  0.00  0.00    +0.000 NA
ATOM     19  C   UNL     1      44.713   2.571  11.353  0.00  0.00    +0.000 A 
ATOM     20  C   UNL     1      44.443   3.249  10.162  0.00  0.00    +0.000 A 
ATOM     21  C   UNL     1      43.687   4.419  10.313  0.00  0.00    +0.000 A 
BRANCH  20  22
ATOM     22  N   UNL     1      44.905   2.821   8.937  0.00  0.00    +0.000 N 
ATOM     23  C   UNL     1      45.199   1.410   8.639  0.00  0.00    +0.000 C 
ATOM     24  C   UNL     1      46.579   1.298   7.975  0.00  0.00    +0.000 C 
ATOM     25  O   UNL     1      46.673   2.134   6.809  0.00  0.00    +0.000 OA
ATOM     26  C   UNL     1      46.444   3.510   7.159  0.00  0.00    +0.000 C 
ATOM     27  C   UNL     1      45.050   3.716   7.780  0.00  0.00    +0.000 C 
ENDBRANCH  20  22
ENDBRANCH  15  16
ENDBRANCH   1  15
TORSDOF 6
ENDMDL
MODEL 8
REMARK VINA RESULT:    -6.014      3.794      6.045
REMARK INTER + INTRA:          -8.979
REMARK INTER:                  -8.032
REMARK INTRA:                  -0.947
REMARK UNBOUND:                -0.855
REMARK  Name = 
REMARK  6 active torsions:
REMARK  status: ('A' for Active; 'I' for Inactive)
REMARK    1  A    between atoms: C_2  and  C_4
REMARK    2  A    between atoms: C_7  and  N_8
REMARK    3  A    between atoms: N_8  and  C_9
REMARK    4  A    between atoms: C_9  and  C_10
REMARK    5  A    between atoms: C_10  and  C_11
REMARK    6  A    between atoms: C_15  and  N_16
REMARK                            x       y       z     vdW  Elec       q    Type
REMARK                         _______ _______ _______ _____ _____    ______ ____
ROOT
ATOM      1  C   UNL     1      47.674   8.138  12.058  0.00  0.00    +0.000 C 
ENDROOT
BRANCH   1   2
ATOM      2  N   UNL     1      46.470   7.716  12.775  0.00  0.00    +0.000 N 
ATOM      3  H   UNL     1      46.511   7.807  13.789  0.00  0.00    +0.000 HD
BRANCH   2   7
ATOM      4  C   UNL     1      44.613   4.142  11.486  0.00  0.00    +0.000 A 
ATOM      5  C   UNL     1      44.708   4.418  12.851  0.00  0.00    +0.000 A 
ATOM      6  C   UNL     1      45.306   5.604  13.287  0.00  0.00    +0.000 A 
ATOM      7  C   UNL     1      45.796   6.555  12.382  0.00  0.00    +0.000 A 
ATOM      8  C   UNL     1      45.710   6.253  11.013  0.00  0.00    +0.000 A 
ATOM      9  C   UNL     1      45.130   5.055  10.566  0.00  0.00    +0.000 A 
BRANCH   4  11
ATOM     10  N   UNL     1      44.646   2.257   9.948  0.00  0.00    +0.000 N 
ATOM     11  C   UNL     1      44.015   2.875  10.994  0.00  0.00    +0.000 C 
ATOM     12  O   UNL     1      43.024   2.381  11.517  0.00  0.00    +0.000 OA
ATOM     13  H   UNL     1      44.292   1.346   9.685  0.00  0.00    +0.000 HD
ATOM     14  H   UNL     1      45.582   2.497   9.663  0.00  0.00    +0.000 HD
ENDBRANCH   4  11
ENDBRANCH   2   7
ENDBRANCH   1   2
BRANCH   1  15
ATOM     15  C   UNL     1      48.925   7.475  12.646  0.00  0.00    +0.000 C 
BRANCH  15  16
ATOM     16  C   UNL     1      48.972   7.557  14.151  0.00  0.00    +0.000 A 
ATOM     17  C   UNL     1      49.181   8.766  14.797  0.00  0.00    +0.000 A 
ATOM     18  N   UNL     1      49.228   8.907  16.135  0.00  0.00    +0.000 NA
ATOM     19  C   UNL     1      49.062   7.773  16.867  0.00  0.00    +0.000 A 
ATOM     20  C   UNL     1      48.839   6.493  16.355  0.00  0.00    +0.000 A 
ATOM     21  C   UNL     1      48.794   6.420  14.957  0.00  0.00    +0.000 A 
BRANCH  20  22
ATOM     22  N   UNL     1      48.701   5.381  17.158  0.00  0.00    +0.000 N 
ATOM     23  C   UNL     1      49.847   4.610  17.664  0.00  0.00    +0.000 C 
ATOM     24  C   UNL     1      49.612   3.113  17.417  0.00  0.00    +0.000 C 
ATOM     25  O   UNL     1      48.366   2.674  17.984  0.00  0.00    +0.000 OA
ATOM     26  C   UNL     1      47.270   3.409  17.412  0.00  0.00    +0.000 C 
ATOM     27  C   UNL     1      47.401   4.921  17.669  0.00  0.00    +0.000 C 
ENDBRANCH  20  22
ENDBRANCH  15  16
ENDBRANCH   1  15
TORSDOF 6
ENDMDL
MODEL 9
REMARK VINA RESULT:    -5.653      4.260      6.867
REMARK INTER + INTRA:          -8.491
REMARK INTER:                  -7.540
REMARK INTRA:                  -0.951
REMARK UNBOUND:                -0.855
REMARK  Name = 
REMARK  6 active torsions:
REMARK  status: ('A' for Active; 'I' for Inactive)
REMARK    1  A    between atoms: C_2  and  C_4
REMARK    2  A    between atoms: C_7  and  N_8
REMARK    3  A    between atoms: N_8  and  C_9
REMARK    4  A    between atoms: C_9  and  C_10
REMARK    5  A    between atoms: C_10  and  C_11
REMARK    6  A    between atoms: C_15  and  N_16
REMARK                            x       y       z     vdW  Elec       q    Type
REMARK                         _______ _______ _______ _____ _____    ______ ____
ROOT
ATOM      1  C   UNL     1      48.820   8.336  12.848  0.00  0.00    +0.000 C 
ENDROOT
BRANCH   1   2
ATOM      2  N   UNL     1      48.672   6.941  12.431  0.00  0.00    +0.000 N 
ATOM      3  H   UNL     1      49.089   6.707  11.531  0.00  0.00    +0.000 HD
BRANCH   2   7
ATOM      4  C   UNL     1      45.007   4.869  12.828  0.00  0.00    +0.000 A 
ATOM      5  C   UNL     1      46.065   4.569  13.685  0.00  0.00    +0.000 A 
ATOM      6  C   UNL     1      47.276   5.259  13.573  0.00  0.00    +0.000 A 
ATOM      7  C   UNL     1      47.454   6.280  12.629  0.00  0.00    +0.000 A 
ATOM      8  C   UNL     1      46.385   6.556  11.761  0.00  0.00    +0.000 A 
ATOM      9  C   UNL     1      45.173   5.854  11.853  0.00  0.00    +0.000 A 
BRANCH   4  11
ATOM     10  N   UNL     1      43.764   2.784  12.652  0.00  0.00    +0.000 N 
ATOM     11  C   UNL     1      43.720   4.129  12.900  0.00  0.00    +0.000 C 
ATOM     12  O   UNL     1      42.672   4.683  13.200  0.00  0.00    +0.000 OA
ATOM     13  H   UNL     1      42.905   2.271  12.802  0.00  0.00    +0.000 HD
ATOM     14  H   UNL     1      44.627   2.263  12.648  0.00  0.00    +0.000 HD
ENDBRANCH   4  11
ENDBRANCH   2   7
ENDBRANCH   1   2
BRANCH   1  15
ATOM     15  C   UNL     1      49.927   8.481  13.898  0.00  0.00    +0.000 C 
BRANCH  15  16
ATOM     16  C   UNL     1      49.423   8.270  15.304  0.00  0.00    +0.000 A 
ATOM     17  C   UNL     1      49.099   9.345  16.118  0.00  0.00    +0.000 A 
ATOM     18  N   UNL     1      48.640   9.225  17.378  0.00  0.00    +0.000 NA
ATOM     19  C   UNL     1      48.503   7.957  17.850  0.00  0.00    +0.000 A 
ATOM     20  C   UNL     1      48.783   6.784  17.145  0.00  0.00    +0.000 A 
ATOM     21  C   UNL     1      49.249   6.983  15.839  0.00  0.00    +0.000 A 
BRANCH  20  22
ATOM     22  N   UNL     1      48.641   5.529  17.696  0.00  0.00    +0.000 N 
ATOM     23  C   UNL     1      49.777   4.739  18.197  0.00  0.00    +0.000 C 
ATOM     24  C   UNL     1      49.698   3.310  17.641  0.00  0.00    +0.000 C 
ATOM     25  O   UNL     1      48.433   2.697  17.940  0.00  0.00    +0.000 OA
ATOM     26  C   UNL     1      47.357   3.467  17.375  0.00  0.00    +0.000 C 
ATOM     27  C   UNL     1      47.331   4.903  17.930  0.00  0.00    +0.000 C 
ENDBRANCH  20  22
ENDBRANCH  15  16
ENDBRANCH   1  15
TORSDOF 6
ENDMDL
