MODEL 1
REMARK VINA RESULT:    -8.153      0.000      0.000
REMARK INTER + INTRA:         -11.908
REMARK INTER:                 -11.013
REMARK INTRA:                  -0.896
REMARK UNBOUND:                -0.896
REMARK  Name = 
REMARK  8 active torsions:
REMARK  status: ('A' for Active; 'I' for Inactive)
REMARK    1  A    between atoms: C_1  and  N_2
REMARK    2  A    between atoms: N_2  and  C_3
REMARK    3  A    between atoms: N_2  and  C_4
REMARK    4  A    between atoms: C_4  and  C_5
REMARK    5  A    between atoms: C_5  and  C_7
REMARK    6  A    between atoms: C_10  and  C_11
REMARK    7  A    between atoms: C_11  and  N_12
REMARK    8  A    between atoms: C_17  and  C_18
REMARK                            x       y       z     vdW  Elec       q    Type
REMARK                         _______ _______ _______ _____ _____    ______ ____
ROOT
ATOM      1  N   UNL     1      43.873   4.298  10.522  0.00  0.00    +0.000 N 
ATOM      2  C   UNL     1      43.395   3.163  11.123  0.00  0.00    +0.000 A 
ATOM      3  N   UNL     1      43.871   2.076  10.562  0.00  0.00    +0.000 NA
ATOM      4  C   UNL     1      44.682   2.520   9.551  0.00  0.00    +0.000 A 
ATOM      5  C   UNL     1      45.563   1.798   8.738  0.00  0.00    +0.000 A 
ATOM      6  C   UNL     1      46.348   2.488   7.797  0.00  0.00    +0.000 A 
ATOM      7  C   UNL     1      46.139   3.860   7.585  0.00  0.00    +0.000 A 
ATOM      8  C   UNL     1      45.255   4.597   8.390  0.00  0.00    +0.000 A 
ATOM      9  C   UNL     1      44.598   3.902   9.413  0.00  0.00    +0.000 A 
ENDROOT
BRANCH   6  10
ATOM     10  C   UNL     1      47.444   1.715   7.146  0.00  0.00    +0.000 C 
ATOM     11  N   UNL     1      48.442   2.390   6.501  0.00  0.00    +0.000 N 
ATOM     12  O   UNL     1      47.497   0.492   7.218  0.00  0.00    +0.000 OA
ATOM     13  H   UNL     1      48.491   3.386   6.370  0.00  0.00    +0.000 HD
ATOM     14  H   UNL     1      49.199   1.824   6.138  0.00  0.00    +0.000 HD
ENDBRANCH   6  10
BRANCH   1  15
ATOM     15  C   UNL     1      44.022   5.593  11.176  0.00  0.00    +0.000 C 
BRANCH  15  19
ATOM     16  C   UNL     1      47.791   6.368  13.171  0.00  0.00    +0.000 A 
ATOM     17  C   UNL     1      47.485   7.010  11.968  0.00  0.00    +0.000 A 
ATOM     18  C   UNL     1      46.275   6.746  11.312  0.00  0.00    +0.000 A 
ATOM     19  C   UNL     1      45.356   5.826  11.839  0.00  0.00    +0.000 A 
ATOM     20  C   UNL     1      45.670   5.167  13.032  0.00  0.00    +0.000 A 
ATOM     21  C   UNL     1      46.867   5.446  13.695  0.00  0.00    +0.000 A 
BRANCH  16  22
ATOM     22  C   UNL     1      49.050   6.696  13.953  0.00  0.00    +0.000 C 
ATOM     23  F   UNL     1      49.487   7.944  13.604  0.00  0.00    +0.000 F 
BRANCH  22  24
ATOM     24  C   UNL     1      48.813   6.649  15.488  0.00  0.00    +0.000 C 
BRANCH  24  26
ATOM     25  C   UNL     1      50.599   5.950  17.006  0.00  0.00    +0.000 C 
ATOM     26  N   UNL     1      49.432   5.520  16.230  0.00  0.00    +0.000 NA
ATOM     27  C   UNL     1      48.443   4.927  17.138  0.00  0.00    +0.000 C 
ENDBRANCH  24  26
ENDBRANCH  22  24
ENDBRANCH  16  22
ENDBRANCH  15  19
ENDBRANCH   1  15
TORSDOF 6
ENDMDL
MODEL 2
REMARK VINA RESULT:    -7.500      1.072      1.327
REMARK INTER + INTRA:         -11.027
REMARK INTER:                 -10.097
REMARK INTRA:                  -0.929
REMARK UNBOUND:                -0.896
REMARK  Name = 
REMARK  8 active torsions:
REMARK  status: ('A' for Active; 'I' for Inactive)
REMARK    1  A    between atoms: C_1  and  N_2
REMARK    2  A    between atoms: N_2  and  C_3
REMARK    3  A    between atoms: N_2  and  C_4
REMARK    4  A    between atoms: C_4  and  C_5
REMARK    5  A    between atoms: C_5  and  C_7
REMARK    6  A    between atoms: C_10  and  C_11
REMARK    7  A    between atoms: C_11  and  N_12
REMARK    8  A    between atoms: C_17  and  C_18
REMARK                            x       y       z     vdW  Elec       q    Type
REMARK                         _______ _______ _______ _____ _____    ______ ____
ROOT
ATOM      1  N   UNL     1      43.565   4.509  10.948  0.00  0.00    +0.000 N 
ATOM      2  C   UNL     1      43.043   3.446  11.636  0.00  0.00    +0.000 A 
ATOM      3  N   UNL     1      43.434   2.299  11.132  0.00  0.00    +0.000 NA
ATOM      4  C   UNL     1      44.233   2.628  10.069  0.00  0.00    +0.000 A 
ATOM      5  C   UNL     1      45.040   1.804   9.277  0.00  0.00    +0.000 A 
ATOM      6  C   UNL     1      45.830   2.384   8.268  0.00  0.00    +0.000 A 
ATOM      7  C   UNL     1      45.695   3.751   7.975  0.00  0.00    +0.000 A 
ATOM      8  C   UNL     1      44.886   4.589   8.758  0.00  0.00    +0.000 A 
ATOM      9  C   UNL     1      44.225   4.001   9.845  0.00  0.00    +0.000 A 
ENDROOT
BRANCH   6  10
ATOM     10  C   UNL     1      46.855   1.506   7.634  0.00  0.00    +0.000 C 
ATOM     11  N   UNL     1      47.851   2.075   6.892  0.00  0.00    +0.000 N 
ATOM     12  O   UNL     1      46.853   0.292   7.804  0.00  0.00    +0.000 OA
ATOM     13  H   UNL     1      47.942   3.054   6.679  0.00  0.00    +0.000 HD
ATOM     14  H   UNL     1      48.562   1.444   6.543  0.00  0.00    +0.000 HD
ENDBRANCH   6  10
BRANCH   1  15
ATOM     15  C   UNL     1      43.813   5.831  11.512  0.00  0.00    +0.000 C 
BRANCH  15  19
ATOM     16  C   UNL     1      47.844   6.643  12.884  0.00  0.00    +0.000 A 
ATOM     17  C   UNL     1      47.273   7.423  11.874  0.00  0.00    +0.000 A 
ATOM     18  C   UNL     1      45.977   7.149  11.416  0.00  0.00    +0.000 A 
ATOM     19  C   UNL     1      45.234   6.084  11.949  0.00  0.00    +0.000 A 
ATOM     20  C   UNL     1      45.813   5.291  12.945  0.00  0.00    +0.000 A 
ATOM     21  C   UNL     1      47.097   5.577  13.415  0.00  0.00    +0.000 A 
BRANCH  16  22
ATOM     22  C   UNL     1      49.208   6.967  13.466  0.00  0.00    +0.000 C 
ATOM     23  F   UNL     1      50.061   7.317  12.455  0.00  0.00    +0.000 F 
BRANCH  22  24
ATOM     24  C   UNL     1      49.142   8.123  14.501  0.00  0.00    +0.000 C 
BRANCH  24  26
ATOM     25  C   UNL     1      49.997   6.581  16.197  0.00  0.00    +0.000 C 
ATOM     26  N   UNL     1      49.962   7.971  15.732  0.00  0.00    +0.000 NA
ATOM     27  C   UNL     1      51.334   8.423  15.468  0.00  0.00    +0.000 C 
ENDBRANCH  24  26
ENDBRANCH  22  24
ENDBRANCH  16  22
ENDBRANCH  15  19
ENDBRANCH   1  15
TORSDOF 6
ENDMDL
MODEL 3
REMARK VINA RESULT:    -6.953      1.983      2.548
REMARK INTER + INTRA:         -10.287
REMARK INTER:                  -9.479
REMARK INTRA:                  -0.808
REMARK UNBOUND:                -0.896
REMARK  Name = 
REMARK  8 active torsions:
REMARK  status: ('A' for Active; 'I' for Inactive)
REMARK    1  A    between atoms: C_1  and  N_2
REMARK    2  A    between atoms: N_2  and  C_3
REMARK    3  A    between atoms: N_2  and  C_4
REMARK    4  A    between atoms: C_4  and  C_5
REMARK    5  A    between atoms: C_5  and  C_7
REMARK    6  A    between atoms: C_10  and  C_11
REMARK    7  A    between atoms: C_11  and  N_12
REMARK    8  A    between atoms: C_17  and  C_18
REMARK                            x       y       z     vdW  Elec       q    Type
REMARK                         _______ _______ _______ _____ _____    ______ ____
ROOT
ATOM      1  N   UNL     1      43.444   4.578  10.957  0.00  0.00    +0.000 N 
ATOM      2  C   UNL     1      43.029   3.502  11.697  0.00  0.00    +0.000 A 
ATOM      3  N   UNL     1      43.496   2.372  11.218  0.00  0.00    +0.000 NA
ATOM      4  C   UNL     1      44.234   2.725  10.119  0.00  0.00    +0.000 A 
ATOM      5  C   UNL     1      45.079   1.940   9.328  0.00  0.00    +0.000 A 
ATOM      6  C   UNL     1      45.790   2.545   8.276  0.00  0.00    +0.000 A 
ATOM      7  C   UNL     1      45.538   3.885   7.943  0.00  0.00    +0.000 A 
ATOM      8  C   UNL     1      44.687   4.685   8.724  0.00  0.00    +0.000 A 
ATOM      9  C   UNL     1      44.109   4.085   9.850  0.00  0.00    +0.000 A 
ENDROOT
BRANCH   6  10
ATOM     10  C   UNL     1      46.862   1.729   7.638  0.00  0.00    +0.000 C 
ATOM     11  N   UNL     1      46.765   0.366   7.660  0.00  0.00    +0.000 N 
ATOM     12  O   UNL     1      47.802   2.253   7.051  0.00  0.00    +0.000 OA
ATOM     13  H   UNL     1      46.047  -0.166   8.122  0.00  0.00    +0.000 HD
ATOM     14  H   UNL     1      47.480  -0.139   7.152  0.00  0.00    +0.000 HD
ENDBRANCH   6  10
BRANCH   1  15
ATOM     15  C   UNL     1      43.602   5.935  11.469  0.00  0.00    +0.000 C 
BRANCH  15  19
ATOM     16  C   UNL     1      47.601   7.061  12.706  0.00  0.00    +0.000 A 
ATOM     17  C   UNL     1      46.784   7.979  12.040  0.00  0.00    +0.000 A 
ATOM     18  C   UNL     1      45.498   7.611  11.622  0.00  0.00    +0.000 A 
ATOM     19  C   UNL     1      45.011   6.315  11.850  0.00  0.00    +0.000 A 
ATOM     20  C   UNL     1      45.835   5.389  12.498  0.00  0.00    +0.000 A 
ATOM     21  C   UNL     1      47.109   5.763  12.931  0.00  0.00    +0.000 A 
BRANCH  16  22
ATOM     22  C   UNL     1      48.962   7.453  13.251  0.00  0.00    +0.000 C 
ATOM     23  F   UNL     1      49.348   6.548  14.201  0.00  0.00    +0.000 F 
BRANCH  22  24
ATOM     24  C   UNL     1      50.043   7.513  12.136  0.00  0.00    +0.000 C 
BRANCH  24  26
ATOM     25  C   UNL     1      51.488   9.013  10.852  0.00  0.00    +0.000 C 
ATOM     26  N   UNL     1      50.998   8.651  12.186  0.00  0.00    +0.000 NA
ATOM     27  C   UNL     1      50.343   9.817  12.791  0.00  0.00    +0.000 C 
ENDBRANCH  24  26
ENDBRANCH  22  24
ENDBRANCH  16  22
ENDBRANCH  15  19
ENDBRANCH   1  15
TORSDOF 6
ENDMDL
MODEL 4
REMARK VINA RESULT:    -6.139      3.763      6.150
REMARK INTER + INTRA:          -9.188
REMARK INTER:                  -8.486
REMARK INTRA:                  -0.702
REMARK UNBOUND:                -0.896
REMARK  Name = 
REMARK  8 active torsions:
REMARK  status: ('A' for Active; 'I' for Inactive)
REMARK    1  A    between atoms: C_1  and  N_2
REMARK    2  A    between atoms: N_2  and  C_3
REMARK    3  A    between atoms: N_2  and  C_4
REMARK    4  A    between atoms: C_4  and  C_5
REMARK    5  A    between atoms: C_5  and  C_7
REMARK    6  A    between atoms: C_10  and  C_11
REMARK    7  A    between atoms: C_11  and  N_12
REMARK    8  A    between atoms: C_17  and  C_18
REMARK                            x       y       z     vdW  Elec       q    Type
REMARK                         _______ _______ _______ _____ _____    ______ ____
ROOT
ATOM      1  N   UNL     1      47.519   5.257  14.669  0.00  0.00    +0.000 N 
ATOM      2  C   UNL     1      48.017   6.489  14.336  0.00  0.00    +0.000 A 
ATOM      3  N   UNL     1      47.563   6.901  13.175  0.00  0.00    +0.000 NA
ATOM      4  C   UNL     1      46.746   5.894  12.731  0.00  0.00    +0.000 A 
ATOM      5  C   UNL     1      45.882   5.873  11.631  0.00  0.00    +0.000 A 
ATOM      6  C   UNL     1      45.087   4.736  11.408  0.00  0.00    +0.000 A 
ATOM      7  C   UNL     1      45.269   3.589  12.198  0.00  0.00    +0.000 A 
ATOM      8  C   UNL     1      46.137   3.594  13.302  0.00  0.00    +0.000 A 
ATOM      9  C   UNL     1      46.805   4.793  13.580  0.00  0.00    +0.000 A 
ENDROOT
BRANCH   6  10
ATOM     10  C   UNL     1      44.007   4.865  10.387  0.00  0.00    +0.000 C 
ATOM     11  N   UNL     1      44.248   4.456   9.106  0.00  0.00    +0.000 N 
ATOM     12  O   UNL     1      42.892   5.282  10.683  0.00  0.00    +0.000 OA
ATOM     13  H   UNL     1      45.125   4.112   8.753  0.00  0.00    +0.000 HD
ATOM     14  H   UNL     1      43.462   4.498   8.470  0.00  0.00    +0.000 HD
ENDBRANCH   6  10
BRANCH   1  15
ATOM     15  C   UNL     1      47.343   4.765  16.031  0.00  0.00    +0.000 C 
BRANCH  15  19
ATOM     16  C   UNL     1      50.673   2.359  17.415  0.00  0.00    +0.000 A 
ATOM     17  C   UNL     1      49.597   1.760  16.754  0.00  0.00    +0.000 A 
ATOM     18  C   UNL     1      48.511   2.533  16.323  0.00  0.00    +0.000 A 
ATOM     19  C   UNL     1      48.474   3.917  16.556  0.00  0.00    +0.000 A 
ATOM     20  C   UNL     1      49.541   4.514  17.235  0.00  0.00    +0.000 A 
ATOM     21  C   UNL     1      50.632   3.745  17.647  0.00  0.00    +0.000 A 
BRANCH  16  22
ATOM     22  C   UNL     1      51.904   1.567  17.815  0.00  0.00    +0.000 C 
ATOM     23  F   UNL     1      52.247   0.717  16.798  0.00  0.00    +0.000 F 
BRANCH  22  24
ATOM     24  C   UNL     1      53.113   2.489  18.137  0.00  0.00    +0.000 C 
BRANCH  24  26
ATOM     25  C   UNL     1      55.298   1.908  19.070  0.00  0.00    +0.000 C 
ATOM     26  N   UNL     1      53.887   2.176  19.366  0.00  0.00    +0.000 NA
ATOM     27  C   UNL     1      53.799   3.303  20.303  0.00  0.00    +0.000 C 
ENDBRANCH  24  26
ENDBRANCH  22  24
ENDBRANCH  16  22
ENDBRANCH  15  19
ENDBRANCH   1  15
TORSDOF 6
ENDMDL
MODEL 5
REMARK VINA RESULT:    -5.692      3.968      7.916
REMARK INTER + INTRA:          -8.584
REMARK INTER:                  -7.815
REMARK INTRA:                  -0.770
REMARK UNBOUND:                -0.896
REMARK  Name = 
REMARK  8 active torsions:
REMARK  status: ('A' for Active; 'I' for Inactive)
REMARK    1  A    between atoms: C_1  and  N_2
REMARK    2  A    between atoms: N_2  and  C_3
REMARK    3  A    between atoms: N_2  and  C_4
REMARK    4  A    between atoms: C_4  and  C_5
REMARK    5  A    between atoms: C_5  and  C_7
REMARK    6  A    between atoms: C_10  and  C_11
REMARK    7  A    between atoms: C_11  and  N_12
REMARK    8  A    between atoms: C_17  and  C_18
REMARK                            x       y       z     vdW  Elec       q    Type
REMARK                         _______ _______ _______ _____ _____    ______ ____
ROOT
ATOM      1  N   UNL     1      47.768   6.553  13.638  0.00  0.00    +0.000 N 
ATOM      2  C   UNL     1      48.173   6.219  14.903  0.00  0.00    +0.000 A 
ATOM      3  N   UNL     1      49.346   6.731  15.192  0.00  0.00    +0.000 NA
ATOM      4  C   UNL     1      49.725   7.416  14.067  0.00  0.00    +0.000 A 
ATOM      5  C   UNL     1      50.810   8.280  13.878  0.00  0.00    +0.000 A 
ATOM      6  C   UNL     1      50.962   8.925  12.638  0.00  0.00    +0.000 A 
ATOM      7  C   UNL     1      50.116   8.592  11.568  0.00  0.00    +0.000 A 
ATOM      8  C   UNL     1      49.026   7.723  11.742  0.00  0.00    +0.000 A 
ATOM      9  C   UNL     1      48.821   7.211  13.029  0.00  0.00    +0.000 A 
ENDROOT
BRANCH   6  10
ATOM     10  C   UNL     1      51.971  10.021  12.574  0.00  0.00    +0.000 C 
ATOM     11  N   UNL     1      52.723  10.169  11.442  0.00  0.00    +0.000 N 
ATOM     12  O   UNL     1      52.108  10.821  13.493  0.00  0.00    +0.000 OA
ATOM     13  H   UNL     1      52.702   9.566  10.638  0.00  0.00    +0.000 HD
ATOM     14  H   UNL     1      53.342  10.970  11.421  0.00  0.00    +0.000 HD
ENDBRANCH   6  10
BRANCH   1  15
ATOM     15  C   UNL     1      46.380   6.653  13.201  0.00  0.00    +0.000 C 
BRANCH  15  19
ATOM     16  C   UNL     1      45.349   3.772  10.131  0.00  0.00    +0.000 A 
ATOM     17  C   UNL     1      45.641   5.095   9.787  0.00  0.00    +0.000 A 
ATOM     18  C   UNL     1      45.957   6.032  10.780  0.00  0.00    +0.000 A 
ATOM     19  C   UNL     1      45.971   5.669  12.135  0.00  0.00    +0.000 A 
ATOM     20  C   UNL     1      45.658   4.350  12.483  0.00  0.00    +0.000 A 
ATOM     21  C   UNL     1      45.364   3.412  11.491  0.00  0.00    +0.000 A 
BRANCH  16  22
ATOM     22  C   UNL     1      45.092   2.712   9.077  0.00  0.00    +0.000 C 
ATOM     23  F   UNL     1      43.764   2.381   9.080  0.00  0.00    +0.000 F 
BRANCH  22  24
ATOM     24  C   UNL     1      45.494   3.192   7.655  0.00  0.00    +0.000 C 
BRANCH  24  26
ATOM     25  C   UNL     1      47.012   1.284   7.458  0.00  0.00    +0.000 C 
ATOM     26  N   UNL     1      46.787   2.692   7.117  0.00  0.00    +0.000 NA
ATOM     27  C   UNL     1      46.803   2.842   5.657  0.00  0.00    +0.000 C 
ENDBRANCH  24  26
ENDBRANCH  22  24
ENDBRANCH  16  22
ENDBRANCH  15  19
ENDBRANCH   1  15
TORSDOF 6
ENDMDL
MODEL 6
REMARK VINA RESULT:    -5.683      3.216      4.451
REMARK INTER + INTRA:          -8.572
REMARK INTER:                  -7.721
REMARK INTRA:                  -0.850
REMARK UNBOUND:                -0.896
REMARK  Name = 
REMARK  8 active torsions:
REMARK  status: ('A' for Active; 'I' for Inactive)
REMARK    1  A    between atoms: C_1  and  N_2
REMARK    2  A    between atoms: N_2  and  C_3
REMARK    3  A    between atoms: N_2  and  C_4
REMARK    4  A    between atoms: C_4  and  C_5
REMARK    5  A    between atoms: C_5  and  C_7
REMARK    6  A    between atoms: C_10  and  C_11
REMARK    7  A    between atoms: C_11  and  N_12
REMARK    8  A    between atoms: C_17  and  C_18
REMARK                            x       y       z     vdW  Elec       q    Type
REMARK                         _______ _______ _______ _____ _____    ______ ____
ROOT
ATOM      1  N   UNL     1      45.536   6.013  13.190  0.00  0.00    +0.000 N 
ATOM      2  C   UNL     1      46.168   5.078  13.967  0.00  0.00    +0.000 A 
ATOM      3  N   UNL     1      46.103   3.879  13.437  0.00  0.00    +0.000 NA
ATOM      4  C   UNL     1      45.393   4.037  12.276  0.00  0.00    +0.000 A 
ATOM      5  C   UNL     1      45.165   3.122  11.243  0.00  0.00    +0.000 A 
ATOM      6  C   UNL     1      44.449   3.536  10.106  0.00  0.00    +0.000 A 
ATOM      7  C   UNL     1      43.853   4.808  10.081  0.00  0.00    +0.000 A 
ATOM      8  C   UNL     1      44.069   5.736  11.113  0.00  0.00    +0.000 A 
ATOM      9  C   UNL     1      44.907   5.337  12.161  0.00  0.00    +0.000 A 
ENDROOT
BRANCH   6  10
ATOM     10  C   UNL     1      44.459   2.612   8.936  0.00  0.00    +0.000 C 
ATOM     11  N   UNL     1      44.426   3.135   7.674  0.00  0.00    +0.000 N 
ATOM     12  O   UNL     1      44.545   1.398   9.079  0.00  0.00    +0.000 OA
ATOM     13  H   UNL     1      44.343   4.110   7.443  0.00  0.00    +0.000 HD
ATOM     14  H   UNL     1      44.507   2.471   6.915  0.00  0.00    +0.000 HD
ENDBRANCH   6  10
BRANCH   1  15
ATOM     15  C   UNL     1      45.869   7.433  13.151  0.00  0.00    +0.000 C 
BRANCH  15  19
ATOM     16  C   UNL     1      50.026   8.465  12.487  0.00  0.00    +0.000 A 
ATOM     17  C   UNL     1      49.306   7.776  11.507  0.00  0.00    +0.000 A 
ATOM     18  C   UNL     1      47.967   7.425  11.728  0.00  0.00    +0.000 A 
ATOM     19  C   UNL     1      47.328   7.743  12.937  0.00  0.00    +0.000 A 
ATOM     20  C   UNL     1      48.055   8.414  13.926  0.00  0.00    +0.000 A 
ATOM     21  C   UNL     1      49.383   8.781  13.697  0.00  0.00    +0.000 A 
BRANCH  16  22
ATOM     22  C   UNL     1      51.447   8.940  12.246  0.00  0.00    +0.000 C 
ATOM     23  F   UNL     1      52.308   8.197  13.007  0.00  0.00    +0.000 F 
BRANCH  22  24
ATOM     24  C   UNL     1      51.857   8.823  10.752  0.00  0.00    +0.000 C 
BRANCH  24  26
ATOM     25  C   UNL     1      52.666   6.741   9.753  0.00  0.00    +0.000 C 
ATOM     26  N   UNL     1      53.041   7.979  10.444  0.00  0.00    +0.000 NA
ATOM     27  C   UNL     1      53.978   8.733   9.603  0.00  0.00    +0.000 C 
ENDBRANCH  24  26
ENDBRANCH  22  24
ENDBRANCH  16  22
ENDBRANCH  15  19
ENDBRANCH   1  15
TORSDOF 6
ENDMDL
MODEL 7
REMARK VINA RESULT:    -5.550      3.767      5.844
REMARK INTER + INTRA:          -8.393
REMARK INTER:                  -7.526
REMARK INTRA:                  -0.867
REMARK UNBOUND:                -0.896
REMARK  Name = 
REMARK  8 active torsions:
REMARK  status: ('A' for Active; 'I' for Inactive)
REMARK    1  A    between atoms: C_1  and  N_2
REMARK    2  A    between atoms: N_2  and  C_3
REMARK    3  A    between atoms: N_2  and  C_4
REMARK    4  A    between atoms: C_4  and  C_5
REMARK    5  A    between atoms: C_5  and  C_7
REMARK    6  A    between atoms: C_10  and  C_11
REMARK    7  A    between atoms: C_11  and  N_12
REMARK    8  A    between atoms: C_17  and  C_18
REMARK                            x       y       z     vdW  Elec       q    Type
REMARK                         _______ _______ _______ _____ _____    ______ ____
ROOT
ATOM      1  N   UNL     1      47.169   7.019  13.665  0.00  0.00    +0.000 N 
ATOM      2  C   UNL     1      47.796   5.962  14.267  0.00  0.00    +0.000 A 
ATOM      3  N   UNL     1      47.306   4.811  13.868  0.00  0.00    +0.000 NA
ATOM      4  C   UNL     1      46.315   5.133  12.978  0.00  0.00    +0.000 A 
ATOM      5  C   UNL     1      45.576   4.298  12.133  0.00  0.00    +0.000 A 
ATOM      6  C   UNL     1      44.643   4.871  11.251  0.00  0.00    +0.000 A 
ATOM      7  C   UNL     1      44.362   6.245  11.325  0.00  0.00    +0.000 A 
ATOM      8  C   UNL     1      45.092   7.094  12.172  0.00  0.00    +0.000 A 
ATOM      9  C   UNL     1      46.113   6.509  12.932  0.00  0.00    +0.000 A 
ENDROOT
BRANCH   6  10
ATOM     10  C   UNL     1      44.077   3.974  10.202  0.00  0.00    +0.000 C 
ATOM     11  N   UNL     1      44.039   4.406   8.906  0.00  0.00    +0.000 N 
ATOM     12  O   UNL     1      43.692   2.841  10.467  0.00  0.00    +0.000 OA
ATOM     13  H   UNL     1      44.315   5.317   8.581  0.00  0.00    +0.000 HD
ATOM     14  H   UNL     1      43.712   3.735   8.223  0.00  0.00    +0.000 HD
ENDBRANCH   6  10
BRANCH   1  15
ATOM     15  C   UNL     1      47.772   8.326  13.427  0.00  0.00    +0.000 C 
BRANCH  15  19
ATOM     16  C   UNL     1      51.688   8.092  11.583  0.00  0.00    +0.000 A 
ATOM     17  C   UNL     1      51.549   8.589  12.882  0.00  0.00    +0.000 A 
ATOM     18  C   UNL     1      50.281   8.683  13.473  0.00  0.00    +0.000 A 
ATOM     19  C   UNL     1      49.129   8.296  12.771  0.00  0.00    +0.000 A 
ATOM     20  C   UNL     1      49.265   7.819  11.463  0.00  0.00    +0.000 A 
ATOM     21  C   UNL     1      50.530   7.706  10.883  0.00  0.00    +0.000 A 
BRANCH  16  22
ATOM     22  C   UNL     1      53.051   7.893  10.947  0.00  0.00    +0.000 C 
ATOM     23  F   UNL     1      53.979   7.660  11.925  0.00  0.00    +0.000 F 
BRANCH  22  24
ATOM     24  C   UNL     1      53.060   6.705   9.944  0.00  0.00    +0.000 C 
BRANCH  24  26
ATOM     25  C   UNL     1      52.528   6.663   7.557  0.00  0.00    +0.000 C 
ATOM     26  N   UNL     1      53.539   6.993   8.567  0.00  0.00    +0.000 NA
ATOM     27  C   UNL     1      53.885   8.414   8.453  0.00  0.00    +0.000 C 
ENDBRANCH  24  26
ENDBRANCH  22  24
ENDBRANCH  16  22
ENDBRANCH  15  19
ENDBRANCH   1  15
TORSDOF 6
ENDMDL
MODEL 8
REMARK VINA RESULT:    -5.458      3.423      5.817
REMARK INTER + INTRA:          -8.268
REMARK INTER:                  -7.483
REMARK INTRA:                  -0.785
REMARK UNBOUND:                -0.896
REMARK  Name = 
REMARK  8 active torsions:
REMARK  status: ('A' for Active; 'I' for Inactive)
REMARK    1  A    between atoms: C_1  and  N_2
REMARK    2  A    between atoms: N_2  and  C_3
REMARK    3  A    between atoms: N_2  and  C_4
REMARK    4  A    between atoms: C_4  and  C_5
REMARK    5  A    between atoms: C_5  and  C_7
REMARK    6  A    between atoms: C_10  and  C_11
REMARK    7  A    between atoms: C_11  and  N_12
REMARK    8  A    between atoms: C_17  and  C_18
REMARK                            x       y       z     vdW  Elec       q    Type
REMARK                         _______ _______ _______ _____ _____    ______ ____
ROOT
ATOM      1  N   UNL     1      48.183   7.099  13.543  0.00  0.00    +0.000 N 
ATOM      2  C   UNL     1      48.664   7.801  12.470  0.00  0.00    +0.000 A 
ATOM      3  N   UNL     1      47.991   7.538  11.374  0.00  0.00    +0.000 NA
ATOM      4  C   UNL     1      47.042   6.623  11.746  0.00  0.00    +0.000 A 
ATOM      5  C   UNL     1      45.958   6.122  11.016  0.00  0.00    +0.000 A 
ATOM      6  C   UNL     1      45.071   5.226  11.637  0.00  0.00    +0.000 A 
ATOM      7  C   UNL     1      45.357   4.736  12.922  0.00  0.00    +0.000 A 
ATOM      8  C   UNL     1      46.444   5.226  13.665  0.00  0.00    +0.000 A 
ATOM      9  C   UNL     1      47.223   6.225  13.067  0.00  0.00    +0.000 A 
ENDROOT
BRANCH   6  10
ATOM     10  C   UNL     1      43.803   4.929  10.911  0.00  0.00    +0.000 C 
ATOM     11  N   UNL     1      43.842   4.722   9.560  0.00  0.00    +0.000 N 
ATOM     12  O   UNL     1      42.736   4.817  11.503  0.00  0.00    +0.000 OA
ATOM     13  H   UNL     1      44.656   4.801   8.976  0.00  0.00    +0.000 HD
ATOM     14  H   UNL     1      42.968   4.453   9.126  0.00  0.00    +0.000 HD
ENDBRANCH   6  10
BRANCH   1  15
ATOM     15  C   UNL     1      48.282   7.524  14.935  0.00  0.00    +0.000 C 
BRANCH  15  19
ATOM     16  C   UNL     1      51.045   5.355  17.475  0.00  0.00    +0.000 A 
ATOM     17  C   UNL     1      51.508   6.374  16.638  0.00  0.00    +0.000 A 
ATOM     18  C   UNL     1      50.619   7.064  15.802  0.00  0.00    +0.000 A 
ATOM     19  C   UNL     1      49.254   6.738  15.777  0.00  0.00    +0.000 A 
ATOM     20  C   UNL     1      48.793   5.705  16.599  0.00  0.00    +0.000 A 
ATOM     21  C   UNL     1      49.676   5.032  17.446  0.00  0.00    +0.000 A 
BRANCH  16  22
ATOM     22  C   UNL     1      51.962   4.650  18.457  0.00  0.00    +0.000 C 
ATOM     23  F   UNL     1      51.217   4.128  19.479  0.00  0.00    +0.000 F 
BRANCH  22  24
ATOM     24  C   UNL     1      52.773   3.509  17.783  0.00  0.00    +0.000 C 
BRANCH  24  26
ATOM     25  C   UNL     1      51.220   1.682  17.301  0.00  0.00    +0.000 C 
ATOM     26  N   UNL     1      52.367   2.116  18.105  0.00  0.00    +0.000 NA
ATOM     27  C   UNL     1      53.494   1.207  17.863  0.00  0.00    +0.000 C 
ENDBRANCH  24  26
ENDBRANCH  22  24
ENDBRANCH  16  22
ENDBRANCH  15  19
ENDBRANCH   1  15
TORSDOF 6
ENDMDL
MODEL 9
REMARK VINA RESULT:    -5.398      3.870      7.775
REMARK INTER + INTRA:          -8.186
REMARK INTER:                  -7.392
REMARK INTRA:                  -0.795
REMARK UNBOUND:                -0.896
REMARK  Name = 
REMARK  8 active torsions:
REMARK  status: ('A' for Active; 'I' for Inactive)
REMARK    1  A    between atoms: C_1  and  N_2
REMARK    2  A    between atoms: N_2  and  C_3
REMARK    3  A    between atoms: N_2  and  C_4
REMARK    4  A    between atoms: C_4  and  C_5
REMARK    5  A    between atoms: C_5  and  C_7
REMARK    6  A    between atoms: C_10  and  C_11
REMARK    7  A    between atoms: C_11  and  N_12
REMARK    8  A    between atoms: C_17  and  C_18
REMARK                            x       y       z     vdW  Elec       q    Type
REMARK                         _______ _______ _______ _____ _____    ______ ____
ROOT
ATOM      1  N   UNL     1      48.573   7.807  13.891  0.00  0.00    +0.000 N 
ATOM      2  C   UNL     1      49.069   7.802  15.167  0.00  0.00    +0.000 A 
ATOM      3  N   UNL     1      50.369   7.984  15.186  0.00  0.00    +0.000 NA
ATOM      4  C   UNL     1      50.734   8.103  13.871  0.00  0.00    +0.000 A 
ATOM      5  C   UNL     1      51.968   8.467  13.322  0.00  0.00    +0.000 A 
ATOM      6  C   UNL     1      52.089   8.584  11.926  0.00  0.00    +0.000 A 
ATOM      7  C   UNL     1      51.022   8.199  11.098  0.00  0.00    +0.000 A 
ATOM      8  C   UNL     1      49.779   7.826  11.634  0.00  0.00    +0.000 A 
ATOM      9  C   UNL     1      49.652   7.861  13.029  0.00  0.00    +0.000 A 
ENDROOT
BRANCH   6  10
ATOM     10  C   UNL     1      53.336   9.220  11.413  0.00  0.00    +0.000 C 
ATOM     11  N   UNL     1      53.750  10.405  11.953  0.00  0.00    +0.000 N 
ATOM     12  O   UNL     1      54.024   8.681  10.553  0.00  0.00    +0.000 OA
ATOM     13  H   UNL     1      53.259  10.938  12.651  0.00  0.00    +0.000 HD
ATOM     14  H   UNL     1      54.638  10.759  11.622  0.00  0.00    +0.000 HD
ENDBRANCH   6  10
BRANCH   1  15
ATOM     15  C   UNL     1      47.214   8.189  13.522  0.00  0.00    +0.000 C 
BRANCH  15  19
ATOM     16  C   UNL     1      44.984   5.051  11.528  0.00  0.00    +0.000 A 
ATOM     17  C   UNL     1      44.721   6.394  11.243  0.00  0.00    +0.000 A 
ATOM     18  C   UNL     1      45.427   7.410  11.901  0.00  0.00    +0.000 A 
ATOM     19  C   UNL     1      46.400   7.103  12.865  0.00  0.00    +0.000 A 
ATOM     20  C   UNL     1      46.650   5.760  13.166  0.00  0.00    +0.000 A 
ATOM     21  C   UNL     1      45.960   4.748  12.495  0.00  0.00    +0.000 A 
BRANCH  16  22
ATOM     22  C   UNL     1      44.303   3.926  10.771  0.00  0.00    +0.000 C 
ATOM     23  F   UNL     1      43.047   3.734  11.279  0.00  0.00    +0.000 F 
BRANCH  22  24
ATOM     24  C   UNL     1      44.197   4.226   9.250  0.00  0.00    +0.000 C 
BRANCH  24  26
ATOM     25  C   UNL     1      45.935   3.653   7.627  0.00  0.00    +0.000 C 
ATOM     26  N   UNL     1      44.729   3.193   8.323  0.00  0.00    +0.000 NA
ATOM     27  C   UNL     1      45.044   1.972   9.075  0.00  0.00    +0.000 C 
ENDBRANCH  24  26
ENDBRANCH  22  24
ENDBRANCH  16  22
ENDBRANCH  15  19
ENDBRANCH   1  15
TORSDOF 6
ENDMDL
