MODEL 1
REMARK VINA RESULT:    -8.156      0.000      0.000
REMARK INTER + INTRA:         -12.747
REMARK INTER:                 -11.494
REMARK INTRA:                  -1.253
REMARK UNBOUND:                -1.253
REMARK  Name = 
REMARK  7 active torsions:
REMARK  status: ('A' for Active; 'I' for Inactive)
REMARK    1  A    between atoms: C_2  and  C_3
REMARK    2  A    between atoms: C_3  and  N_4
REMARK    3  A    between atoms: C_3  and  C_17
REMARK    4  A    between atoms: C_5  and  C_7
REMARK    5  A    between atoms: C_20  and  C_21
REMARK    6  A    between atoms: C_21  and  N_22
REMARK    7  A    between atoms: C_23  and  C_25
REMARK                            x       y       z     vdW  Elec       q    Type
REMARK                         _______ _______ _______ _____ _____    ______ ____
ROOT
ATOM      1  C   UNL     1      47.650   4.879  15.108  0.00  0.00    +0.000 C 
ENDROOT
BRANCH   1   2
ATOM      2  C   UNL     1      46.735   4.822  13.885  0.00  0.00    +0.000 A 
ATOM      3  C   UNL     1      46.284   6.020  13.304  0.00  0.00    +0.000 A 
ATOM      4  C   UNL     1      45.420   6.003  12.203  0.00  0.00    +0.000 A 
ATOM      5  C   UNL     1      44.969   4.792  11.667  0.00  0.00    +0.000 A 
ATOM      6  C   UNL     1      45.396   3.595  12.254  0.00  0.00    +0.000 A 
ATOM      7  C   UNL     1      46.254   3.610  13.360  0.00  0.00    +0.000 A 
BRANCH   5   8
ATOM      8  C   UNL     1      44.075   4.773  10.454  0.00  0.00    +0.000 C 
BRANCH   8   9
ATOM      9  N   UNL     1      44.502   3.763   9.512  0.00  0.00    +0.000 N 
ATOM     10  C   UNL     1      45.441   4.041   8.545  0.00  0.00    +0.000 C 
ATOM     11  O   UNL     1      45.959   5.145   8.420  0.00  0.00    +0.000 OA
ATOM     12  H   UNL     1      44.201   2.809   9.666  0.00  0.00    +0.000 HD
BRANCH  10  13
ATOM     13  C   UNL     1      45.808   2.842   7.692  0.00  0.00    +0.000 C 
ATOM     14  C   UNL     1      47.223   2.903   7.157  0.00  0.00    +0.000 C 
ATOM     15  C   UNL     1      47.536   1.450   6.889  0.00  0.00    +0.000 C 
ATOM     16  O   UNL     1      46.794   0.680   7.839  0.00  0.00    +0.000 OA
ATOM     17  C   UNL     1      45.818   1.534   8.462  0.00  0.00    +0.000 C 
ENDBRANCH  10  13
ENDBRANCH   8   9
ENDBRANCH   5   8
ENDBRANCH   1   2
BRANCH   1  18
ATOM     18  N   UNL     1      47.752   6.264  15.529  0.00  0.00    +0.000 N 
ATOM     19  C   UNL     1      48.940   6.892  15.767  0.00  0.00    +0.000 C 
ATOM     20  O   UNL     1      50.009   6.303  15.641  0.00  0.00    +0.000 OA
ATOM     21  H   UNL     1      46.873   6.739  15.701  0.00  0.00    +0.000 HD
BRANCH  19  22
ATOM     22  C   UNL     1      48.874   8.315  16.148  0.00  0.00    +0.000 A 
ATOM     23  C   UNL     1      49.393   9.279  15.293  0.00  0.00    +0.000 A 
ATOM     24  S   UNL     1      49.197  10.878  15.854  0.00  0.00    +0.000 S 
ATOM     25  C   UNL     1      48.428  10.345  17.274  0.00  0.00    +0.000 A 
ATOM     26  N   UNL     1      48.000  11.235  18.211  0.00  0.00    +0.000 NA
ATOM     27  C   UNL     1      47.440  10.699  19.243  0.00  0.00    +0.000 A 
ATOM     28  N   UNL     1      47.266   9.353  19.423  0.00  0.00    +0.000 N 
ATOM     29  C   UNL     1      47.684   8.419  18.507  0.00  0.00    +0.000 A 
ATOM     30  O   UNL     1      47.523   7.220  18.714  0.00  0.00    +0.000 OA
ATOM     31  C   UNL     1      48.320   8.965  17.321  0.00  0.00    +0.000 A 
ATOM     32  H   UNL     1      46.826   8.994  20.258  0.00  0.00    +0.000 HD
ENDBRANCH  19  22
ENDBRANCH   1  18
BRANCH   1  34
ATOM     33  N   UNL     1      46.812   3.338  17.091  0.00  0.00    +0.000 NA
ATOM     34  C   UNL     1      47.196   3.997  16.216  0.00  0.00    +0.000 C 
ENDBRANCH   1  34
TORSDOF 7
ENDMDL
MODEL 2
REMARK VINA RESULT:    -7.994      2.768      3.981
REMARK INTER + INTRA:         -12.518
REMARK INTER:                 -11.924
REMARK INTRA:                  -0.594
REMARK UNBOUND:                -1.253
REMARK  Name = 
REMARK  7 active torsions:
REMARK  status: ('A' for Active; 'I' for Inactive)
REMARK    1  A    between atoms: C_2  and  C_3
REMARK    2  A    between atoms: C_3  and  N_4
REMARK    3  A    between atoms: C_3  and  C_17
REMARK    4  A    between atoms: C_5  and  C_7
REMARK    5  A    between atoms: C_20  and  C_21
REMARK    6  A    between atoms: C_21  and  N_22
REMARK    7  A    between atoms: C_23  and  C_25
REMARK                            x       y       z     vdW  Elec       q    Type
REMARK                         _______ _______ _______ _____ _____    ______ ____
ROOT
ATOM      1  C   UNL     1      46.990   8.317  13.208  0.00  0.00    +0.000 C 
ENDROOT
BRANCH   1   2
ATOM      2  C   UNL     1      46.212   7.283  12.392  0.00  0.00    +0.000 A 
ATOM      3  C   UNL     1      46.716   6.864  11.150  0.00  0.00    +0.000 A 
ATOM      4  C   UNL     1      46.015   5.943  10.364  0.00  0.00    +0.000 A 
ATOM      5  C   UNL     1      44.782   5.433  10.789  0.00  0.00    +0.000 A 
ATOM      6  C   UNL     1      44.263   5.863  12.016  0.00  0.00    +0.000 A 
ATOM      7  C   UNL     1      44.961   6.789  12.800  0.00  0.00    +0.000 A 
BRANCH   5   8
ATOM      8  C   UNL     1      44.048   4.407   9.964  0.00  0.00    +0.000 C 
BRANCH   8   9
ATOM      9  N   UNL     1      44.879   3.921   8.886  0.00  0.00    +0.000 N 
ATOM     10  C   UNL     1      45.123   2.575   8.725  0.00  0.00    +0.000 C 
ATOM     11  O   UNL     1      44.665   1.722   9.479  0.00  0.00    +0.000 OA
ATOM     12  H   UNL     1      45.163   4.575   8.169  0.00  0.00    +0.000 HD
BRANCH  10  13
ATOM     13  C   UNL     1      45.962   2.251   7.504  0.00  0.00    +0.000 C 
ATOM     14  C   UNL     1      46.989   3.318   7.189  0.00  0.00    +0.000 C 
ATOM     15  C   UNL     1      48.022   2.556   6.393  0.00  0.00    +0.000 C 
ATOM     16  O   UNL     1      48.004   1.207   6.869  0.00  0.00    +0.000 OA
ATOM     17  C   UNL     1      46.830   1.019   7.678  0.00  0.00    +0.000 C 
ENDBRANCH  10  13
ENDBRANCH   8   9
ENDBRANCH   5   8
ENDBRANCH   1   2
BRANCH   1  18
ATOM     18  N   UNL     1      47.440   7.678  14.430  0.00  0.00    +0.000 N 
ATOM     19  C   UNL     1      48.424   6.733  14.467  0.00  0.00    +0.000 C 
ATOM     20  O   UNL     1      48.989   6.362  13.443  0.00  0.00    +0.000 OA
ATOM     21  H   UNL     1      46.933   7.929  15.272  0.00  0.00    +0.000 HD
BRANCH  19  22
ATOM     22  C   UNL     1      48.795   6.211  15.795  0.00  0.00    +0.000 A 
ATOM     23  C   UNL     1      49.724   6.897  16.567  0.00  0.00    +0.000 A 
ATOM     24  S   UNL     1      50.008   6.191  18.094  0.00  0.00    +0.000 S 
ATOM     25  C   UNL     1      48.916   4.928  17.777  0.00  0.00    +0.000 A 
ATOM     26  N   UNL     1      48.690   3.953  18.699  0.00  0.00    +0.000 NA
ATOM     27  C   UNL     1      47.845   3.051  18.330  0.00  0.00    +0.000 A 
ATOM     28  N   UNL     1      47.200   3.036  17.123  0.00  0.00    +0.000 N 
ATOM     29  C   UNL     1      47.397   3.996  16.162  0.00  0.00    +0.000 A 
ATOM     30  O   UNL     1      46.810   3.938  15.085  0.00  0.00    +0.000 OA
ATOM     31  C   UNL     1      48.339   5.042  16.522  0.00  0.00    +0.000 A 
ATOM     32  H   UNL     1      46.553   2.297  16.889  0.00  0.00    +0.000 HD
ENDBRANCH  19  22
ENDBRANCH   1  18
BRANCH   1  34
ATOM     33  N   UNL     1      48.972   9.425  11.847  0.00  0.00    +0.000 NA
ATOM     34  C   UNL     1      48.118   8.923  12.454  0.00  0.00    +0.000 C 
ENDBRANCH   1  34
TORSDOF 7
ENDMDL
MODEL 3
REMARK VINA RESULT:    -7.236      2.863      3.956
REMARK INTER + INTRA:         -11.449
REMARK INTER:                 -10.816
REMARK INTRA:                  -0.633
REMARK UNBOUND:                -1.253
REMARK  Name = 
REMARK  7 active torsions:
REMARK  status: ('A' for Active; 'I' for Inactive)
REMARK    1  A    between atoms: C_2  and  C_3
REMARK    2  A    between atoms: C_3  and  N_4
REMARK    3  A    between atoms: C_3  and  C_17
REMARK    4  A    between atoms: C_5  and  C_7
REMARK    5  A    between atoms: C_20  and  C_21
REMARK    6  A    between atoms: C_21  and  N_22
REMARK    7  A    between atoms: C_23  and  C_25
REMARK                            x       y       z     vdW  Elec       q    Type
REMARK                         _______ _______ _______ _____ _____    ______ ____
ROOT
ATOM      1  C   UNL     1      47.388   6.792  13.625  0.00  0.00    +0.000 C 
ENDROOT
BRANCH   1   2
ATOM      2  C   UNL     1      46.542   5.799  12.827  0.00  0.00    +0.000 A 
ATOM      3  C   UNL     1      45.794   6.256  11.728  0.00  0.00    +0.000 A 
ATOM      4  C   UNL     1      44.986   5.380  10.996  0.00  0.00    +0.000 A 
ATOM      5  C   UNL     1      44.887   4.030  11.353  0.00  0.00    +0.000 A 
ATOM      6  C   UNL     1      45.612   3.572  12.460  0.00  0.00    +0.000 A 
ATOM      7  C   UNL     1      46.416   4.449  13.198  0.00  0.00    +0.000 A 
BRANCH   5   8
ATOM      8  C   UNL     1      44.052   3.077  10.537  0.00  0.00    +0.000 C 
BRANCH   8   9
ATOM      9  N   UNL     1      44.828   2.497   9.465  0.00  0.00    +0.000 N 
ATOM     10  C   UNL     1      44.996   3.157   8.268  0.00  0.00    +0.000 C 
ATOM     11  O   UNL     1      44.500   4.255   8.040  0.00  0.00    +0.000 OA
ATOM     12  H   UNL     1      45.362   1.660   9.660  0.00  0.00    +0.000 HD
BRANCH  10  13
ATOM     13  C   UNL     1      45.892   2.422   7.290  0.00  0.00    +0.000 C 
ATOM     14  C   UNL     1      47.052   3.262   6.800  0.00  0.00    +0.000 C 
ATOM     15  C   UNL     1      48.056   2.218   6.371  0.00  0.00    +0.000 C 
ATOM     16  O   UNL     1      47.852   1.074   7.207  0.00  0.00    +0.000 OA
ATOM     17  C   UNL     1      46.602   1.228   7.901  0.00  0.00    +0.000 C 
ENDBRANCH  10  13
ENDBRANCH   8   9
ENDBRANCH   5   8
ENDBRANCH   1   2
BRANCH   1  18
ATOM     18  N   UNL     1      47.994   6.078  14.732  0.00  0.00    +0.000 N 
ATOM     19  C   UNL     1      48.620   6.697  15.775  0.00  0.00    +0.000 C 
ATOM     20  O   UNL     1      48.709   7.920  15.829  0.00  0.00    +0.000 OA
ATOM     21  H   UNL     1      47.984   5.066  14.663  0.00  0.00    +0.000 HD
BRANCH  19  22
ATOM     22  C   UNL     1      49.149   5.829  16.843  0.00  0.00    +0.000 A 
ATOM     23  C   UNL     1      48.268   5.109  17.641  0.00  0.00    +0.000 A 
ATOM     24  S   UNL     1      49.037   4.117  18.796  0.00  0.00    +0.000 S 
ATOM     25  C   UNL     1      50.578   4.624  18.290  0.00  0.00    +0.000 A 
ATOM     26  N   UNL     1      51.702   4.144  18.889  0.00  0.00    +0.000 NA
ATOM     27  C   UNL     1      52.806   4.615  18.414  0.00  0.00    +0.000 A 
ATOM     28  N   UNL     1      52.890   5.522  17.392  0.00  0.00    +0.000 N 
ATOM     29  C   UNL     1      51.784   6.036  16.761  0.00  0.00    +0.000 A 
ATOM     30  O   UNL     1      51.901   6.859  15.858  0.00  0.00    +0.000 OA
ATOM     31  C   UNL     1      50.510   5.539  17.252  0.00  0.00    +0.000 A 
ATOM     32  H   UNL     1      53.784   5.859  17.070  0.00  0.00    +0.000 HD
ENDBRANCH  19  22
ENDBRANCH   1  18
BRANCH   1  34
ATOM     33  N   UNL     1      49.179   8.070  12.151  0.00  0.00    +0.000 NA
ATOM     34  C   UNL     1      48.405   7.489  12.793  0.00  0.00    +0.000 C 
ENDBRANCH   1  34
TORSDOF 7
ENDMDL
MODEL 4
REMARK VINA RESULT:    -7.233      1.677      2.405
REMARK INTER + INTRA:         -11.446
REMARK INTER:                 -10.411
REMARK INTRA:                  -1.035
REMARK UNBOUND:                -1.253
REMARK  Name = 
REMARK  7 active torsions:
REMARK  status: ('A' for Active; 'I' for Inactive)
REMARK    1  A    between atoms: C_2  and  C_3
REMARK    2  A    between atoms: C_3  and  N_4
REMARK    3  A    between atoms: C_3  and  C_17
REMARK    4  A    between atoms: C_5  and  C_7
REMARK    5  A    between atoms: C_20  and  C_21
REMARK    6  A    between atoms: C_21  and  N_22
REMARK    7  A    between atoms: C_23  and  C_25
REMARK                            x       y       z     vdW  Elec       q    Type
REMARK                         _______ _______ _______ _____ _____    ______ ____
ROOT
ATOM      1  C   UNL     1      47.792   4.723  15.251  0.00  0.00    +0.000 C 
ENDROOT
BRANCH   1   2
ATOM      2  C   UNL     1      46.952   4.725  13.973  0.00  0.00    +0.000 A 
ATOM      3  C   UNL     1      46.736   5.934  13.291  0.00  0.00    +0.000 A 
ATOM      4  C   UNL     1      45.946   5.976  12.137  0.00  0.00    +0.000 A 
ATOM      5  C   UNL     1      45.337   4.816  11.645  0.00  0.00    +0.000 A 
ATOM      6  C   UNL     1      45.530   3.611  12.332  0.00  0.00    +0.000 A 
ATOM      7  C   UNL     1      46.314   3.569  13.491  0.00  0.00    +0.000 A 
BRANCH   5   8
ATOM      8  C   UNL     1      44.524   4.853  10.376  0.00  0.00    +0.000 C 
BRANCH   8   9
ATOM      9  N   UNL     1      45.238   4.227   9.287  0.00  0.00    +0.000 N 
ATOM     10  C   UNL     1      44.973   2.928   8.914  0.00  0.00    +0.000 C 
ATOM     11  O   UNL     1      44.135   2.232   9.479  0.00  0.00    +0.000 OA
ATOM     12  H   UNL     1      45.836   4.806   8.713  0.00  0.00    +0.000 HD
BRANCH  10  13
ATOM     13  C   UNL     1      45.774   2.465   7.713  0.00  0.00    +0.000 C 
ATOM     14  C   UNL     1      46.861   3.440   7.312  0.00  0.00    +0.000 C 
ATOM     15  C   UNL     1      47.834   2.559   6.564  0.00  0.00    +0.000 C 
ATOM     16  O   UNL     1      47.739   1.251   7.138  0.00  0.00    +0.000 OA
ATOM     17  C   UNL     1      46.566   1.196   7.968  0.00  0.00    +0.000 C 
ENDBRANCH  10  13
ENDBRANCH   8   9
ENDBRANCH   5   8
ENDBRANCH   1   2
BRANCH   1  18
ATOM     18  N   UNL     1      47.972   6.100  15.672  0.00  0.00    +0.000 N 
ATOM     19  C   UNL     1      49.146   6.588  16.169  0.00  0.00    +0.000 C 
ATOM     20  O   UNL     1      50.132   5.868  16.293  0.00  0.00    +0.000 OA
ATOM     21  H   UNL     1      47.144   6.684  15.636  0.00  0.00    +0.000 HD
BRANCH  19  22
ATOM     22  C   UNL     1      49.178   8.021  16.513  0.00  0.00    +0.000 A 
ATOM     23  C   UNL     1      48.339   8.506  17.508  0.00  0.00    +0.000 A 
ATOM     24  S   UNL     1      48.530  10.172  17.820  0.00  0.00    +0.000 S 
ATOM     25  C   UNL     1      49.729  10.317  16.623  0.00  0.00    +0.000 A 
ATOM     26  N   UNL     1      50.321  11.516  16.371  0.00  0.00    +0.000 NA
ATOM     27  C   UNL     1      51.209  11.490  15.435  0.00  0.00    +0.000 A 
ATOM     28  N   UNL     1      51.561  10.372  14.728  0.00  0.00    +0.000 N 
ATOM     29  C   UNL     1      50.989   9.142  14.946  0.00  0.00    +0.000 A 
ATOM     30  O   UNL     1      51.322   8.167  14.279  0.00  0.00    +0.000 OA
ATOM     31  C   UNL     1      49.983   9.110  15.993  0.00  0.00    +0.000 A 
ATOM     32  H   UNL     1      52.258  10.416  14.000  0.00  0.00    +0.000 HD
ENDBRANCH  19  22
ENDBRANCH   1  18
BRANCH   1  34
ATOM     33  N   UNL     1      46.743   3.270  17.200  0.00  0.00    +0.000 NA
ATOM     34  C   UNL     1      47.205   3.888  16.331  0.00  0.00    +0.000 C 
ENDBRANCH   1  34
TORSDOF 7
ENDMDL
MODEL 5
REMARK VINA RESULT:    -7.227      2.306      3.540
REMARK INTER + INTRA:         -11.437
REMARK INTER:                 -10.359
REMARK INTRA:                  -1.077
REMARK UNBOUND:                -1.253
REMARK  Name = 
REMARK  7 active torsions:
REMARK  status: ('A' for Active; 'I' for Inactive)
REMARK    1  A    between atoms: C_2  and  C_3
REMARK    2  A    between atoms: C_3  and  N_4
REMARK    3  A    between atoms: C_3  and  C_17
REMARK    4  A    between atoms: C_5  and  C_7
REMARK    5  A    between atoms: C_20  and  C_21
REMARK    6  A    between atoms: C_21  and  N_22
REMARK    7  A    between atoms: C_23  and  C_25
REMARK                            x       y       z     vdW  Elec       q    Type
REMARK                         _______ _______ _______ _____ _____    ______ ____
ROOT
ATOM      1  C   UNL     1      47.686   8.750  13.507  0.00  0.00    +0.000 C 
ENDROOT
BRANCH   1   2
ATOM      2  C   UNL     1      46.697   7.854  12.761  0.00  0.00    +0.000 A 
ATOM      3  C   UNL     1      45.477   8.392  12.318  0.00  0.00    +0.000 A 
ATOM      4  C   UNL     1      44.536   7.593  11.660  0.00  0.00    +0.000 A 
ATOM      5  C   UNL     1      44.780   6.231  11.445  0.00  0.00    +0.000 A 
ATOM      6  C   UNL     1      45.984   5.683  11.904  0.00  0.00    +0.000 A 
ATOM      7  C   UNL     1      46.923   6.480  12.568  0.00  0.00    +0.000 A 
BRANCH   5   8
ATOM      8  C   UNL     1      43.787   5.380  10.697  0.00  0.00    +0.000 C 
BRANCH   8   9
ATOM      9  N   UNL     1      44.418   4.706   9.584  0.00  0.00    +0.000 N 
ATOM     10  C   UNL     1      44.410   3.333   9.486  0.00  0.00    +0.000 C 
ATOM     11  O   UNL     1      43.883   2.609  10.325  0.00  0.00    +0.000 OA
ATOM     12  H   UNL     1      44.743   5.267   8.808  0.00  0.00    +0.000 HD
BRANCH  10  13
ATOM     13  C   UNL     1      45.065   2.811   8.221  0.00  0.00    +0.000 C 
ATOM     14  C   UNL     1      46.102   3.757   7.656  0.00  0.00    +0.000 C 
ATOM     15  C   UNL     1      46.977   2.834   6.839  0.00  0.00    +0.000 C 
ATOM     16  O   UNL     1      46.944   1.554   7.477  0.00  0.00    +0.000 OA
ATOM     17  C   UNL     1      45.875   1.546   8.439  0.00  0.00    +0.000 C 
ENDBRANCH  10  13
ENDBRANCH   8   9
ENDBRANCH   5   8
ENDBRANCH   1   2
BRANCH   1  18
ATOM     18  N   UNL     1      47.786   8.269  14.872  0.00  0.00    +0.000 N 
ATOM     19  C   UNL     1      48.304   9.010  15.895  0.00  0.00    +0.000 C 
ATOM     20  O   UNL     1      48.728  10.146  15.706  0.00  0.00    +0.000 OA
ATOM     21  H   UNL     1      47.500   7.308  15.024  0.00  0.00    +0.000 HD
BRANCH  19  22
ATOM     22  C   UNL     1      48.297   8.393  17.233  0.00  0.00    +0.000 A 
ATOM     23  C   UNL     1      47.892   9.141  18.332  0.00  0.00    +0.000 A 
ATOM     24  S   UNL     1      47.893   8.270  19.799  0.00  0.00    +0.000 S 
ATOM     25  C   UNL     1      48.454   6.862  19.028  0.00  0.00    +0.000 A 
ATOM     26  N   UNL     1      48.675   5.722  19.736  0.00  0.00    +0.000 NA
ATOM     27  C   UNL     1      49.107   4.729  19.033  0.00  0.00    +0.000 A 
ATOM     28  N   UNL     1      49.334   4.772  17.684  0.00  0.00    +0.000 N 
ATOM     29  C   UNL     1      49.126   5.900  16.929  0.00  0.00    +0.000 A 
ATOM     30  O   UNL     1      49.357   5.902  15.724  0.00  0.00    +0.000 OA
ATOM     31  C   UNL     1      48.638   7.052  17.669  0.00  0.00    +0.000 A 
ATOM     32  H   UNL     1      49.679   3.963  17.190  0.00  0.00    +0.000 HD
ENDBRANCH  19  22
ENDBRANCH   1  18
BRANCH   1  34
ATOM     33  N   UNL     1      50.037   8.873  12.295  0.00  0.00    +0.000 NA
ATOM     34  C   UNL     1      49.017   8.821  12.848  0.00  0.00    +0.000 C 
ENDBRANCH   1  34
TORSDOF 7
ENDMDL
MODEL 6
REMARK VINA RESULT:    -6.475      2.799      3.783
REMARK INTER + INTRA:         -10.377
REMARK INTER:                  -9.839
REMARK INTRA:                  -0.538
REMARK UNBOUND:                -1.253
REMARK  Name = 
REMARK  7 active torsions:
REMARK  status: ('A' for Active; 'I' for Inactive)
REMARK    1  A    between atoms: C_2  and  C_3
REMARK    2  A    between atoms: C_3  and  N_4
REMARK    3  A    between atoms: C_3  and  C_17
REMARK    4  A    between atoms: C_5  and  C_7
REMARK    5  A    between atoms: C_20  and  C_21
REMARK    6  A    between atoms: C_21  and  N_22
REMARK    7  A    between atoms: C_23  and  C_25
REMARK                            x       y       z     vdW  Elec       q    Type
REMARK                         _______ _______ _______ _____ _____    ______ ____
ROOT
ATOM      1  C   UNL     1      45.998   8.495  13.301  0.00  0.00    +0.000 C 
ENDROOT
BRANCH   1   2
ATOM      2  C   UNL     1      45.586   7.202  12.597  0.00  0.00    +0.000 A 
ATOM      3  C   UNL     1      45.785   5.971  13.245  0.00  0.00    +0.000 A 
ATOM      4  C   UNL     1      45.448   4.766  12.617  0.00  0.00    +0.000 A 
ATOM      5  C   UNL     1      44.923   4.759  11.320  0.00  0.00    +0.000 A 
ATOM      6  C   UNL     1      44.742   5.981  10.660  0.00  0.00    +0.000 A 
ATOM      7  C   UNL     1      45.085   7.186  11.284  0.00  0.00    +0.000 A 
BRANCH   5   8
ATOM      8  C   UNL     1      44.518   3.466  10.661  0.00  0.00    +0.000 C 
BRANCH   8   9
ATOM      9  N   UNL     1      45.298   3.228   9.466  0.00  0.00    +0.000 N 
ATOM     10  C   UNL     1      45.160   2.063   8.745  0.00  0.00    +0.000 C 
ATOM     11  O   UNL     1      44.387   1.168   9.071  0.00  0.00    +0.000 OA
ATOM     12  H   UNL     1      45.844   3.993   9.092  0.00  0.00    +0.000 HD
BRANCH  10  13
ATOM     13  C   UNL     1      46.012   2.020   7.492  0.00  0.00    +0.000 C 
ATOM     14  C   UNL     1      46.918   3.224   7.348  0.00  0.00    +0.000 C 
ATOM     15  C   UNL     1      48.014   2.706   6.446  0.00  0.00    +0.000 C 
ATOM     16  O   UNL     1      48.143   1.305   6.709  0.00  0.00    +0.000 OA
ATOM     17  C   UNL     1      47.006   0.873   7.476  0.00  0.00    +0.000 C 
ENDBRANCH  10  13
ENDBRANCH   8   9
ENDBRANCH   5   8
ENDBRANCH   1   2
BRANCH   1  18
ATOM     18  N   UNL     1      47.284   8.272  13.934  0.00  0.00    +0.000 N 
ATOM     19  C   UNL     1      48.438   8.055  13.238  0.00  0.00    +0.000 C 
ATOM     20  O   UNL     1      48.446   8.030  12.011  0.00  0.00    +0.000 OA
ATOM     21  H   UNL     1      47.275   8.224  14.947  0.00  0.00    +0.000 HD
BRANCH  19  22
ATOM     22  C   UNL     1      49.670   7.886  14.030  0.00  0.00    +0.000 A 
ATOM     23  C   UNL     1      50.810   8.603  13.687  0.00  0.00    +0.000 A 
ATOM     24  S   UNL     1      52.134   8.334  14.727  0.00  0.00    +0.000 S 
ATOM     25  C   UNL     1      51.244   7.233  15.669  0.00  0.00    +0.000 A 
ATOM     26  N   UNL     1      51.809   6.620  16.744  0.00  0.00    +0.000 NA
ATOM     27  C   UNL     1      51.028   5.803  17.367  0.00  0.00    +0.000 A 
ATOM     28  N   UNL     1      49.730   5.545  17.015  0.00  0.00    +0.000 N 
ATOM     29  C   UNL     1      49.120   6.139  15.937  0.00  0.00    +0.000 A 
ATOM     30  O   UNL     1      47.959   5.868  15.645  0.00  0.00    +0.000 OA
ATOM     31  C   UNL     1      49.952   7.072  15.197  0.00  0.00    +0.000 A 
ATOM     32  H   UNL     1      49.170   4.889  17.538  0.00  0.00    +0.000 HD
ENDBRANCH  19  22
ENDBRANCH   1  18
BRANCH   1  34
ATOM     33  N   UNL     1      46.009  10.580  11.668  0.00  0.00    +0.000 NA
ATOM     34  C   UNL     1      46.028   9.669  12.389  0.00  0.00    +0.000 C 
ENDBRANCH   1  34
TORSDOF 7
ENDMDL
MODEL 7
REMARK VINA RESULT:    -6.347      4.820      7.634
REMARK INTER + INTRA:         -10.196
REMARK INTER:                  -9.217
REMARK INTRA:                  -0.980
REMARK UNBOUND:                -1.253
REMARK  Name = 
REMARK  7 active torsions:
REMARK  status: ('A' for Active; 'I' for Inactive)
REMARK    1  A    between atoms: C_2  and  C_3
REMARK    2  A    between atoms: C_3  and  N_4
REMARK    3  A    between atoms: C_3  and  C_17
REMARK    4  A    between atoms: C_5  and  C_7
REMARK    5  A    between atoms: C_20  and  C_21
REMARK    6  A    between atoms: C_21  and  N_22
REMARK    7  A    between atoms: C_23  and  C_25
REMARK                            x       y       z     vdW  Elec       q    Type
REMARK                         _______ _______ _______ _____ _____    ______ ____
ROOT
ATOM      1  C   UNL     1      48.273   7.061  14.014  0.00  0.00    +0.000 C 
ENDROOT
BRANCH   1   2
ATOM      2  C   UNL     1      49.497   7.580  13.259  0.00  0.00    +0.000 A 
ATOM      3  C   UNL     1      49.572   7.411  11.866  0.00  0.00    +0.000 A 
ATOM      4  C   UNL     1      50.692   7.847  11.149  0.00  0.00    +0.000 A 
ATOM      5  C   UNL     1      51.774   8.444  11.807  0.00  0.00    +0.000 A 
ATOM      6  C   UNL     1      51.715   8.596  13.198  0.00  0.00    +0.000 A 
ATOM      7  C   UNL     1      50.599   8.154  13.917  0.00  0.00    +0.000 A 
BRANCH   5   8
ATOM      8  C   UNL     1      52.960   8.954  11.030  0.00  0.00    +0.000 C 
BRANCH   8   9
ATOM      9  N   UNL     1      53.078   8.273   9.760  0.00  0.00    +0.000 N 
ATOM     10  C   UNL     1      53.956   7.226   9.592  0.00  0.00    +0.000 C 
ATOM     11  O   UNL     1      54.685   6.819  10.490  0.00  0.00    +0.000 OA
ATOM     12  H   UNL     1      52.403   8.489   9.038  0.00  0.00    +0.000 HD
BRANCH  10  13
ATOM     13  C   UNL     1      53.894   6.597   8.213  0.00  0.00    +0.000 C 
ATOM     14  C   UNL     1      54.113   5.100   8.232  0.00  0.00    +0.000 C 
ATOM     15  C   UNL     1      53.446   4.653   6.952  0.00  0.00    +0.000 C 
ATOM     16  O   UNL     1      52.373   5.566   6.701  0.00  0.00    +0.000 OA
ATOM     17  C   UNL     1      52.528   6.709   7.560  0.00  0.00    +0.000 C 
ENDBRANCH  10  13
ENDBRANCH   8   9
ENDBRANCH   5   8
ENDBRANCH   1   2
BRANCH   1  18
ATOM     18  N   UNL     1      47.500   6.238  13.103  0.00  0.00    +0.000 N 
ATOM     19  C   UNL     1      46.453   6.711  12.365  0.00  0.00    +0.000 C 
ATOM     20  O   UNL     1      46.101   7.884  12.440  0.00  0.00    +0.000 OA
ATOM     21  H   UNL     1      47.741   5.253  13.085  0.00  0.00    +0.000 HD
BRANCH  19  22
ATOM     22  C   UNL     1      45.797   5.755  11.454  0.00  0.00    +0.000 A 
ATOM     23  C   UNL     1      45.983   5.876  10.083  0.00  0.00    +0.000 A 
ATOM     24  S   UNL     1      45.197   4.667   9.170  0.00  0.00    +0.000 S 
ATOM     25  C   UNL     1      44.559   3.945  10.571  0.00  0.00    +0.000 A 
ATOM     26  N   UNL     1      43.771   2.839  10.487  0.00  0.00    +0.000 NA
ATOM     27  C   UNL     1      43.347   2.395  11.622  0.00  0.00    +0.000 A 
ATOM     28  N   UNL     1      43.643   2.955  12.836  0.00  0.00    +0.000 N 
ATOM     29  C   UNL     1      44.432   4.071  12.969  0.00  0.00    +0.000 A 
ATOM     30  O   UNL     1      44.660   4.552  14.075  0.00  0.00    +0.000 OA
ATOM     31  C   UNL     1      44.941   4.615  11.721  0.00  0.00    +0.000 A 
ATOM     32  H   UNL     1      43.274   2.566  13.691  0.00  0.00    +0.000 HD
ENDBRANCH  19  22
ENDBRANCH   1  18
BRANCH   1  34
ATOM     33  N   UNL     1      48.860   5.737  16.230  0.00  0.00    +0.000 NA
ATOM     34  C   UNL     1      48.625   6.327  15.258  0.00  0.00    +0.000 C 
ENDBRANCH   1  34
TORSDOF 7
ENDMDL
MODEL 8
REMARK VINA RESULT:    -6.227      3.236      4.671
REMARK INTER + INTRA:         -10.028
REMARK INTER:                  -8.717
REMARK INTRA:                  -1.310
REMARK UNBOUND:                -1.253
REMARK  Name = 
REMARK  7 active torsions:
REMARK  status: ('A' for Active; 'I' for Inactive)
REMARK    1  A    between atoms: C_2  and  C_3
REMARK    2  A    between atoms: C_3  and  N_4
REMARK    3  A    between atoms: C_3  and  C_17
REMARK    4  A    between atoms: C_5  and  C_7
REMARK    5  A    between atoms: C_20  and  C_21
REMARK    6  A    between atoms: C_21  and  N_22
REMARK    7  A    between atoms: C_23  and  C_25
REMARK                            x       y       z     vdW  Elec       q    Type
REMARK                         _______ _______ _______ _____ _____    ______ ____
ROOT
ATOM      1  C   UNL     1      47.891   8.776  13.418  0.00  0.00    +0.000 C 
ENDROOT
BRANCH   1   2
ATOM      2  C   UNL     1      47.030   7.545  13.135  0.00  0.00    +0.000 A 
ATOM      3  C   UNL     1      45.671   7.712  12.818  0.00  0.00    +0.000 A 
ATOM      4  C   UNL     1      44.847   6.606  12.585  0.00  0.00    +0.000 A 
ATOM      5  C   UNL     1      45.353   5.304  12.681  0.00  0.00    +0.000 A 
ATOM      6  C   UNL     1      46.701   5.129  13.017  0.00  0.00    +0.000 A 
ATOM      7  C   UNL     1      47.525   6.235  13.258  0.00  0.00    +0.000 A 
BRANCH   5   8
ATOM      8  C   UNL     1      44.477   4.114  12.385  0.00  0.00    +0.000 C 
BRANCH   8   9
ATOM      9  N   UNL     1      44.814   3.529  11.107  0.00  0.00    +0.000 N 
ATOM     10  C   UNL     1      44.203   3.949   9.947  0.00  0.00    +0.000 C 
ATOM     11  O   UNL     1      43.344   4.824   9.928  0.00  0.00    +0.000 OA
ATOM     12  H   UNL     1      45.608   2.903  11.063  0.00  0.00    +0.000 HD
BRANCH  10  13
ATOM     13  C   UNL     1      44.730   3.265   8.700  0.00  0.00    +0.000 C 
ATOM     14  C   UNL     1      45.918   3.976   8.089  0.00  0.00    +0.000 C 
ATOM     15  C   UNL     1      46.594   2.875   7.306  0.00  0.00    +0.000 C 
ATOM     16  O   UNL     1      46.330   1.650   7.995  0.00  0.00    +0.000 OA
ATOM     17  C   UNL     1      45.293   1.880   8.964  0.00  0.00    +0.000 C 
ENDBRANCH  10  13
ENDBRANCH   8   9
ENDBRANCH   5   8
ENDBRANCH   1   2
BRANCH   1  18
ATOM     18  N   UNL     1      49.173   8.320  13.923  0.00  0.00    +0.000 N 
ATOM     19  C   UNL     1      49.580   8.500  15.214  0.00  0.00    +0.000 C 
ATOM     20  O   UNL     1      48.868   9.075  16.031  0.00  0.00    +0.000 OA
ATOM     21  H   UNL     1      49.795   7.904  13.239  0.00  0.00    +0.000 HD
BRANCH  19  22
ATOM     22  C   UNL     1      50.894   7.941  15.580  0.00  0.00    +0.000 A 
ATOM     23  C   UNL     1      51.041   7.268  16.786  0.00  0.00    +0.000 A 
ATOM     24  S   UNL     1      52.607   6.640  17.040  0.00  0.00    +0.000 S 
ATOM     25  C   UNL     1      53.158   7.261  15.556  0.00  0.00    +0.000 A 
ATOM     26  N   UNL     1      54.446   7.075  15.158  0.00  0.00    +0.000 NA
ATOM     27  C   UNL     1      54.736   7.602  14.016  0.00  0.00    +0.000 A 
ATOM     28  N   UNL     1      53.854   8.297  13.234  0.00  0.00    +0.000 N 
ATOM     29  C   UNL     1      52.547   8.512  13.596  0.00  0.00    +0.000 A 
ATOM     30  O   UNL     1      51.792   9.155  12.872  0.00  0.00    +0.000 OA
ATOM     31  C   UNL     1      52.161   7.938  14.873  0.00  0.00    +0.000 A 
ATOM     32  H   UNL     1      54.143   8.694  12.352  0.00  0.00    +0.000 HD
ENDBRANCH  19  22
ENDBRANCH   1  18
BRANCH   1  34
ATOM     33  N   UNL     1      48.212  10.354  11.316  0.00  0.00    +0.000 NA
ATOM     34  C   UNL     1      48.048   9.660  12.233  0.00  0.00    +0.000 C 
ENDBRANCH   1  34
TORSDOF 7
ENDMDL
MODEL 9
REMARK VINA RESULT:    -5.997      3.233      4.364
REMARK INTER + INTRA:          -9.703
REMARK INTER:                  -9.107
REMARK INTRA:                  -0.596
REMARK UNBOUND:                -1.253
REMARK  Name = 
REMARK  7 active torsions:
REMARK  status: ('A' for Active; 'I' for Inactive)
REMARK    1  A    between atoms: C_2  and  C_3
REMARK    2  A    between atoms: C_3  and  N_4
REMARK    3  A    between atoms: C_3  and  C_17
REMARK    4  A    between atoms: C_5  and  C_7
REMARK    5  A    between atoms: C_20  and  C_21
REMARK    6  A    between atoms: C_21  and  N_22
REMARK    7  A    between atoms: C_23  and  C_25
REMARK                            x       y       z     vdW  Elec       q    Type
REMARK                         _______ _______ _______ _____ _____    ______ ____
ROOT
ATOM      1  C   UNL     1      47.131   8.729  13.512  0.00  0.00    +0.000 C 
ENDROOT
BRANCH   1   2
ATOM      2  C   UNL     1      46.664   7.297  13.246  0.00  0.00    +0.000 A 
ATOM      3  C   UNL     1      45.474   7.081  12.531  0.00  0.00    +0.000 A 
ATOM      4  C   UNL     1      45.002   5.785  12.297  0.00  0.00    +0.000 A 
ATOM      5  C   UNL     1      45.695   4.672  12.789  0.00  0.00    +0.000 A 
ATOM      6  C   UNL     1      46.870   4.881  13.522  0.00  0.00    +0.000 A 
ATOM      7  C   UNL     1      47.340   6.177  13.762  0.00  0.00    +0.000 A 
BRANCH   5   8
ATOM      8  C   UNL     1      45.211   3.275  12.499  0.00  0.00    +0.000 C 
BRANCH   8   9
ATOM      9  N   UNL     1      45.359   2.957  11.097  0.00  0.00    +0.000 N 
ATOM     10  C   UNL     1      44.287   3.018  10.235  0.00  0.00    +0.000 C 
ATOM     11  O   UNL     1      43.159   3.333  10.599  0.00  0.00    +0.000 OA
ATOM     12  H   UNL     1      46.294   2.825  10.733  0.00  0.00    +0.000 HD
BRANCH  10  13
ATOM     13  C   UNL     1      44.648   2.713   8.794  0.00  0.00    +0.000 C 
ATOM     14  C   UNL     1      45.295   3.881   8.082  0.00  0.00    +0.000 C 
ATOM     15  C   UNL     1      46.062   3.205   6.970  0.00  0.00    +0.000 C 
ATOM     16  O   UNL     1      46.442   1.912   7.451  0.00  0.00    +0.000 OA
ATOM     17  C   UNL     1      45.704   1.632   8.653  0.00  0.00    +0.000 C 
ENDBRANCH  10  13
ENDBRANCH   8   9
ENDBRANCH   5   8
ENDBRANCH   1   2
BRANCH   1  18
ATOM     18  N   UNL     1      48.580   8.721  13.593  0.00  0.00    +0.000 N 
ATOM     19  C   UNL     1      49.393   8.508  12.517  0.00  0.00    +0.000 C 
ATOM     20  O   UNL     1      48.929   8.302  11.400  0.00  0.00    +0.000 OA
ATOM     21  H   UNL     1      48.971   8.824  14.523  0.00  0.00    +0.000 HD
BRANCH  19  22
ATOM     22  C   UNL     1      50.845   8.573  12.758  0.00  0.00    +0.000 A 
ATOM     23  C   UNL     1      51.680   9.107  11.784  0.00  0.00    +0.000 A 
ATOM     24  S   UNL     1      53.324   9.155  12.234  0.00  0.00    +0.000 S 
ATOM     25  C   UNL     1      52.991   8.446  13.743  0.00  0.00    +0.000 A 
ATOM     26  N   UNL     1      53.990   8.201  14.634  0.00  0.00    +0.000 NA
ATOM     27  C   UNL     1      53.603   7.653  15.737  0.00  0.00    +0.000 A 
ATOM     28  N   UNL     1      52.305   7.331  16.032  0.00  0.00    +0.000 N 
ATOM     29  C   UNL     1      51.266   7.557  15.164  0.00  0.00    +0.000 A 
ATOM     30  O   UNL     1      50.118   7.239  15.461  0.00  0.00    +0.000 OA
ATOM     31  C   UNL     1      51.642   8.175  13.904  0.00  0.00    +0.000 A 
ATOM     32  H   UNL     1      52.066   6.896  16.911  0.00  0.00    +0.000 HD
ENDBRANCH  19  22
ENDBRANCH   1  18
BRANCH   1  34
ATOM     33  N   UNL     1      46.261  10.487  11.734  0.00  0.00    +0.000 NA
ATOM     34  C   UNL     1      46.640   9.698  12.497  0.00  0.00    +0.000 C 
ENDBRANCH   1  34
TORSDOF 7
ENDMDL
