MODEL 1
REMARK VINA RESULT:    -8.431      0.000      0.000
REMARK INTER + INTRA:         -12.572
REMARK INTER:                 -11.388
REMARK INTRA:                  -1.184
REMARK UNBOUND:                -1.184
REMARK  Name = 
REMARK  6 active torsions:
REMARK  status: ('A' for Active; 'I' for Inactive)
REMARK    1  A    between atoms: C_2  and  C_25
REMARK    2  A    between atoms: N_3  and  C_4
REMARK    3  A    between atoms: C_4  and  C_5
REMARK    4  A    between atoms: C_8  and  C_9
REMARK    5  A    between atoms: C_9  and  N_10
REMARK    6  A    between atoms: C_11  and  C_13
REMARK                            x       y       z     vdW  Elec       q    Type
REMARK                         _______ _______ _______ _____ _____    ______ ____
ROOT
ATOM      1  C   UNL     1      44.914   5.374  10.693  0.00  0.00    +0.000 A 
ATOM      2  C   UNL     1      44.302   5.744  11.900  0.00  0.00    +0.000 A 
ATOM      3  C   UNL     1      44.937   6.624  12.785  0.00  0.00    +0.000 A 
ATOM      4  C   UNL     1      46.188   7.174  12.473  0.00  0.00    +0.000 A 
ATOM      5  C   UNL     1      46.804   6.793  11.273  0.00  0.00    +0.000 A 
ATOM      6  C   UNL     1      46.170   5.914  10.388  0.00  0.00    +0.000 A 
ENDROOT
BRANCH   1   7
ATOM      7  C   UNL     1      44.223   4.434   9.737  0.00  0.00    +0.000 C 
BRANCH   7  10
ATOM      8  O   UNL     1      45.349   1.893   9.393  0.00  0.00    +0.000 OA
ATOM      9  C   UNL     1      45.596   2.763   8.565  0.00  0.00    +0.000 C 
ATOM     10  N   UNL     1      45.096   4.046   8.660  0.00  0.00    +0.000 N 
ATOM     11  H   UNL     1      45.196   4.672   7.877  0.00  0.00    +0.000 HD
BRANCH   9  12
ATOM     12  C   UNL     1      46.413   2.523   7.409  0.00  0.00    +0.000 A 
ATOM     13  C   UNL     1      46.556   3.181   6.200  0.00  0.00    +0.000 A 
ATOM     14  C   UNL     1      47.523   2.451   5.489  0.00  0.00    +0.000 A 
ATOM     15  N   UNL     1      47.974   1.403   6.180  0.00  0.00    +0.000 NA
ATOM     16  N   UNL     1      47.299   1.475   7.343  0.00  0.00    +0.000 N 
ATOM     17  H   UNL     1      47.475   0.779   8.058  0.00  0.00    +0.000 HD
ENDBRANCH   9  12
ENDBRANCH   7  10
ENDBRANCH   1   7
BRANCH   4  18
ATOM     18  C   UNL     1      46.883   8.123  13.419  0.00  0.00    +0.000 C 
BRANCH  18  19
ATOM     19  N   UNL     1      47.409   7.423  14.563  0.00  0.00    +0.000 N 
ATOM     20  C   UNL     1      48.664   6.873  14.569  0.00  0.00    +0.000 C 
ATOM     21  O   UNL     1      49.438   6.988  13.621  0.00  0.00    +0.000 OA
ATOM     22  H   UNL     1      46.722   7.075  15.224  0.00  0.00    +0.000 HD
BRANCH  20  23
ATOM     23  C   UNL     1      49.060   6.190  15.808  0.00  0.00    +0.000 A 
ATOM     24  C   UNL     1      50.168   6.622  16.524  0.00  0.00    +0.000 A 
ATOM     25  S   UNL     1      50.417   5.764  17.980  0.00  0.00    +0.000 S 
ATOM     26  C   UNL     1      49.088   4.747  17.672  0.00  0.00    +0.000 A 
ATOM     27  N   UNL     1      48.747   3.754  18.538  0.00  0.00    +0.000 NA
ATOM     28  C   UNL     1      47.738   3.040  18.161  0.00  0.00    +0.000 A 
ATOM     29  N   UNL     1      47.038   3.229  16.998  0.00  0.00    +0.000 N 
ATOM     30  C   UNL     1      47.331   4.231  16.108  0.00  0.00    +0.000 A 
ATOM     31  O   UNL     1      46.664   4.395  15.092  0.00  0.00    +0.000 OA
ATOM     32  C   UNL     1      48.459   5.064  16.482  0.00  0.00    +0.000 A 
ATOM     33  H   UNL     1      46.254   2.640  16.761  0.00  0.00    +0.000 HD
ENDBRANCH  20  23
ENDBRANCH  18  19
ENDBRANCH   4  18
TORSDOF 6
ENDMDL
MODEL 2
REMARK VINA RESULT:    -7.488      1.936      2.239
REMARK INTER + INTRA:         -11.299
REMARK INTER:                 -10.420
REMARK INTRA:                  -0.879
REMARK UNBOUND:                -1.184
REMARK  Name = 
REMARK  6 active torsions:
REMARK  status: ('A' for Active; 'I' for Inactive)
REMARK    1  A    between atoms: C_2  and  C_25
REMARK    2  A    between atoms: N_3  and  C_4
REMARK    3  A    between atoms: C_4  and  C_5
REMARK    4  A    between atoms: C_8  and  C_9
REMARK    5  A    between atoms: C_9  and  N_10
REMARK    6  A    between atoms: C_11  and  C_13
REMARK                            x       y       z     vdW  Elec       q    Type
REMARK                         _______ _______ _______ _____ _____    ______ ____
ROOT
ATOM      1  C   UNL     1      44.904   4.821  11.724  0.00  0.00    +0.000 A 
ATOM      2  C   UNL     1      45.961   4.876  12.644  0.00  0.00    +0.000 A 
ATOM      3  C   UNL     1      46.486   6.107  13.059  0.00  0.00    +0.000 A 
ATOM      4  C   UNL     1      45.950   7.311  12.582  0.00  0.00    +0.000 A 
ATOM      5  C   UNL     1      44.903   7.253  11.652  0.00  0.00    +0.000 A 
ATOM      6  C   UNL     1      44.377   6.024  11.238  0.00  0.00    +0.000 A 
ENDROOT
BRANCH   1   7
ATOM      7  C   UNL     1      44.335   3.495  11.286  0.00  0.00    +0.000 C 
BRANCH   7  10
ATOM      8  O   UNL     1      44.257   3.908   8.517  0.00  0.00    +0.000 OA
ATOM      9  C   UNL     1      45.084   3.125   8.973  0.00  0.00    +0.000 C 
ATOM     10  N   UNL     1      45.187   2.850  10.321  0.00  0.00    +0.000 N 
ATOM     11  H   UNL     1      45.979   2.327  10.657  0.00  0.00    +0.000 HD
BRANCH   9  12
ATOM     12  C   UNL     1      46.035   2.435   8.147  0.00  0.00    +0.000 A 
ATOM     13  C   UNL     1      46.971   2.865   7.223  0.00  0.00    +0.000 A 
ATOM     14  C   UNL     1      47.600   1.697   6.757  0.00  0.00    +0.000 A 
ATOM     15  N   UNL     1      47.113   0.598   7.333  0.00  0.00    +0.000 NA
ATOM     16  N   UNL     1      46.178   1.069   8.179  0.00  0.00    +0.000 N 
ATOM     17  H   UNL     1      45.659   0.415   8.754  0.00  0.00    +0.000 HD
ENDBRANCH   9  12
ENDBRANCH   7  10
ENDBRANCH   1   7
BRANCH   4  18
ATOM     18  C   UNL     1      46.507   8.644  13.021  0.00  0.00    +0.000 C 
BRANCH  18  19
ATOM     19  N   UNL     1      46.924   8.603  14.400  0.00  0.00    +0.000 N 
ATOM     20  C   UNL     1      48.242   8.675  14.768  0.00  0.00    +0.000 C 
ATOM     21  O   UNL     1      49.145   8.832  13.949  0.00  0.00    +0.000 OA
ATOM     22  H   UNL     1      46.258   8.201  15.053  0.00  0.00    +0.000 HD
BRANCH  20  23
ATOM     23  C   UNL     1      48.510   8.620  16.211  0.00  0.00    +0.000 A 
ATOM     24  C   UNL     1      48.535   9.786  16.964  0.00  0.00    +0.000 A 
ATOM     25  S   UNL     1      48.772   9.514  18.634  0.00  0.00    +0.000 S 
ATOM     26  C   UNL     1      48.910   7.834  18.397  0.00  0.00    +0.000 A 
ATOM     27  N   UNL     1      49.140   6.993  19.442  0.00  0.00    +0.000 NA
ATOM     28  C   UNL     1      49.256   5.750  19.112  0.00  0.00    +0.000 A 
ATOM     29  N   UNL     1      49.159   5.270  17.831  0.00  0.00    +0.000 N 
ATOM     30  C   UNL     1      48.904   6.077  16.752  0.00  0.00    +0.000 A 
ATOM     31  O   UNL     1      48.790   5.612  15.622  0.00  0.00    +0.000 OA
ATOM     32  C   UNL     1      48.767   7.486  17.067  0.00  0.00    +0.000 A 
ATOM     33  H   UNL     1      49.254   4.284  17.637  0.00  0.00    +0.000 HD
ENDBRANCH  20  23
ENDBRANCH  18  19
ENDBRANCH   4  18
TORSDOF 6
ENDMDL
MODEL 3
REMARK VINA RESULT:    -7.316      4.643      9.443
REMARK INTER + INTRA:         -11.066
REMARK INTER:                 -10.261
REMARK INTRA:                  -0.805
REMARK UNBOUND:                -1.184
REMARK  Name = 
REMARK  6 active torsions:
REMARK  status: ('A' for Active; 'I' for Inactive)
REMARK    1  A    between atoms: C_2  and  C_25
REMARK    2  A    between atoms: N_3  and  C_4
REMARK    3  A    between atoms: C_4  and  C_5
REMARK    4  A    between atoms: C_8  and  C_9
REMARK    5  A    between atoms: C_9  and  N_10
REMARK    6  A    between atoms: C_11  and  C_13
REMARK                            x       y       z     vdW  Elec       q    Type
REMARK                         _______ _______ _______ _____ _____    ______ ____
ROOT
ATOM      1  C   UNL     1      51.397   2.972  17.748  0.00  0.00    +0.000 A 
ATOM      2  C   UNL     1      50.786   4.204  18.021  0.00  0.00    +0.000 A 
ATOM      3  C   UNL     1      49.424   4.402  17.758  0.00  0.00    +0.000 A 
ATOM      4  C   UNL     1      48.637   3.364  17.238  0.00  0.00    +0.000 A 
ATOM      5  C   UNL     1      49.254   2.138  16.953  0.00  0.00    +0.000 A 
ATOM      6  C   UNL     1      50.614   1.939  17.217  0.00  0.00    +0.000 A 
ENDROOT
BRANCH   1   7
ATOM      7  C   UNL     1      52.861   2.759  18.042  0.00  0.00    +0.000 C 
BRANCH   7  10
ATOM      8  O   UNL     1      54.623   0.957  16.822  0.00  0.00    +0.000 OA
ATOM      9  C   UNL     1      54.015   0.598  17.824  0.00  0.00    +0.000 C 
ATOM     10  N   UNL     1      53.118   1.413  18.484  0.00  0.00    +0.000 N 
ATOM     11  H   UNL     1      52.768   1.132  19.386  0.00  0.00    +0.000 HD
BRANCH   9  12
ATOM     12  C   UNL     1      54.193  -0.698  18.417  0.00  0.00    +0.000 A 
ATOM     13  C   UNL     1      55.303  -1.500  18.620  0.00  0.00    +0.000 A 
ATOM     14  C   UNL     1      54.818  -2.654  19.260  0.00  0.00    +0.000 A 
ATOM     15  N   UNL     1      53.501  -2.605  19.458  0.00  0.00    +0.000 NA
ATOM     16  N   UNL     1      53.147  -1.408  18.953  0.00  0.00    +0.000 N 
ATOM     17  H   UNL     1      52.174  -1.125  18.994  0.00  0.00    +0.000 HD
ENDBRANCH   9  12
ENDBRANCH   7  10
ENDBRANCH   1   7
BRANCH   4  18
ATOM     18  C   UNL     1      47.169   3.565  16.949  0.00  0.00    +0.000 C 
BRANCH  18  19
ATOM     19  N   UNL     1      46.973   4.562  15.928  0.00  0.00    +0.000 N 
ATOM     20  C   UNL     1      47.069   4.270  14.593  0.00  0.00    +0.000 C 
ATOM     21  O   UNL     1      47.276   3.130  14.183  0.00  0.00    +0.000 OA
ATOM     22  H   UNL     1      47.082   5.527  16.224  0.00  0.00    +0.000 HD
BRANCH  20  23
ATOM     23  C   UNL     1      46.843   5.392  13.672  0.00  0.00    +0.000 A 
ATOM     24  C   UNL     1      47.872   6.274  13.376  0.00  0.00    +0.000 A 
ATOM     25  S   UNL     1      47.446   7.457  12.219  0.00  0.00    +0.000 S 
ATOM     26  C   UNL     1      45.852   6.867  12.123  0.00  0.00    +0.000 A 
ATOM     27  N   UNL     1      44.933   7.452  11.307  0.00  0.00    +0.000 NA
ATOM     28  C   UNL     1      43.757   6.921  11.359  0.00  0.00    +0.000 A 
ATOM     29  N   UNL     1      43.416   5.856  12.152  0.00  0.00    +0.000 N 
ATOM     30  C   UNL     1      44.314   5.220  12.971  0.00  0.00    +0.000 A 
ATOM     31  O   UNL     1      43.985   4.248  13.643  0.00  0.00    +0.000 OA
ATOM     32  C   UNL     1      45.653   5.778  12.952  0.00  0.00    +0.000 A 
ATOM     33  H   UNL     1      42.479   5.482  12.145  0.00  0.00    +0.000 HD
ENDBRANCH  20  23
ENDBRANCH  18  19
ENDBRANCH   4  18
TORSDOF 6
ENDMDL
MODEL 4
REMARK VINA RESULT:    -7.303      2.336      2.733
REMARK INTER + INTRA:         -11.049
REMARK INTER:                 -10.086
REMARK INTRA:                  -0.963
REMARK UNBOUND:                -1.184
REMARK  Name = 
REMARK  6 active torsions:
REMARK  status: ('A' for Active; 'I' for Inactive)
REMARK    1  A    between atoms: C_2  and  C_25
REMARK    2  A    between atoms: N_3  and  C_4
REMARK    3  A    between atoms: C_4  and  C_5
REMARK    4  A    between atoms: C_8  and  C_9
REMARK    5  A    between atoms: C_9  and  N_10
REMARK    6  A    between atoms: C_11  and  C_13
REMARK                            x       y       z     vdW  Elec       q    Type
REMARK                         _______ _______ _______ _____ _____    ______ ____
ROOT
ATOM      1  C   UNL     1      45.056   5.319  11.530  0.00  0.00    +0.000 A 
ATOM      2  C   UNL     1      46.028   4.706  12.333  0.00  0.00    +0.000 A 
ATOM      3  C   UNL     1      46.935   5.474  13.074  0.00  0.00    +0.000 A 
ATOM      4  C   UNL     1      46.876   6.874  13.047  0.00  0.00    +0.000 A 
ATOM      5  C   UNL     1      45.912   7.486  12.233  0.00  0.00    +0.000 A 
ATOM      6  C   UNL     1      45.005   6.719  11.494  0.00  0.00    +0.000 A 
ENDROOT
BRANCH   1   7
ATOM      7  C   UNL     1      44.074   4.489  10.741  0.00  0.00    +0.000 C 
BRANCH   7  10
ATOM      8  O   UNL     1      45.266   4.782   8.224  0.00  0.00    +0.000 OA
ATOM      9  C   UNL     1      45.310   3.686   8.773  0.00  0.00    +0.000 C 
ATOM     10  N   UNL     1      44.740   3.445  10.006  0.00  0.00    +0.000 N 
ATOM     11  H   UNL     1      44.940   2.580  10.481  0.00  0.00    +0.000 HD
BRANCH   9  12
ATOM     12  C   UNL     1      45.975   2.553   8.190  0.00  0.00    +0.000 A 
ATOM     13  C   UNL     1      46.942   2.428   7.209  0.00  0.00    +0.000 A 
ATOM     14  C   UNL     1      47.182   1.048   7.095  0.00  0.00    +0.000 A 
ATOM     15  N   UNL     1      46.433   0.334   7.935  0.00  0.00    +0.000 NA
ATOM     16  N   UNL     1      45.722   1.266   8.597  0.00  0.00    +0.000 N 
ATOM     17  H   UNL     1      45.070   0.970   9.315  0.00  0.00    +0.000 HD
ENDBRANCH   9  12
ENDBRANCH   7  10
ENDBRANCH   1   7
BRANCH   4  18
ATOM     18  C   UNL     1      47.848   7.715  13.839  0.00  0.00    +0.000 C 
BRANCH  18  19
ATOM     19  N   UNL     1      47.916   7.274  15.210  0.00  0.00    +0.000 N 
ATOM     20  C   UNL     1      49.070   6.783  15.763  0.00  0.00    +0.000 C 
ATOM     21  O   UNL     1      50.130   6.738  15.141  0.00  0.00    +0.000 OA
ATOM     22  H   UNL     1      47.030   7.038  15.644  0.00  0.00    +0.000 HD
BRANCH  20  23
ATOM     23  C   UNL     1      48.984   6.374  17.171  0.00  0.00    +0.000 A 
ATOM     24  C   UNL     1      49.395   5.106  17.559  0.00  0.00    +0.000 A 
ATOM     25  S   UNL     1      49.304   4.846  19.245  0.00  0.00    +0.000 S 
ATOM     26  C   UNL     1      48.655   6.398  19.505  0.00  0.00    +0.000 A 
ATOM     27  N   UNL     1      48.325   6.822  20.755  0.00  0.00    +0.000 NA
ATOM     28  C   UNL     1      47.812   8.007  20.800  0.00  0.00    +0.000 A 
ATOM     29  N   UNL     1      47.601   8.808  19.707  0.00  0.00    +0.000 N 
ATOM     30  C   UNL     1      47.940   8.432  18.433  0.00  0.00    +0.000 A 
ATOM     31  O   UNL     1      47.769   9.186  17.480  0.00  0.00    +0.000 OA
ATOM     32  C   UNL     1      48.519   7.106  18.325  0.00  0.00    +0.000 A 
ATOM     33  H   UNL     1      47.200   9.729  19.807  0.00  0.00    +0.000 HD
ENDBRANCH  20  23
ENDBRANCH  18  19
ENDBRANCH   4  18
TORSDOF 6
ENDMDL
MODEL 5
REMARK VINA RESULT:    -7.053      2.719      4.275
REMARK INTER + INTRA:         -10.711
REMARK INTER:                  -9.676
REMARK INTRA:                  -1.035
REMARK UNBOUND:                -1.184
REMARK  Name = 
REMARK  6 active torsions:
REMARK  status: ('A' for Active; 'I' for Inactive)
REMARK    1  A    between atoms: C_2  and  C_25
REMARK    2  A    between atoms: N_3  and  C_4
REMARK    3  A    between atoms: C_4  and  C_5
REMARK    4  A    between atoms: C_8  and  C_9
REMARK    5  A    between atoms: C_9  and  N_10
REMARK    6  A    between atoms: C_11  and  C_13
REMARK                            x       y       z     vdW  Elec       q    Type
REMARK                         _______ _______ _______ _____ _____    ______ ____
ROOT
ATOM      1  C   UNL     1      45.158   4.667  10.943  0.00  0.00    +0.000 A 
ATOM      2  C   UNL     1      45.756   5.932  11.032  0.00  0.00    +0.000 A 
ATOM      3  C   UNL     1      46.457   6.314  12.184  0.00  0.00    +0.000 A 
ATOM      4  C   UNL     1      46.594   5.431  13.264  0.00  0.00    +0.000 A 
ATOM      5  C   UNL     1      45.984   4.172  13.178  0.00  0.00    +0.000 A 
ATOM      6  C   UNL     1      45.285   3.789  12.027  0.00  0.00    +0.000 A 
ENDROOT
BRANCH   1   7
ATOM      7  C   UNL     1      44.413   4.255   9.698  0.00  0.00    +0.000 C 
BRANCH   7  10
ATOM      8  O   UNL     1      45.238   1.671   8.998  0.00  0.00    +0.000 OA
ATOM      9  C   UNL     1      45.661   2.621   8.348  0.00  0.00    +0.000 C 
ATOM     10  N   UNL     1      45.319   3.928   8.628  0.00  0.00    +0.000 N 
ATOM     11  H   UNL     1      45.564   4.652   7.972  0.00  0.00    +0.000 HD
BRANCH   9  12
ATOM     12  C   UNL     1      46.538   2.460   7.221  0.00  0.00    +0.000 A 
ATOM     13  C   UNL     1      46.640   3.108   6.004  0.00  0.00    +0.000 A 
ATOM     14  C   UNL     1      47.710   2.486   5.337  0.00  0.00    +0.000 A 
ATOM     15  N   UNL     1      48.259   1.512   6.064  0.00  0.00    +0.000 NA
ATOM     16  N   UNL     1      47.543   1.524   7.204  0.00  0.00    +0.000 N 
ATOM     17  H   UNL     1      47.778   0.867   7.940  0.00  0.00    +0.000 HD
ENDBRANCH   9  12
ENDBRANCH   7  10
ENDBRANCH   1   7
BRANCH   4  18
ATOM     18  C   UNL     1      47.346   5.831  14.511  0.00  0.00    +0.000 C 
BRANCH  18  19
ATOM     19  N   UNL     1      48.640   6.374  14.185  0.00  0.00    +0.000 N 
ATOM     20  C   UNL     1      49.164   7.457  14.841  0.00  0.00    +0.000 C 
ATOM     21  O   UNL     1      48.588   7.998  15.782  0.00  0.00    +0.000 OA
ATOM     22  H   UNL     1      48.998   6.143  13.264  0.00  0.00    +0.000 HD
BRANCH  20  23
ATOM     23  C   UNL     1      50.494   7.895  14.396  0.00  0.00    +0.000 A 
ATOM     24  C   UNL     1      51.582   7.813  15.253  0.00  0.00    +0.000 A 
ATOM     25  S   UNL     1      53.057   8.282  14.530  0.00  0.00    +0.000 S 
ATOM     26  C   UNL     1      52.280   8.669  13.066  0.00  0.00    +0.000 A 
ATOM     27  N   UNL     1      52.980   9.156  12.005  0.00  0.00    +0.000 NA
ATOM     28  C   UNL     1      52.257   9.437  10.972  0.00  0.00    +0.000 A 
ATOM     29  N   UNL     1      50.898   9.274  10.902  0.00  0.00    +0.000 N 
ATOM     30  C   UNL     1      50.155   8.766  11.937  0.00  0.00    +0.000 A 
ATOM     31  O   UNL     1      48.944   8.601  11.831  0.00  0.00    +0.000 OA
ATOM     32  C   UNL     1      50.919   8.434  13.126  0.00  0.00    +0.000 A 
ATOM     33  H   UNL     1      50.389   9.508  10.063  0.00  0.00    +0.000 HD
ENDBRANCH  20  23
ENDBRANCH  18  19
ENDBRANCH   4  18
TORSDOF 6
ENDMDL
MODEL 6
REMARK VINA RESULT:    -6.797      3.560      8.349
REMARK INTER + INTRA:         -10.365
REMARK INTER:                  -9.547
REMARK INTRA:                  -0.818
REMARK UNBOUND:                -1.184
REMARK  Name = 
REMARK  6 active torsions:
REMARK  status: ('A' for Active; 'I' for Inactive)
REMARK    1  A    between atoms: C_2  and  C_25
REMARK    2  A    between atoms: N_3  and  C_4
REMARK    3  A    between atoms: C_4  and  C_5
REMARK    4  A    between atoms: C_8  and  C_9
REMARK    5  A    between atoms: C_9  and  N_10
REMARK    6  A    between atoms: C_11  and  C_13
REMARK                            x       y       z     vdW  Elec       q    Type
REMARK                         _______ _______ _______ _____ _____    ______ ____
ROOT
ATOM      1  C   UNL     1      48.947   4.857  17.258  0.00  0.00    +0.000 A 
ATOM      2  C   UNL     1      49.704   5.958  16.833  0.00  0.00    +0.000 A 
ATOM      3  C   UNL     1      49.385   6.632  15.646  0.00  0.00    +0.000 A 
ATOM      4  C   UNL     1      48.287   6.234  14.871  0.00  0.00    +0.000 A 
ATOM      5  C   UNL     1      47.541   5.124  15.291  0.00  0.00    +0.000 A 
ATOM      6  C   UNL     1      47.858   4.452  16.476  0.00  0.00    +0.000 A 
ENDROOT
BRANCH   1   7
ATOM      7  C   UNL     1      49.288   4.140  18.541  0.00  0.00    +0.000 C 
BRANCH   7  10
ATOM      8  O   UNL     1      49.793   1.841  17.024  0.00  0.00    +0.000 OA
ATOM      9  C   UNL     1      50.714   2.340  17.661  0.00  0.00    +0.000 C 
ATOM     10  N   UNL     1      50.556   3.465  18.445  0.00  0.00    +0.000 N 
ATOM     11  H   UNL     1      51.371   3.925  18.817  0.00  0.00    +0.000 HD
BRANCH   9  12
ATOM     12  C   UNL     1      52.050   1.812  17.636  0.00  0.00    +0.000 A 
ATOM     13  C   UNL     1      53.264   2.292  18.093  0.00  0.00    +0.000 A 
ATOM     14  C   UNL     1      54.205   1.298  17.771  0.00  0.00    +0.000 A 
ATOM     15  N   UNL     1      53.646   0.257  17.155  0.00  0.00    +0.000 NA
ATOM     16  N   UNL     1      52.341   0.583  17.097  0.00  0.00    +0.000 N 
ATOM     17  H   UNL     1      51.689  -0.067  16.672  0.00  0.00    +0.000 HD
ENDBRANCH   9  12
ENDBRANCH   7  10
ENDBRANCH   1   7
BRANCH   4  18
ATOM     18  C   UNL     1      47.933   6.951  13.590  0.00  0.00    +0.000 C 
BRANCH  18  19
ATOM     19  N   UNL     1      47.238   6.075  12.681  0.00  0.00    +0.000 N 
ATOM     20  C   UNL     1      46.262   6.528  11.832  0.00  0.00    +0.000 C 
ATOM     21  O   UNL     1      45.957   7.716  11.756  0.00  0.00    +0.000 OA
ATOM     22  H   UNL     1      47.262   5.087  12.912  0.00  0.00    +0.000 HD
BRANCH  20  23
ATOM     23  C   UNL     1      45.645   5.516  10.965  0.00  0.00    +0.000 A 
ATOM     24  C   UNL     1      45.768   5.606   9.586  0.00  0.00    +0.000 A 
ATOM     25  S   UNL     1      45.063   4.292   8.751  0.00  0.00    +0.000 S 
ATOM     26  C   UNL     1      44.516   3.592  10.203  0.00  0.00    +0.000 A 
ATOM     27  N   UNL     1      43.809   2.429  10.200  0.00  0.00    +0.000 NA
ATOM     28  C   UNL     1      43.431   2.031  11.370  0.00  0.00    +0.000 A 
ATOM     29  N   UNL     1      43.698   2.689  12.542  0.00  0.00    +0.000 N 
ATOM     30  C   UNL     1      44.427   3.849  12.595  0.00  0.00    +0.000 A 
ATOM     31  O   UNL     1      44.677   4.396  13.665  0.00  0.00    +0.000 OA
ATOM     32  C   UNL     1      44.876   4.343  11.306  0.00  0.00    +0.000 A 
ATOM     33  H   UNL     1      43.378   2.325  13.427  0.00  0.00    +0.000 HD
ENDBRANCH  20  23
ENDBRANCH  18  19
ENDBRANCH   4  18
TORSDOF 6
ENDMDL
MODEL 7
REMARK VINA RESULT:    -6.789      1.577      2.192
REMARK INTER + INTRA:         -10.355
REMARK INTER:                  -9.278
REMARK INTRA:                  -1.077
REMARK UNBOUND:                -1.184
REMARK  Name = 
REMARK  6 active torsions:
REMARK  status: ('A' for Active; 'I' for Inactive)
REMARK    1  A    between atoms: C_2  and  C_25
REMARK    2  A    between atoms: N_3  and  C_4
REMARK    3  A    between atoms: C_4  and  C_5
REMARK    4  A    between atoms: C_8  and  C_9
REMARK    5  A    between atoms: C_9  and  N_10
REMARK    6  A    between atoms: C_11  and  C_13
REMARK                            x       y       z     vdW  Elec       q    Type
REMARK                         _______ _______ _______ _____ _____    ______ ____
ROOT
ATOM      1  C   UNL     1      45.702   7.087  11.737  0.00  0.00    +0.000 A 
ATOM      2  C   UNL     1      47.022   6.614  11.762  0.00  0.00    +0.000 A 
ATOM      3  C   UNL     1      47.995   7.246  12.547  0.00  0.00    +0.000 A 
ATOM      4  C   UNL     1      47.664   8.352  13.343  0.00  0.00    +0.000 A 
ATOM      5  C   UNL     1      46.347   8.832  13.305  0.00  0.00    +0.000 A 
ATOM      6  C   UNL     1      45.375   8.200  12.522  0.00  0.00    +0.000 A 
ENDROOT
BRANCH   1   7
ATOM      7  C   UNL     1      44.655   6.398  10.898  0.00  0.00    +0.000 C 
BRANCH   7  10
ATOM      8  O   UNL     1      43.390   3.983  10.254  0.00  0.00    +0.000 OA
ATOM      9  C   UNL     1      44.523   4.186   9.830  0.00  0.00    +0.000 C 
ATOM     10  N   UNL     1      45.227   5.340  10.107  0.00  0.00    +0.000 N 
ATOM     11  H   UNL     1      46.083   5.526   9.608  0.00  0.00    +0.000 HD
BRANCH   9  12
ATOM     12  C   UNL     1      45.216   3.249   8.990  0.00  0.00    +0.000 A 
ATOM     13  C   UNL     1      45.939   3.385   7.819  0.00  0.00    +0.000 A 
ATOM     14  C   UNL     1      46.372   2.088   7.494  0.00  0.00    +0.000 A 
ATOM     15  N   UNL     1      45.963   1.182   8.382  0.00  0.00    +0.000 NA
ATOM     16  N   UNL     1      45.278   1.909   9.285  0.00  0.00    +0.000 N 
ATOM     17  H   UNL     1      44.865   1.439  10.084  0.00  0.00    +0.000 HD
ENDBRANCH   9  12
ENDBRANCH   7  10
ENDBRANCH   1   7
BRANCH   4  18
ATOM     18  C   UNL     1      48.703   9.044  14.192  0.00  0.00    +0.000 C 
BRANCH  18  19
ATOM     19  N   UNL     1      49.002   8.275  15.374  0.00  0.00    +0.000 N 
ATOM     20  C   UNL     1      50.199   7.630  15.543  0.00  0.00    +0.000 C 
ATOM     21  O   UNL     1      51.111   7.712  14.723  0.00  0.00    +0.000 OA
ATOM     22  H   UNL     1      48.201   7.963  15.914  0.00  0.00    +0.000 HD
BRANCH  20  23
ATOM     23  C   UNL     1      50.356   6.887  16.800  0.00  0.00    +0.000 A 
ATOM     24  C   UNL     1      51.331   7.256  17.716  0.00  0.00    +0.000 A 
ATOM     25  S   UNL     1      51.302   6.333  19.153  0.00  0.00    +0.000 S 
ATOM     26  C   UNL     1      50.024   5.370  18.573  0.00  0.00    +0.000 A 
ATOM     27  N   UNL     1      49.514   4.353  19.322  0.00  0.00    +0.000 NA
ATOM     28  C   UNL     1      48.571   3.686  18.744  0.00  0.00    +0.000 A 
ATOM     29  N   UNL     1      48.090   3.943  17.486  0.00  0.00    +0.000 N 
ATOM     30  C   UNL     1      48.557   4.971  16.707  0.00  0.00    +0.000 A 
ATOM     31  O   UNL     1      48.082   5.195  15.598  0.00  0.00    +0.000 OA
ATOM     32  C   UNL     1      49.621   5.753  17.308  0.00  0.00    +0.000 A 
ATOM     33  H   UNL     1      47.347   3.387  17.090  0.00  0.00    +0.000 HD
ENDBRANCH  20  23
ENDBRANCH  18  19
ENDBRANCH   4  18
TORSDOF 6
ENDMDL
MODEL 8
REMARK VINA RESULT:    -6.654      4.589      7.173
REMARK INTER + INTRA:         -10.172
REMARK INTER:                  -9.240
REMARK INTRA:                  -0.931
REMARK UNBOUND:                -1.184
REMARK  Name = 
REMARK  6 active torsions:
REMARK  status: ('A' for Active; 'I' for Inactive)
REMARK    1  A    between atoms: C_2  and  C_25
REMARK    2  A    between atoms: N_3  and  C_4
REMARK    3  A    between atoms: C_4  and  C_5
REMARK    4  A    between atoms: C_8  and  C_9
REMARK    5  A    between atoms: C_9  and  N_10
REMARK    6  A    between atoms: C_11  and  C_13
REMARK                            x       y       z     vdW  Elec       q    Type
REMARK                         _______ _______ _______ _____ _____    ______ ____
ROOT
ATOM      1  C   UNL     1      50.521   8.786  11.394  0.00  0.00    +0.000 A 
ATOM      2  C   UNL     1      49.738   9.892  11.755  0.00  0.00    +0.000 A 
ATOM      3  C   UNL     1      48.432   9.719  12.233  0.00  0.00    +0.000 A 
ATOM      4  C   UNL     1      47.889   8.436  12.382  0.00  0.00    +0.000 A 
ATOM      5  C   UNL     1      48.669   7.333  12.007  0.00  0.00    +0.000 A 
ATOM      6  C   UNL     1      49.973   7.505  11.531  0.00  0.00    +0.000 A 
ENDROOT
BRANCH   1   7
ATOM      7  C   UNL     1      51.930   8.975  10.889  0.00  0.00    +0.000 C 
BRANCH   7  10
ATOM      8  O   UNL     1      53.991   7.079  10.880  0.00  0.00    +0.000 OA
ATOM      9  C   UNL     1      53.260   7.158   9.899  0.00  0.00    +0.000 C 
ATOM     10  N   UNL     1      52.227   8.069   9.810  0.00  0.00    +0.000 N 
ATOM     11  H   UNL     1      51.562   7.987   9.058  0.00  0.00    +0.000 HD
BRANCH   9  12
ATOM     12  C   UNL     1      53.397   6.296   8.758  0.00  0.00    +0.000 A 
ATOM     13  C   UNL     1      54.155   5.165   8.515  0.00  0.00    +0.000 A 
ATOM     14  C   UNL     1      53.839   4.778   7.201  0.00  0.00    +0.000 A 
ATOM     15  N   UNL     1      52.946   5.592   6.637  0.00  0.00    +0.000 NA
ATOM     16  N   UNL     1      52.683   6.493   7.601  0.00  0.00    +0.000 N 
ATOM     17  H   UNL     1      52.011   7.230   7.417  0.00  0.00    +0.000 HD
ENDBRANCH   9  12
ENDBRANCH   7  10
ENDBRANCH   1   7
BRANCH   4  18
ATOM     18  C   UNL     1      46.483   8.236  12.895  0.00  0.00    +0.000 C 
BRANCH  18  19
ATOM     19  N   UNL     1      46.009   6.907  12.605  0.00  0.00    +0.000 N 
ATOM     20  C   UNL     1      44.971   6.673  11.742  0.00  0.00    +0.000 C 
ATOM     21  O   UNL     1      44.414   7.578  11.122  0.00  0.00    +0.000 OA
ATOM     22  H   UNL     1      46.244   6.194  13.288  0.00  0.00    +0.000 HD
BRANCH  20  23
ATOM     23  C   UNL     1      44.602   5.265  11.548  0.00  0.00    +0.000 A 
ATOM     24  C   UNL     1      43.903   4.581  12.533  0.00  0.00    +0.000 A 
ATOM     25  S   UNL     1      43.486   2.984  12.089  0.00  0.00    +0.000 S 
ATOM     26  C   UNL     1      44.279   3.135  10.590  0.00  0.00    +0.000 A 
ATOM     27  N   UNL     1      44.317   2.099   9.708  0.00  0.00    +0.000 NA
ATOM     28  C   UNL     1      44.981   2.343   8.627  0.00  0.00    +0.000 A 
ATOM     29  N   UNL     1      45.608   3.530   8.347  0.00  0.00    +0.000 N 
ATOM     30  C   UNL     1      45.575   4.607   9.195  0.00  0.00    +0.000 A 
ATOM     31  O   UNL     1      46.119   5.667   8.899  0.00  0.00    +0.000 OA
ATOM     32  C   UNL     1      44.844   4.386  10.428  0.00  0.00    +0.000 A 
ATOM     33  H   UNL     1      46.108   3.661   7.480  0.00  0.00    +0.000 HD
ENDBRANCH  20  23
ENDBRANCH  18  19
ENDBRANCH   4  18
TORSDOF 6
ENDMDL
MODEL 9
REMARK VINA RESULT:    -6.576      3.122      8.585
REMARK INTER + INTRA:         -10.066
REMARK INTER:                  -9.141
REMARK INTRA:                  -0.926
REMARK UNBOUND:                -1.184
REMARK  Name = 
REMARK  6 active torsions:
REMARK  status: ('A' for Active; 'I' for Inactive)
REMARK    1  A    between atoms: C_2  and  C_25
REMARK    2  A    between atoms: N_3  and  C_4
REMARK    3  A    between atoms: C_4  and  C_5
REMARK    4  A    between atoms: C_8  and  C_9
REMARK    5  A    between atoms: C_9  and  N_10
REMARK    6  A    between atoms: C_11  and  C_13
REMARK                            x       y       z     vdW  Elec       q    Type
REMARK                         _______ _______ _______ _____ _____    ______ ____
ROOT
ATOM      1  C   UNL     1      49.838   7.040  15.783  0.00  0.00    +0.000 A 
ATOM      2  C   UNL     1      48.751   6.186  15.549  0.00  0.00    +0.000 A 
ATOM      3  C   UNL     1      47.922   6.370  14.435  0.00  0.00    +0.000 A 
ATOM      4  C   UNL     1      48.174   7.400  13.518  0.00  0.00    +0.000 A 
ATOM      5  C   UNL     1      49.253   8.261  13.761  0.00  0.00    +0.000 A 
ATOM      6  C   UNL     1      50.083   8.076  14.873  0.00  0.00    +0.000 A 
ENDROOT
BRANCH   1   7
ATOM      7  C   UNL     1      50.735   6.833  16.978  0.00  0.00    +0.000 C 
BRANCH   7  10
ATOM      8  O   UNL     1      49.948   4.842  18.783  0.00  0.00    +0.000 OA
ATOM      9  C   UNL     1      50.797   4.571  17.941  0.00  0.00    +0.000 C 
ATOM     10  N   UNL     1      51.254   5.490  17.019  0.00  0.00    +0.000 N 
ATOM     11  H   UNL     1      51.828   5.177  16.253  0.00  0.00    +0.000 HD
BRANCH   9  12
ATOM     12  C   UNL     1      51.381   3.263  17.821  0.00  0.00    +0.000 A 
ATOM     13  C   UNL     1      52.661   2.778  18.024  0.00  0.00    +0.000 A 
ATOM     14  C   UNL     1      52.587   1.402  17.745  0.00  0.00    +0.000 A 
ATOM     15  N   UNL     1      51.359   1.024  17.391  0.00  0.00    +0.000 NA
ATOM     16  N   UNL     1      50.644   2.163  17.458  0.00  0.00    +0.000 N 
ATOM     17  H   UNL     1      49.654   2.136  17.239  0.00  0.00    +0.000 HD
ENDBRANCH   9  12
ENDBRANCH   7  10
ENDBRANCH   1   7
BRANCH   4  18
ATOM     18  C   UNL     1      47.288   7.610  12.314  0.00  0.00    +0.000 C 
BRANCH  18  19
ATOM     19  N   UNL     1      46.629   6.386  11.935  0.00  0.00    +0.000 N 
ATOM     20  C   UNL     1      45.267   6.296  11.816  0.00  0.00    +0.000 C 
ATOM     21  O   UNL     1      44.527   7.266  11.972  0.00  0.00    +0.000 OA
ATOM     22  H   UNL     1      47.162   5.534  12.075  0.00  0.00    +0.000 HD
BRANCH  20  23
ATOM     23  C   UNL     1      44.742   4.982  11.422  0.00  0.00    +0.000 A 
ATOM     24  C   UNL     1      43.973   4.240  12.308  0.00  0.00    +0.000 A 
ATOM     25  S   UNL     1      43.379   2.784  11.641  0.00  0.00    +0.000 S 
ATOM     26  C   UNL     1      44.180   3.067  10.166  0.00  0.00    +0.000 A 
ATOM     27  N   UNL     1      44.101   2.177   9.140  0.00  0.00    +0.000 NA
ATOM     28  C   UNL     1      44.785   2.505   8.094  0.00  0.00    +0.000 A 
ATOM     29  N   UNL     1      45.541   3.643   7.981  0.00  0.00    +0.000 N 
ATOM     30  C   UNL     1      45.631   4.579   8.980  0.00  0.00    +0.000 A 
ATOM     31  O   UNL     1      46.290   5.604   8.834  0.00  0.00    +0.000 OA
ATOM     32  C   UNL     1      44.882   4.259  10.180  0.00  0.00    +0.000 A 
ATOM     33  H   UNL     1      46.051   3.846   7.135  0.00  0.00    +0.000 HD
ENDBRANCH  20  23
ENDBRANCH  18  19
ENDBRANCH   4  18
TORSDOF 6
ENDMDL
