MODEL 1
REMARK VINA RESULT:    -8.949      0.000      0.000
REMARK INTER + INTRA:         -12.056
REMARK INTER:                 -11.565
REMARK INTRA:                  -0.492
REMARK UNBOUND:                -0.492
REMARK  Name = 
REMARK  6 active torsions:
REMARK  status: ('A' for Active; 'I' for Inactive)
REMARK    1  A    between atoms: C_1  and  C_2
REMARK    2  A    between atoms: C_2  and  N_3
REMARK    3  A    between atoms: C_2  and  C_16
REMARK    4  A    between atoms: C_4  and  C_6
REMARK    5  A    between atoms: C_19  and  O_20
REMARK    6  A    between atoms: O_20  and  C_21
REMARK                            x       y       z     vdW  Elec       q    Type
REMARK                         _______ _______ _______ _____ _____    ______ ____
ROOT
ATOM      1  C   UNL     1      46.741   8.479  12.029  0.00  0.00    +0.000 C 
ATOM      2  C   UNL     1      46.018   7.349  12.774  0.00  0.00    +0.000 C 
ENDROOT
BRANCH   2   3
ATOM      3  C   UNL     1      45.679   6.197  11.841  0.00  0.00    +0.000 A 
ATOM      4  C   UNL     1      44.996   5.087  12.347  0.00  0.00    +0.000 A 
ATOM      5  C   UNL     1      44.648   4.025  11.516  0.00  0.00    +0.000 A 
ATOM      6  C   UNL     1      44.913   4.080  10.145  0.00  0.00    +0.000 A 
ATOM      7  C   UNL     1      45.620   5.166   9.633  0.00  0.00    +0.000 A 
ATOM      8  C   UNL     1      46.018   6.207  10.476  0.00  0.00    +0.000 A 
BRANCH   6   9
ATOM      9  O   UNL     1      44.551   3.105   9.239  0.00  0.00    +0.000 OA
BRANCH   9  10
ATOM     10  C   UNL     1      45.460   2.711   8.279  0.00  0.00    +0.000 A 
ATOM     11  C   UNL     1      45.837   3.526   7.207  0.00  0.00    +0.000 A 
ATOM     12  C   UNL     1      46.719   3.049   6.242  0.00  0.00    +0.000 A 
ATOM     13  C   UNL     1      47.281   1.784   6.384  0.00  0.00    +0.000 A 
ATOM     14  C   UNL     1      46.955   0.989   7.484  0.00  0.00    +0.000 A 
ATOM     15  C   UNL     1      46.039   1.451   8.431  0.00  0.00    +0.000 A 
ENDBRANCH   9  10
ENDBRANCH   6   9
ENDBRANCH   2   3
BRANCH   2  16
ATOM     16  N   UNL     1      46.731   6.851  13.943  0.00  0.00    +0.000 N 
ATOM     17  C   UNL     1      48.048   6.449  13.942  0.00  0.00    +0.000 C 
ATOM     18  O   UNL     1      48.742   6.409  12.948  0.00  0.00    +0.000 OA
ATOM     19  H   UNL     1      46.151   6.571  14.723  0.00  0.00    +0.000 HD
BRANCH  17  20
ATOM     20  C   UNL     1      48.602   6.095  15.258  0.00  0.00    +0.000 A 
ATOM     21  C   UNL     1      49.683   6.808  15.762  0.00  0.00    +0.000 A 
ATOM     22  S   UNL     1      50.224   6.237  17.275  0.00  0.00    +0.000 S 
ATOM     23  C   UNL     1      49.064   4.992  17.279  0.00  0.00    +0.000 A 
ATOM     24  N   UNL     1      49.016   4.077  18.284  0.00  0.00    +0.000 NA
ATOM     25  C   UNL     1      48.126   3.157  18.124  0.00  0.00    +0.000 A 
ATOM     26  N   UNL     1      47.262   3.078  17.058  0.00  0.00    +0.000 N 
ATOM     27  C   UNL     1      47.228   4.018  16.062  0.00  0.00    +0.000 A 
ATOM     28  O   UNL     1      46.374   3.986  15.173  0.00  0.00    +0.000 OA
ATOM     29  C   UNL     1      48.245   5.040  16.166  0.00  0.00    +0.000 A 
ATOM     30  H   UNL     1      46.569   2.347  17.010  0.00  0.00    +0.000 HD
ENDBRANCH  17  20
ENDBRANCH   2  16
TORSDOF 5
ENDMDL
MODEL 2
REMARK VINA RESULT:    -7.895      1.620      2.291
REMARK INTER + INTRA:         -10.695
REMARK INTER:                  -9.313
REMARK INTRA:                  -1.382
REMARK UNBOUND:                -0.492
REMARK  Name = 
REMARK  6 active torsions:
REMARK  status: ('A' for Active; 'I' for Inactive)
REMARK    1  A    between atoms: C_1  and  C_2
REMARK    2  A    between atoms: C_2  and  N_3
REMARK    3  A    between atoms: C_2  and  C_16
REMARK    4  A    between atoms: C_4  and  C_6
REMARK    5  A    between atoms: C_19  and  O_20
REMARK    6  A    between atoms: O_20  and  C_21
REMARK                            x       y       z     vdW  Elec       q    Type
REMARK                         _______ _______ _______ _____ _____    ______ ____
ROOT
ATOM      1  C   UNL     1      48.115   9.407  13.309  0.00  0.00    +0.000 C 
ATOM      2  C   UNL     1      47.501   8.205  14.040  0.00  0.00    +0.000 C 
ENDROOT
BRANCH   2   3
ATOM      3  C   UNL     1      46.696   7.331  13.091  0.00  0.00    +0.000 A 
ATOM      4  C   UNL     1      46.905   5.948  13.094  0.00  0.00    +0.000 A 
ATOM      5  C   UNL     1      46.169   5.114  12.256  0.00  0.00    +0.000 A 
ATOM      6  C   UNL     1      45.157   5.636  11.446  0.00  0.00    +0.000 A 
ATOM      7  C   UNL     1      44.958   7.015  11.410  0.00  0.00    +0.000 A 
ATOM      8  C   UNL     1      45.734   7.859  12.211  0.00  0.00    +0.000 A 
BRANCH   6   9
ATOM      9  O   UNL     1      44.338   4.881  10.633  0.00  0.00    +0.000 OA
BRANCH   9  10
ATOM     10  C   UNL     1      44.911   4.040   9.700  0.00  0.00    +0.000 A 
ATOM     11  C   UNL     1      44.767   2.650   9.738  0.00  0.00    +0.000 A 
ATOM     12  C   UNL     1      45.415   1.853   8.799  0.00  0.00    +0.000 A 
ATOM     13  C   UNL     1      46.149   2.449   7.777  0.00  0.00    +0.000 A 
ATOM     14  C   UNL     1      46.248   3.838   7.699  0.00  0.00    +0.000 A 
ATOM     15  C   UNL     1      45.631   4.636   8.665  0.00  0.00    +0.000 A 
ENDBRANCH   9  10
ENDBRANCH   6   9
ENDBRANCH   2   3
BRANCH   2  16
ATOM     16  N   UNL     1      48.464   7.393  14.771  0.00  0.00    +0.000 N 
ATOM     17  C   UNL     1      48.794   7.575  16.095  0.00  0.00    +0.000 C 
ATOM     18  O   UNL     1      48.361   8.477  16.782  0.00  0.00    +0.000 OA
ATOM     19  H   UNL     1      49.082   6.828  14.202  0.00  0.00    +0.000 HD
BRANCH  17  20
ATOM     20  C   UNL     1      49.700   6.566  16.666  0.00  0.00    +0.000 A 
ATOM     21  C   UNL     1      51.003   6.921  16.993  0.00  0.00    +0.000 A 
ATOM     22  S   UNL     1      51.925   5.621  17.601  0.00  0.00    +0.000 S 
ATOM     23  C   UNL     1      50.628   4.538  17.401  0.00  0.00    +0.000 A 
ATOM     24  N   UNL     1      50.766   3.215  17.680  0.00  0.00    +0.000 NA
ATOM     25  C   UNL     1      49.720   2.505  17.423  0.00  0.00    +0.000 A 
ATOM     26  N   UNL     1      48.537   3.000  16.930  0.00  0.00    +0.000 N 
ATOM     27  C   UNL     1      48.332   4.336  16.702  0.00  0.00    +0.000 A 
ATOM     28  O   UNL     1      47.229   4.771  16.362  0.00  0.00    +0.000 OA
ATOM     29  C   UNL     1      49.493   5.168  16.921  0.00  0.00    +0.000 A 
ATOM     30  H   UNL     1      47.746   2.392  16.779  0.00  0.00    +0.000 HD
ENDBRANCH  17  20
ENDBRANCH   2  16
TORSDOF 5
ENDMDL
MODEL 3
REMARK VINA RESULT:    -7.685      2.114      2.945
REMARK INTER + INTRA:         -10.422
REMARK INTER:                  -9.319
REMARK INTRA:                  -1.104
REMARK UNBOUND:                -0.492
REMARK  Name = 
REMARK  6 active torsions:
REMARK  status: ('A' for Active; 'I' for Inactive)
REMARK    1  A    between atoms: C_1  and  C_2
REMARK    2  A    between atoms: C_2  and  N_3
REMARK    3  A    between atoms: C_2  and  C_16
REMARK    4  A    between atoms: C_4  and  C_6
REMARK    5  A    between atoms: C_19  and  O_20
REMARK    6  A    between atoms: O_20  and  C_21
REMARK                            x       y       z     vdW  Elec       q    Type
REMARK                         _______ _______ _______ _____ _____    ______ ____
ROOT
ATOM      1  C   UNL     1      49.604   7.705  13.218  0.00  0.00    +0.000 C 
ATOM      2  C   UNL     1      48.220   7.872  13.858  0.00  0.00    +0.000 C 
ENDROOT
BRANCH   2   3
ATOM      3  C   UNL     1      47.161   7.081  13.106  0.00  0.00    +0.000 A 
ATOM      4  C   UNL     1      46.346   7.739  12.179  0.00  0.00    +0.000 A 
ATOM      5  C   UNL     1      45.383   7.042  11.455  0.00  0.00    +0.000 A 
ATOM      6  C   UNL     1      45.259   5.656  11.588  0.00  0.00    +0.000 A 
ATOM      7  C   UNL     1      46.043   4.992  12.529  0.00  0.00    +0.000 A 
ATOM      8  C   UNL     1      46.973   5.700  13.297  0.00  0.00    +0.000 A 
BRANCH   6   9
ATOM      9  O   UNL     1      44.378   4.877  10.868  0.00  0.00    +0.000 OA
BRANCH   9  10
ATOM     10  C   UNL     1      44.869   4.049   9.879  0.00  0.00    +0.000 A 
ATOM     11  C   UNL     1      44.663   2.666   9.871  0.00  0.00    +0.000 A 
ATOM     12  C   UNL     1      45.230   1.880   8.874  0.00  0.00    +0.000 A 
ATOM     13  C   UNL     1      45.945   2.482   7.842  0.00  0.00    +0.000 A 
ATOM     14  C   UNL     1      46.104   3.868   7.811  0.00  0.00    +0.000 A 
ATOM     15  C   UNL     1      45.569   4.654   8.834  0.00  0.00    +0.000 A 
ENDBRANCH   9  10
ENDBRANCH   6   9
ENDBRANCH   2   3
BRANCH   2  16
ATOM     16  N   UNL     1      48.173   7.543  15.277  0.00  0.00    +0.000 N 
ATOM     17  C   UNL     1      48.693   8.331  16.278  0.00  0.00    +0.000 C 
ATOM     18  O   UNL     1      49.307   9.360  16.080  0.00  0.00    +0.000 OA
ATOM     19  H   UNL     1      47.956   6.580  15.497  0.00  0.00    +0.000 HD
BRANCH  17  20
ATOM     20  C   UNL     1      48.429   7.869  17.650  0.00  0.00    +0.000 A 
ATOM     21  C   UNL     1      48.030   8.783  18.617  0.00  0.00    +0.000 A 
ATOM     22  S   UNL     1      47.812   8.085  20.158  0.00  0.00    +0.000 S 
ATOM     23  C   UNL     1      48.288   6.553  19.590  0.00  0.00    +0.000 A 
ATOM     24  N   UNL     1      48.384   5.488  20.430  0.00  0.00    +0.000 NA
ATOM     25  C   UNL     1      48.815   4.408  19.873  0.00  0.00    +0.000 A 
ATOM     26  N   UNL     1      49.142   4.286  18.544  0.00  0.00    +0.000 N 
ATOM     27  C   UNL     1      48.993   5.313  17.649  0.00  0.00    +0.000 A 
ATOM     28  O   UNL     1      49.190   5.151  16.442  0.00  0.00    +0.000 OA
ATOM     29  C   UNL     1      48.565   6.564  18.234  0.00  0.00    +0.000 A 
ATOM     30  H   UNL     1      49.445   3.402  18.166  0.00  0.00    +0.000 HD
ENDBRANCH  17  20
ENDBRANCH   2  16
TORSDOF 5
ENDMDL
MODEL 4
REMARK VINA RESULT:    -7.484      2.940      4.062
REMARK INTER + INTRA:         -10.163
REMARK INTER:                  -9.031
REMARK INTRA:                  -1.132
REMARK UNBOUND:                -0.492
REMARK  Name = 
REMARK  6 active torsions:
REMARK  status: ('A' for Active; 'I' for Inactive)
REMARK    1  A    between atoms: C_1  and  C_2
REMARK    2  A    between atoms: C_2  and  N_3
REMARK    3  A    between atoms: C_2  and  C_16
REMARK    4  A    between atoms: C_4  and  C_6
REMARK    5  A    between atoms: C_19  and  O_20
REMARK    6  A    between atoms: O_20  and  C_21
REMARK                            x       y       z     vdW  Elec       q    Type
REMARK                         _______ _______ _______ _____ _____    ______ ____
ROOT
ATOM      1  C   UNL     1      47.281   4.008  16.310  0.00  0.00    +0.000 C 
ATOM      2  C   UNL     1      47.758   4.866  15.130  0.00  0.00    +0.000 C 
ENDROOT
BRANCH   2   3
ATOM      3  C   UNL     1      46.869   4.676  13.911  0.00  0.00    +0.000 A 
ATOM      4  C   UNL     1      46.565   5.780  13.109  0.00  0.00    +0.000 A 
ATOM      5  C   UNL     1      45.774   5.639  11.971  0.00  0.00    +0.000 A 
ATOM      6  C   UNL     1      45.327   4.377  11.570  0.00  0.00    +0.000 A 
ATOM      7  C   UNL     1      45.596   3.273  12.376  0.00  0.00    +0.000 A 
ATOM      8  C   UNL     1      46.344   3.422  13.548  0.00  0.00    +0.000 A 
BRANCH   6   9
ATOM      9  O   UNL     1      44.593   4.134  10.428  0.00  0.00    +0.000 OA
BRANCH   9  10
ATOM     10  C   UNL     1      45.216   3.560   9.340  0.00  0.00    +0.000 A 
ATOM     11  C   UNL     1      45.296   2.177   9.150  0.00  0.00    +0.000 A 
ATOM     12  C   UNL     1      45.987   1.659   8.058  0.00  0.00    +0.000 A 
ATOM     13  C   UNL     1      46.537   2.524   7.115  0.00  0.00    +0.000 A 
ATOM     14  C   UNL     1      46.409   3.904   7.268  0.00  0.00    +0.000 A 
ATOM     15  C   UNL     1      45.751   4.425   8.384  0.00  0.00    +0.000 A 
ENDBRANCH   9  10
ENDBRANCH   6   9
ENDBRANCH   2   3
BRANCH   2  16
ATOM     16  N   UNL     1      47.890   6.284  15.435  0.00  0.00    +0.000 N 
ATOM     17  C   UNL     1      49.083   6.921  15.687  0.00  0.00    +0.000 C 
ATOM     18  O   UNL     1      50.155   6.353  15.744  0.00  0.00    +0.000 OA
ATOM     19  H   UNL     1      47.035   6.756  15.703  0.00  0.00    +0.000 HD
BRANCH  17  20
ATOM     20  C   UNL     1      49.000   8.381  15.853  0.00  0.00    +0.000 A 
ATOM     21  C   UNL     1      49.531   9.214  14.877  0.00  0.00    +0.000 A 
ATOM     22  S   UNL     1      49.387  10.872  15.251  0.00  0.00    +0.000 S 
ATOM     23  C   UNL     1      48.654  10.525  16.748  0.00  0.00    +0.000 A 
ATOM     24  N   UNL     1      48.323  11.516  17.617  0.00  0.00    +0.000 NA
ATOM     25  C   UNL     1      47.833  11.101  18.735  0.00  0.00    +0.000 A 
ATOM     26  N   UNL     1      47.623   9.782  19.060  0.00  0.00    +0.000 N 
ATOM     27  C   UNL     1      47.876   8.757  18.187  0.00  0.00    +0.000 A 
ATOM     28  O   UNL     1      47.580   7.591  18.458  0.00  0.00    +0.000 OA
ATOM     29  C   UNL     1      48.480   9.166  16.938  0.00  0.00    +0.000 A 
ATOM     30  H   UNL     1      47.207   9.529  19.943  0.00  0.00    +0.000 HD
ENDBRANCH  17  20
ENDBRANCH   2  16
TORSDOF 5
ENDMDL
MODEL 5
REMARK VINA RESULT:    -7.467      2.165      3.206
REMARK INTER + INTRA:         -10.141
REMARK INTER:                  -9.035
REMARK INTRA:                  -1.106
REMARK UNBOUND:                -0.492
REMARK  Name = 
REMARK  6 active torsions:
REMARK  status: ('A' for Active; 'I' for Inactive)
REMARK    1  A    between atoms: C_1  and  C_2
REMARK    2  A    between atoms: C_2  and  N_3
REMARK    3  A    between atoms: C_2  and  C_16
REMARK    4  A    between atoms: C_4  and  C_6
REMARK    5  A    between atoms: C_19  and  O_20
REMARK    6  A    between atoms: O_20  and  C_21
REMARK                            x       y       z     vdW  Elec       q    Type
REMARK                         _______ _______ _______ _____ _____    ______ ____
ROOT
ATOM      1  C   UNL     1      48.956   8.320  13.050  0.00  0.00    +0.000 C 
ATOM      2  C   UNL     1      47.922   7.568  13.898  0.00  0.00    +0.000 C 
ENDROOT
BRANCH   2   3
ATOM      3  C   UNL     1      46.921   6.828  13.025  0.00  0.00    +0.000 A 
ATOM      4  C   UNL     1      46.215   7.534  12.046  0.00  0.00    +0.000 A 
ATOM      5  C   UNL     1      45.308   6.884  11.212  0.00  0.00    +0.000 A 
ATOM      6  C   UNL     1      45.138   5.499  11.291  0.00  0.00    +0.000 A 
ATOM      7  C   UNL     1      45.812   4.787  12.282  0.00  0.00    +0.000 A 
ATOM      8  C   UNL     1      46.682   5.448  13.155  0.00  0.00    +0.000 A 
BRANCH   6   9
ATOM      9  O   UNL     1      44.311   4.764  10.468  0.00  0.00    +0.000 OA
BRANCH   9  10
ATOM     10  C   UNL     1      44.872   3.868   9.581  0.00  0.00    +0.000 A 
ATOM     11  C   UNL     1      44.756   2.482   9.724  0.00  0.00    +0.000 A 
ATOM     12  C   UNL     1      45.391   1.630   8.826  0.00  0.00    +0.000 A 
ATOM     13  C   UNL     1      46.083   2.162   7.741  0.00  0.00    +0.000 A 
ATOM     14  C   UNL     1      46.152   3.543   7.559  0.00  0.00    +0.000 A 
ATOM     15  C   UNL     1      45.549   4.399   8.483  0.00  0.00    +0.000 A 
ENDBRANCH   9  10
ENDBRANCH   6   9
ENDBRANCH   2   3
BRANCH   2  16
ATOM     16  N   UNL     1      48.499   6.657  14.877  0.00  0.00    +0.000 N 
ATOM     17  C   UNL     1      48.766   6.985  16.187  0.00  0.00    +0.000 C 
ATOM     18  O   UNL     1      48.607   8.094  16.653  0.00  0.00    +0.000 OA
ATOM     19  H   UNL     1      48.935   5.826  14.498  0.00  0.00    +0.000 HD
BRANCH  17  20
ATOM     20  C   UNL     1      49.237   5.877  17.034  0.00  0.00    +0.000 A 
ATOM     21  C   UNL     1      48.316   5.118  17.744  0.00  0.00    +0.000 A 
ATOM     22  S   UNL     1      49.036   3.908  18.707  0.00  0.00    +0.000 S 
ATOM     23  C   UNL     1      50.599   4.392  18.240  0.00  0.00    +0.000 A 
ATOM     24  N   UNL     1      51.705   3.797  18.759  0.00  0.00    +0.000 NA
ATOM     25  C   UNL     1      52.821   4.307  18.360  0.00  0.00    +0.000 A 
ATOM     26  N   UNL     1      52.934   5.350  17.472  0.00  0.00    +0.000 N 
ATOM     27  C   UNL     1      51.848   5.931  16.872  0.00  0.00    +0.000 A 
ATOM     28  O   UNL     1      51.978   6.792  15.998  0.00  0.00    +0.000 OA
ATOM     29  C   UNL     1      50.570   5.432  17.327  0.00  0.00    +0.000 A 
ATOM     30  H   UNL     1      53.840   5.682  17.180  0.00  0.00    +0.000 HD
ENDBRANCH  17  20
ENDBRANCH   2  16
TORSDOF 5
ENDMDL
MODEL 6
REMARK VINA RESULT:    -7.291      3.914      8.190
REMARK INTER + INTRA:          -9.914
REMARK INTER:                  -8.556
REMARK INTRA:                  -1.358
REMARK UNBOUND:                -0.492
REMARK  Name = 
REMARK  6 active torsions:
REMARK  status: ('A' for Active; 'I' for Inactive)
REMARK    1  A    between atoms: C_1  and  C_2
REMARK    2  A    between atoms: C_2  and  N_3
REMARK    3  A    between atoms: C_2  and  C_16
REMARK    4  A    between atoms: C_4  and  C_6
REMARK    5  A    between atoms: C_19  and  O_20
REMARK    6  A    between atoms: O_20  and  C_21
REMARK                            x       y       z     vdW  Elec       q    Type
REMARK                         _______ _______ _______ _____ _____    ______ ____
ROOT
ATOM      1  C   UNL     1      48.232   9.425  15.666  0.00  0.00    +0.000 C 
ATOM      2  C   UNL     1      48.708   8.107  15.040  0.00  0.00    +0.000 C 
ENDROOT
BRANCH   2   3
ATOM      3  C   UNL     1      49.483   7.265  16.041  0.00  0.00    +0.000 A 
ATOM      4  C   UNL     1      48.823   6.766  17.168  0.00  0.00    +0.000 A 
ATOM      5  C   UNL     1      49.495   5.971  18.094  0.00  0.00    +0.000 A 
ATOM      6  C   UNL     1      50.825   5.598  17.876  0.00  0.00    +0.000 A 
ATOM      7  C   UNL     1      51.503   6.112  16.773  0.00  0.00    +0.000 A 
ATOM      8  C   UNL     1      50.845   6.955  15.872  0.00  0.00    +0.000 A 
BRANCH   6   9
ATOM      9  O   UNL     1      51.549   4.766  18.704  0.00  0.00    +0.000 OA
BRANCH   9  10
ATOM     10  C   UNL     1      51.855   3.491  18.272  0.00  0.00    +0.000 A 
ATOM     11  C   UNL     1      50.921   2.650  17.660  0.00  0.00    +0.000 A 
ATOM     12  C   UNL     1      51.279   1.355  17.296  0.00  0.00    +0.000 A 
ATOM     13  C   UNL     1      52.590   0.923  17.477  0.00  0.00    +0.000 A 
ATOM     14  C   UNL     1      53.541   1.779  18.033  0.00  0.00    +0.000 A 
ATOM     15  C   UNL     1      53.173   3.064  18.436  0.00  0.00    +0.000 A 
ENDBRANCH   9  10
ENDBRANCH   6   9
ENDBRANCH   2   3
BRANCH   2  16
ATOM     16  N   UNL     1      47.647   7.313  14.436  0.00  0.00    +0.000 N 
ATOM     17  C   UNL     1      47.836   6.391  13.431  0.00  0.00    +0.000 C 
ATOM     18  O   UNL     1      48.905   6.186  12.894  0.00  0.00    +0.000 OA
ATOM     19  H   UNL     1      46.704   7.637  14.610  0.00  0.00    +0.000 HD
BRANCH  17  20
ATOM     20  C   UNL     1      46.645   5.614  13.051  0.00  0.00    +0.000 A 
ATOM     21  C   UNL     1      46.639   4.237  13.232  0.00  0.00    +0.000 A 
ATOM     22  S   UNL     1      45.201   3.491  12.699  0.00  0.00    +0.000 S 
ATOM     23  C   UNL     1      44.564   4.978  12.169  0.00  0.00    +0.000 A 
ATOM     24  N   UNL     1      43.360   5.046  11.543  0.00  0.00    +0.000 NA
ATOM     25  C   UNL     1      43.033   6.227  11.143  0.00  0.00    +0.000 A 
ATOM     26  N   UNL     1      43.793   7.357  11.329  0.00  0.00    +0.000 N 
ATOM     27  C   UNL     1      44.979   7.346  12.016  0.00  0.00    +0.000 A 
ATOM     28  O   UNL     1      45.591   8.388  12.264  0.00  0.00    +0.000 OA
ATOM     29  C   UNL     1      45.417   6.034  12.437  0.00  0.00    +0.000 A 
ATOM     30  H   UNL     1      43.464   8.257  11.016  0.00  0.00    +0.000 HD
ENDBRANCH  17  20
ENDBRANCH   2  16
TORSDOF 5
ENDMDL
MODEL 7
REMARK VINA RESULT:    -7.223      3.409      7.903
REMARK INTER + INTRA:          -9.825
REMARK INTER:                  -9.202
REMARK INTRA:                  -0.623
REMARK UNBOUND:                -0.492
REMARK  Name = 
REMARK  6 active torsions:
REMARK  status: ('A' for Active; 'I' for Inactive)
REMARK    1  A    between atoms: C_1  and  C_2
REMARK    2  A    between atoms: C_2  and  N_3
REMARK    3  A    between atoms: C_2  and  C_16
REMARK    4  A    between atoms: C_4  and  C_6
REMARK    5  A    between atoms: C_19  and  O_20
REMARK    6  A    between atoms: O_20  and  C_21
REMARK                            x       y       z     vdW  Elec       q    Type
REMARK                         _______ _______ _______ _____ _____    ______ ____
ROOT
ATOM      1  C   UNL     1      47.446   8.669  13.990  0.00  0.00    +0.000 C 
ATOM      2  C   UNL     1      48.146   7.344  13.661  0.00  0.00    +0.000 C 
ENDROOT
BRANCH   2   3
ATOM      3  C   UNL     1      48.631   6.645  14.921  0.00  0.00    +0.000 A 
ATOM      4  C   UNL     1      47.866   5.608  15.465  0.00  0.00    +0.000 A 
ATOM      5  C   UNL     1      48.292   4.929  16.604  0.00  0.00    +0.000 A 
ATOM      6  C   UNL     1      49.528   5.224  17.185  0.00  0.00    +0.000 A 
ATOM      7  C   UNL     1      50.287   6.275  16.673  0.00  0.00    +0.000 A 
ATOM      8  C   UNL     1      49.834   6.993  15.562  0.00  0.00    +0.000 A 
BRANCH   6   9
ATOM      9  O   UNL     1      50.058   4.564  18.274  0.00  0.00    +0.000 OA
BRANCH   9  10
ATOM     10  C   UNL     1      50.931   3.517  18.064  0.00  0.00    +0.000 A 
ATOM     11  C   UNL     1      50.552   2.323  17.441  0.00  0.00    +0.000 A 
ATOM     12  C   UNL     1      51.467   1.283  17.307  0.00  0.00    +0.000 A 
ATOM     13  C   UNL     1      52.782   1.460  17.730  0.00  0.00    +0.000 A 
ATOM     14  C   UNL     1      53.181   2.671  18.298  0.00  0.00    +0.000 A 
ATOM     15  C   UNL     1      52.253   3.700  18.470  0.00  0.00    +0.000 A 
ENDBRANCH   9  10
ENDBRANCH   6   9
ENDBRANCH   2   3
BRANCH   2  16
ATOM     16  N   UNL     1      47.347   6.428  12.859  0.00  0.00    +0.000 N 
ATOM     17  C   UNL     1      46.415   6.818  11.924  0.00  0.00    +0.000 C 
ATOM     18  O   UNL     1      46.112   7.974  11.711  0.00  0.00    +0.000 OA
ATOM     19  H   UNL     1      47.319   5.470  13.185  0.00  0.00    +0.000 HD
BRANCH  17  20
ATOM     20  C   UNL     1      45.809   5.729  11.141  0.00  0.00    +0.000 A 
ATOM     21  C   UNL     1      45.948   5.718   9.759  0.00  0.00    +0.000 A 
ATOM     22  S   UNL     1      45.147   4.412   9.009  0.00  0.00    +0.000 S 
ATOM     23  C   UNL     1      44.554   3.850  10.502  0.00  0.00    +0.000 A 
ATOM     24  N   UNL     1      43.726   2.774  10.571  0.00  0.00    +0.000 NA
ATOM     25  C   UNL     1      43.306   2.500  11.760  0.00  0.00    +0.000 A 
ATOM     26  N   UNL     1      43.655   3.193  12.895  0.00  0.00    +0.000 N 
ATOM     27  C   UNL     1      44.542   4.238  12.879  0.00  0.00    +0.000 A 
ATOM     28  O   UNL     1      44.923   4.776  13.922  0.00  0.00    +0.000 OA
ATOM     29  C   UNL     1      44.998   4.621  11.562  0.00  0.00    +0.000 A 
ATOM     30  H   UNL     1      43.314   2.907  13.799  0.00  0.00    +0.000 HD
ENDBRANCH  17  20
ENDBRANCH   2  16
TORSDOF 5
ENDMDL
MODEL 8
REMARK VINA RESULT:    -7.202      3.604      7.978
REMARK INTER + INTRA:          -9.799
REMARK INTER:                  -8.943
REMARK INTRA:                  -0.857
REMARK UNBOUND:                -0.492
REMARK  Name = 
REMARK  6 active torsions:
REMARK  status: ('A' for Active; 'I' for Inactive)
REMARK    1  A    between atoms: C_1  and  C_2
REMARK    2  A    between atoms: C_2  and  N_3
REMARK    3  A    between atoms: C_2  and  C_16
REMARK    4  A    between atoms: C_4  and  C_6
REMARK    5  A    between atoms: C_19  and  O_20
REMARK    6  A    between atoms: O_20  and  C_21
REMARK                            x       y       z     vdW  Elec       q    Type
REMARK                         _______ _______ _______ _____ _____    ______ ____
ROOT
ATOM      1  C   UNL     1      48.633   8.992  16.388  0.00  0.00    +0.000 C 
ATOM      2  C   UNL     1      48.944   7.839  15.424  0.00  0.00    +0.000 C 
ENDROOT
BRANCH   2   3
ATOM      3  C   UNL     1      49.442   6.611  16.170  0.00  0.00    +0.000 A 
ATOM      4  C   UNL     1      50.814   6.461  16.399  0.00  0.00    +0.000 A 
ATOM      5  C   UNL     1      51.304   5.361  17.099  0.00  0.00    +0.000 A 
ATOM      6  C   UNL     1      50.426   4.421  17.648  0.00  0.00    +0.000 A 
ATOM      7  C   UNL     1      49.060   4.542  17.402  0.00  0.00    +0.000 A 
ATOM      8  C   UNL     1      48.572   5.616  16.652  0.00  0.00    +0.000 A 
BRANCH   6   9
ATOM      9  O   UNL     1      50.817   3.337  18.406  0.00  0.00    +0.000 OA
BRANCH   9  10
ATOM     10  C   UNL     1      51.986   2.680  18.084  0.00  0.00    +0.000 A 
ATOM     11  C   UNL     1      53.253   3.192  18.378  0.00  0.00    +0.000 A 
ATOM     12  C   UNL     1      54.396   2.505  17.978  0.00  0.00    +0.000 A 
ATOM     13  C   UNL     1      54.274   1.270  17.347  0.00  0.00    +0.000 A 
ATOM     14  C   UNL     1      53.013   0.726  17.104  0.00  0.00    +0.000 A 
ATOM     15  C   UNL     1      51.866   1.433  17.469  0.00  0.00    +0.000 A 
ENDBRANCH   9  10
ENDBRANCH   6   9
ENDBRANCH   2   3
BRANCH   2  16
ATOM     16  N   UNL     1      47.838   7.476  14.549  0.00  0.00    +0.000 N 
ATOM     17  C   UNL     1      47.969   6.762  13.379  0.00  0.00    +0.000 C 
ATOM     18  O   UNL     1      49.035   6.409  12.918  0.00  0.00    +0.000 OA
ATOM     19  H   UNL     1      46.975   7.983  14.700  0.00  0.00    +0.000 HD
BRANCH  17  20
ATOM     20  C   UNL     1      46.708   6.401  12.712  0.00  0.00    +0.000 A 
ATOM     21  C   UNL     1      45.939   7.393  12.118  0.00  0.00    +0.000 A 
ATOM     22  S   UNL     1      44.491   6.807  11.432  0.00  0.00    +0.000 S 
ATOM     23  C   UNL     1      44.827   5.220  11.949  0.00  0.00    +0.000 A 
ATOM     24  N   UNL     1      43.944   4.209  11.736  0.00  0.00    +0.000 NA
ATOM     25  C   UNL     1      44.304   3.075  12.236  0.00  0.00    +0.000 A 
ATOM     26  N   UNL     1      45.479   2.853  12.914  0.00  0.00    +0.000 N 
ATOM     27  C   UNL     1      46.427   3.827  13.088  0.00  0.00    +0.000 A 
ATOM     28  O   UNL     1      47.520   3.578  13.604  0.00  0.00    +0.000 OA
ATOM     29  C   UNL     1      46.047   5.131  12.595  0.00  0.00    +0.000 A 
ATOM     30  H   UNL     1      45.712   1.933  13.253  0.00  0.00    +0.000 HD
ENDBRANCH  17  20
ENDBRANCH   2  16
TORSDOF 5
ENDMDL
MODEL 9
REMARK VINA RESULT:    -6.851      3.452      5.852
REMARK INTER + INTRA:          -9.345
REMARK INTER:                  -8.232
REMARK INTRA:                  -1.113
REMARK UNBOUND:                -0.492
REMARK  Name = 
REMARK  6 active torsions:
REMARK  status: ('A' for Active; 'I' for Inactive)
REMARK    1  A    between atoms: C_1  and  C_2
REMARK    2  A    between atoms: C_2  and  N_3
REMARK    3  A    between atoms: C_2  and  C_16
REMARK    4  A    between atoms: C_4  and  C_6
REMARK    5  A    between atoms: C_19  and  O_20
REMARK    6  A    between atoms: O_20  and  C_21
REMARK                            x       y       z     vdW  Elec       q    Type
REMARK                         _______ _______ _______ _____ _____    ______ ____
ROOT
ATOM      1  C   UNL     1      44.783   4.160  12.874  0.00  0.00    +0.000 C 
ATOM      2  C   UNL     1      45.983   5.099  13.053  0.00  0.00    +0.000 C 
ENDROOT
BRANCH   2   3
ATOM      3  C   UNL     1      45.651   6.516  12.611  0.00  0.00    +0.000 A 
ATOM      4  C   UNL     1      46.277   7.594  13.245  0.00  0.00    +0.000 A 
ATOM      5  C   UNL     1      46.015   8.903  12.850  0.00  0.00    +0.000 A 
ATOM      6  C   UNL     1      45.173   9.162  11.764  0.00  0.00    +0.000 A 
ATOM      7  C   UNL     1      44.519   8.100  11.143  0.00  0.00    +0.000 A 
ATOM      8  C   UNL     1      44.739   6.789  11.575  0.00  0.00    +0.000 A 
BRANCH   6   9
ATOM      9  O   UNL     1      44.905  10.420  11.266  0.00  0.00    +0.000 OA
BRANCH   9  10
ATOM     10  C   UNL     1      43.618  10.725  10.873  0.00  0.00    +0.000 A 
ATOM     11  C   UNL     1      42.541  10.770  11.764  0.00  0.00    +0.000 A 
ATOM     12  C   UNL     1      41.257  11.032  11.296  0.00  0.00    +0.000 A 
ATOM     13  C   UNL     1      41.058  11.319   9.949  0.00  0.00    +0.000 A 
ATOM     14  C   UNL     1      42.137  11.334   9.066  0.00  0.00    +0.000 A 
ATOM     15  C   UNL     1      43.420  11.032   9.527  0.00  0.00    +0.000 A 
ENDBRANCH   9  10
ENDBRANCH   6   9
ENDBRANCH   2   3
BRANCH   2  16
ATOM     16  N   UNL     1      46.536   5.114  14.400  0.00  0.00    +0.000 N 
ATOM     17  C   UNL     1      47.285   4.097  14.949  0.00  0.00    +0.000 C 
ATOM     18  O   UNL     1      47.513   3.046  14.386  0.00  0.00    +0.000 OA
ATOM     19  H   UNL     1      46.143   5.804  15.028  0.00  0.00    +0.000 HD
BRANCH  17  20
ATOM     20  C   UNL     1      47.845   4.371  16.281  0.00  0.00    +0.000 A 
ATOM     21  C   UNL     1      47.495   3.559  17.353  0.00  0.00    +0.000 A 
ATOM     22  S   UNL     1      48.199   4.045  18.828  0.00  0.00    +0.000 S 
ATOM     23  C   UNL     1      48.953   5.380  18.089  0.00  0.00    +0.000 A 
ATOM     24  N   UNL     1      49.679   6.270  18.816  0.00  0.00    +0.000 NA
ATOM     25  C   UNL     1      50.140   7.264  18.135  0.00  0.00    +0.000 A 
ATOM     26  N   UNL     1      49.957   7.441  16.784  0.00  0.00    +0.000 N 
ATOM     27  C   UNL     1      49.293   6.533  16.002  0.00  0.00    +0.000 A 
ATOM     28  O   UNL     1      49.233   6.658  14.777  0.00  0.00    +0.000 OA
ATOM     29  C   UNL     1      48.709   5.428  16.729  0.00  0.00    +0.000 A 
ATOM     30  H   UNL     1      50.371   8.228  16.307  0.00  0.00    +0.000 HD
ENDBRANCH  17  20
ENDBRANCH   2  16
TORSDOF 5
ENDMDL
