MODEL 1
REMARK VINA RESULT:    -7.571      0.000      0.000
REMARK INTER + INTRA:          -9.594
REMARK INTER:                  -9.120
REMARK INTRA:                  -0.474
REMARK UNBOUND:                -0.474
REMARK  Name = 
REMARK  4 active torsions:
REMARK  status: ('A' for Active; 'I' for Inactive)
REMARK    1  A    between atoms: N_1  and  C_2
REMARK    2  A    between atoms: C_2  and  C_3
REMARK    3  A    between atoms: C_8  and  C_9
REMARK    4  A    between atoms: C_9  and  N_10
REMARK                            x       y       z     vdW  Elec       q    Type
REMARK                         _______ _______ _______ _____ _____    ______ ____
ROOT
ATOM      1  C   UNL     1      43.922   4.937  11.961  0.00  0.00    +0.000 A 
ATOM      2  C   UNL     1      44.438   5.449  13.178  0.00  0.00    +0.000 A 
ATOM      3  C   UNL     1      45.576   4.922  13.784  0.00  0.00    +0.000 A 
ATOM      4  C   UNL     1      46.216   3.844  13.205  0.00  0.00    +0.000 A 
ATOM      5  C   UNL     1      45.735   3.327  12.005  0.00  0.00    +0.000 A 
ATOM      6  C   UNL     1      44.597   3.862  11.341  0.00  0.00    +0.000 A 
ENDROOT
BRANCH   1   7
ATOM      7  C   UNL     1      42.622   5.562  11.506  0.00  0.00    +0.000 C 
BRANCH   7   8
ATOM      8  N   UNL     1      42.821   6.940  11.073  0.00  0.00    +0.000 NA
ATOM      9  H   UNL     1      42.152   7.153  10.333  0.00  0.00    +0.000 HD
ATOM     10  H   UNL     1      42.612   7.579  11.837  0.00  0.00    +0.000 HD
ENDBRANCH   7   8
ENDBRANCH   1   7
BRANCH   6  11
ATOM     11  C   UNL     1      44.306   3.154  10.031  0.00  0.00    +0.000 C 
BRANCH  11  12
ATOM     12  N   UNL     1      45.161   3.385   8.879  0.00  0.00    +0.000 N 
ATOM     13  C   UNL     1      45.547   4.622   8.435  0.00  0.00    +0.000 A 
ATOM     14  N   UNL     1      46.502   4.534   7.538  0.00  0.00    +0.000 NA
ATOM     15  C   UNL     1      46.765   3.190   7.415  0.00  0.00    +0.000 A 
ATOM     16  C   UNL     1      47.720   2.523   6.639  0.00  0.00    +0.000 A 
ATOM     17  N   UNL     1      47.801   1.163   6.677  0.00  0.00    +0.000 NA
ATOM     18  C   UNL     1      46.953   0.480   7.478  0.00  0.00    +0.000 A 
ATOM     19  C   UNL     1      45.983   1.050   8.293  0.00  0.00    +0.000 A 
ATOM     20  C   UNL     1      45.927   2.445   8.238  0.00  0.00    +0.000 A 
ENDBRANCH  11  12
ENDBRANCH   6  11
TORSDOF 4
ENDMDL
MODEL 2
REMARK VINA RESULT:    -7.079      1.689      2.424
REMARK INTER + INTRA:          -9.002
REMARK INTER:                  -8.495
REMARK INTRA:                  -0.506
REMARK UNBOUND:                -0.474
REMARK  Name = 
REMARK  4 active torsions:
REMARK  status: ('A' for Active; 'I' for Inactive)
REMARK    1  A    between atoms: N_1  and  C_2
REMARK    2  A    between atoms: C_2  and  C_3
REMARK    3  A    between atoms: C_8  and  C_9
REMARK    4  A    between atoms: C_9  and  N_10
REMARK                            x       y       z     vdW  Elec       q    Type
REMARK                         _______ _______ _______ _____ _____    ______ ____
ROOT
ATOM      1  C   UNL     1      44.216   4.843  11.746  0.00  0.00    +0.000 A 
ATOM      2  C   UNL     1      44.589   5.639  12.857  0.00  0.00    +0.000 A 
ATOM      3  C   UNL     1      45.588   6.607  12.778  0.00  0.00    +0.000 A 
ATOM      4  C   UNL     1      46.266   6.787  11.588  0.00  0.00    +0.000 A 
ATOM      5  C   UNL     1      45.912   6.025  10.477  0.00  0.00    +0.000 A 
ATOM      6  C   UNL     1      44.875   5.052  10.513  0.00  0.00    +0.000 A 
ENDROOT
BRANCH   1   7
ATOM      7  C   UNL     1      43.188   3.774  12.043  0.00  0.00    +0.000 C 
BRANCH   7   8
ATOM      8  N   UNL     1      43.813   2.580  12.599  0.00  0.00    +0.000 NA
ATOM      9  H   UNL     1      43.727   2.606  13.616  0.00  0.00    +0.000 HD
ATOM     10  H   UNL     1      43.311   1.749  12.294  0.00  0.00    +0.000 HD
ENDBRANCH   7   8
ENDBRANCH   1   7
BRANCH   6  11
ATOM     11  C   UNL     1      44.653   4.393   9.165  0.00  0.00    +0.000 C 
BRANCH  11  12
ATOM     12  N   UNL     1      45.237   3.090   8.894  0.00  0.00    +0.000 N 
ATOM     13  C   UNL     1      44.692   1.897   9.289  0.00  0.00    +0.000 A 
ATOM     14  N   UNL     1      45.288   0.881   8.710  0.00  0.00    +0.000 NA
ATOM     15  C   UNL     1      46.240   1.436   7.887  0.00  0.00    +0.000 A 
ATOM     16  C   UNL     1      47.133   0.827   6.998  0.00  0.00    +0.000 A 
ATOM     17  N   UNL     1      48.000   1.589   6.273  0.00  0.00    +0.000 NA
ATOM     18  C   UNL     1      47.973   2.931   6.423  0.00  0.00    +0.000 A 
ATOM     19  C   UNL     1      47.118   3.628   7.268  0.00  0.00    +0.000 A 
ATOM     20  C   UNL     1      46.237   2.823   7.994  0.00  0.00    +0.000 A 
ENDBRANCH  11  12
ENDBRANCH   6  11
TORSDOF 4
ENDMDL
MODEL 3
REMARK VINA RESULT:    -7.037      1.418      2.246
REMARK INTER + INTRA:          -8.951
REMARK INTER:                  -8.729
REMARK INTRA:                  -0.223
REMARK UNBOUND:                -0.474
REMARK  Name = 
REMARK  4 active torsions:
REMARK  status: ('A' for Active; 'I' for Inactive)
REMARK    1  A    between atoms: N_1  and  C_2
REMARK    2  A    between atoms: C_2  and  C_3
REMARK    3  A    between atoms: C_8  and  C_9
REMARK    4  A    between atoms: C_9  and  N_10
REMARK                            x       y       z     vdW  Elec       q    Type
REMARK                         _______ _______ _______ _____ _____    ______ ____
ROOT
ATOM      1  C   UNL     1      44.852   3.939  12.431  0.00  0.00    +0.000 A 
ATOM      2  C   UNL     1      44.344   4.912  13.328  0.00  0.00    +0.000 A 
ATOM      3  C   UNL     1      43.206   5.664  13.045  0.00  0.00    +0.000 A 
ATOM      4  C   UNL     1      42.558   5.486  11.838  0.00  0.00    +0.000 A 
ATOM      5  C   UNL     1      43.032   4.530  10.942  0.00  0.00    +0.000 A 
ATOM      6  C   UNL     1      44.170   3.721  11.214  0.00  0.00    +0.000 A 
ENDROOT
BRANCH   1   7
ATOM      7  C   UNL     1      46.153   3.296  12.859  0.00  0.00    +0.000 C 
BRANCH   7   8
ATOM      8  N   UNL     1      46.629   3.851  14.120  0.00  0.00    +0.000 NA
ATOM      9  H   UNL     1      47.509   3.398  14.368  0.00  0.00    +0.000 HD
ATOM     10  H   UNL     1      46.839   4.840  14.009  0.00  0.00    +0.000 HD
ENDBRANCH   7   8
ENDBRANCH   1   7
BRANCH   6  11
ATOM     11  C   UNL     1      44.452   2.728  10.103  0.00  0.00    +0.000 C 
BRANCH  11  12
ATOM     12  N   UNL     1      45.212   3.145   8.937  0.00  0.00    +0.000 N 
ATOM     13  C   UNL     1      45.455   4.448   8.593  0.00  0.00    +0.000 A 
ATOM     14  N   UNL     1      46.359   4.536   7.646  0.00  0.00    +0.000 NA
ATOM     15  C   UNL     1      46.738   3.240   7.381  0.00  0.00    +0.000 A 
ATOM     16  C   UNL     1      47.702   2.743   6.497  0.00  0.00    +0.000 A 
ATOM     17  N   UNL     1      47.911   1.399   6.402  0.00  0.00    +0.000 NA
ATOM     18  C   UNL     1      47.179   0.567   7.175  0.00  0.00    +0.000 A 
ATOM     19  C   UNL     1      46.211   0.964   8.089  0.00  0.00    +0.000 A 
ATOM     20  C   UNL     1      46.022   2.346   8.171  0.00  0.00    +0.000 A 
ENDBRANCH  11  12
ENDBRANCH   6  11
TORSDOF 4
ENDMDL
MODEL 4
REMARK VINA RESULT:    -6.826      2.878      5.721
REMARK INTER + INTRA:          -8.698
REMARK INTER:                  -8.127
REMARK INTRA:                  -0.571
REMARK UNBOUND:                -0.474
REMARK  Name = 
REMARK  4 active torsions:
REMARK  status: ('A' for Active; 'I' for Inactive)
REMARK    1  A    between atoms: N_1  and  C_2
REMARK    2  A    between atoms: C_2  and  C_3
REMARK    3  A    between atoms: C_8  and  C_9
REMARK    4  A    between atoms: C_9  and  N_10
REMARK                            x       y       z     vdW  Elec       q    Type
REMARK                         _______ _______ _______ _____ _____    ______ ____
ROOT
ATOM      1  C   UNL     1      44.334   3.531  10.566  0.00  0.00    +0.000 A 
ATOM      2  C   UNL     1      44.511   2.507   9.603  0.00  0.00    +0.000 A 
ATOM      3  C   UNL     1      45.252   2.700   8.439  0.00  0.00    +0.000 A 
ATOM      4  C   UNL     1      45.813   3.937   8.189  0.00  0.00    +0.000 A 
ATOM      5  C   UNL     1      45.662   4.958   9.124  0.00  0.00    +0.000 A 
ATOM      6  C   UNL     1      44.942   4.786  10.338  0.00  0.00    +0.000 A 
ENDROOT
BRANCH   1   7
ATOM      7  C   UNL     1      43.414   3.175  11.713  0.00  0.00    +0.000 C 
BRANCH   7   8
ATOM      8  N   UNL     1      42.990   1.782  11.639  0.00  0.00    +0.000 NA
ATOM      9  H   UNL     1      43.732   1.235  11.202  0.00  0.00    +0.000 HD
ATOM     10  H   UNL     1      42.870   1.403  12.575  0.00  0.00    +0.000 HD
ENDBRANCH   7   8
ENDBRANCH   1   7
BRANCH   6  11
ATOM     11  C   UNL     1      44.962   6.031  11.205  0.00  0.00    +0.000 C 
BRANCH  11  12
ATOM     12  N   UNL     1      46.167   6.380  11.939  0.00  0.00    +0.000 N 
ATOM     13  C   UNL     1      46.866   7.546  11.776  0.00  0.00    +0.000 A 
ATOM     14  N   UNL     1      47.760   7.708  12.723  0.00  0.00    +0.000 NA
ATOM     15  C   UNL     1      47.618   6.617  13.549  0.00  0.00    +0.000 A 
ATOM     16  C   UNL     1      48.277   6.294  14.741  0.00  0.00    +0.000 A 
ATOM     17  N   UNL     1      47.967   5.143  15.401  0.00  0.00    +0.000 NA
ATOM     18  C   UNL     1      47.015   4.332  14.890  0.00  0.00    +0.000 A 
ATOM     19  C   UNL     1      46.298   4.571  13.724  0.00  0.00    +0.000 A 
ATOM     20  C   UNL     1      46.632   5.761  13.071  0.00  0.00    +0.000 A 
ENDBRANCH  11  12
ENDBRANCH   6  11
TORSDOF 4
ENDMDL
MODEL 5
REMARK VINA RESULT:    -6.494      3.305      6.004
REMARK INTER + INTRA:          -8.297
REMARK INTER:                  -7.843
REMARK INTRA:                  -0.454
REMARK UNBOUND:                -0.474
REMARK  Name = 
REMARK  4 active torsions:
REMARK  status: ('A' for Active; 'I' for Inactive)
REMARK    1  A    between atoms: N_1  and  C_2
REMARK    2  A    between atoms: C_2  and  C_3
REMARK    3  A    between atoms: C_8  and  C_9
REMARK    4  A    between atoms: C_9  and  N_10
REMARK                            x       y       z     vdW  Elec       q    Type
REMARK                         _______ _______ _______ _____ _____    ______ ____
ROOT
ATOM      1  C   UNL     1      44.431   3.458  10.633  0.00  0.00    +0.000 A 
ATOM      2  C   UNL     1      44.560   2.519   9.578  0.00  0.00    +0.000 A 
ATOM      3  C   UNL     1      45.210   2.825   8.385  0.00  0.00    +0.000 A 
ATOM      4  C   UNL     1      45.726   4.093   8.198  0.00  0.00    +0.000 A 
ATOM      5  C   UNL     1      45.621   5.031   9.222  0.00  0.00    +0.000 A 
ATOM      6  C   UNL     1      44.994   4.743  10.466  0.00  0.00    +0.000 A 
ENDROOT
BRANCH   1   7
ATOM      7  C   UNL     1      43.605   2.986  11.809  0.00  0.00    +0.000 C 
BRANCH   7   8
ATOM      8  N   UNL     1      43.087   1.642  11.586  0.00  0.00    +0.000 NA
ATOM      9  H   UNL     1      42.630   1.611  10.674  0.00  0.00    +0.000 HD
ATOM     10  H   UNL     1      43.854   0.975  11.542  0.00  0.00    +0.000 HD
ENDBRANCH   7   8
ENDBRANCH   1   7
BRANCH   6  11
ATOM     11  C   UNL     1      45.051   5.915  11.428  0.00  0.00    +0.000 C 
BRANCH  11  12
ATOM     12  N   UNL     1      46.095   5.969  12.438  0.00  0.00    +0.000 N 
ATOM     13  C   UNL     1      46.430   4.931  13.266  0.00  0.00    +0.000 A 
ATOM     14  N   UNL     1      47.551   5.168  13.905  0.00  0.00    +0.000 NA
ATOM     15  C   UNL     1      47.976   6.396  13.455  0.00  0.00    +0.000 A 
ATOM     16  C   UNL     1      49.135   7.119  13.759  0.00  0.00    +0.000 A 
ATOM     17  N   UNL     1      49.351   8.335  13.183  0.00  0.00    +0.000 NA
ATOM     18  C   UNL     1      48.435   8.820  12.315  0.00  0.00    +0.000 A 
ATOM     19  C   UNL     1      47.264   8.173  11.940  0.00  0.00    +0.000 A 
ATOM     20  C   UNL     1      47.071   6.927  12.541  0.00  0.00    +0.000 A 
ENDBRANCH  11  12
ENDBRANCH   6  11
TORSDOF 4
ENDMDL
MODEL 6
REMARK VINA RESULT:    -6.461      2.519      4.198
REMARK INTER + INTRA:          -8.258
REMARK INTER:                  -7.669
REMARK INTRA:                  -0.589
REMARK UNBOUND:                -0.474
REMARK  Name = 
REMARK  4 active torsions:
REMARK  status: ('A' for Active; 'I' for Inactive)
REMARK    1  A    between atoms: N_1  and  C_2
REMARK    2  A    between atoms: C_2  and  C_3
REMARK    3  A    between atoms: C_8  and  C_9
REMARK    4  A    between atoms: C_9  and  N_10
REMARK                            x       y       z     vdW  Elec       q    Type
REMARK                         _______ _______ _______ _____ _____    ______ ____
ROOT
ATOM      1  C   UNL     1      47.000   5.758  13.763  0.00  0.00    +0.000 A 
ATOM      2  C   UNL     1      48.240   6.427  13.919  0.00  0.00    +0.000 A 
ATOM      3  C   UNL     1      48.582   7.547  13.165  0.00  0.00    +0.000 A 
ATOM      4  C   UNL     1      47.702   8.014  12.206  0.00  0.00    +0.000 A 
ATOM      5  C   UNL     1      46.473   7.380  12.039  0.00  0.00    +0.000 A 
ATOM      6  C   UNL     1      46.078   6.256  12.816  0.00  0.00    +0.000 A 
ENDROOT
BRANCH   1   7
ATOM      7  C   UNL     1      46.845   4.501  14.591  0.00  0.00    +0.000 C 
BRANCH   7   8
ATOM      8  N   UNL     1      47.232   3.317  13.834  0.00  0.00    +0.000 NA
ATOM      9  H   UNL     1      48.165   3.028  14.128  0.00  0.00    +0.000 HD
ATOM     10  H   UNL     1      46.611   2.543  14.056  0.00  0.00    +0.000 HD
ENDBRANCH   7   8
ENDBRANCH   1   7
BRANCH   6  11
ATOM     11  C   UNL     1      44.679   5.780  12.474  0.00  0.00    +0.000 C 
BRANCH  11  12
ATOM     12  N   UNL     1      44.495   4.514  11.784  0.00  0.00    +0.000 N 
ATOM     13  C   UNL     1      43.687   3.499  12.225  0.00  0.00    +0.000 A 
ATOM     14  N   UNL     1      43.519   2.583  11.302  0.00  0.00    +0.000 NA
ATOM     15  C   UNL     1      44.224   3.031  10.209  0.00  0.00    +0.000 A 
ATOM     16  C   UNL     1      44.355   2.479   8.929  0.00  0.00    +0.000 A 
ATOM     17  N   UNL     1      45.116   3.109   7.990  0.00  0.00    +0.000 NA
ATOM     18  C   UNL     1      45.727   4.270   8.314  0.00  0.00    +0.000 A 
ATOM     19  C   UNL     1      45.647   4.902   9.550  0.00  0.00    +0.000 A 
ATOM     20  C   UNL     1      44.857   4.237  10.491  0.00  0.00    +0.000 A 
ENDBRANCH  11  12
ENDBRANCH   6  11
TORSDOF 4
ENDMDL
MODEL 7
REMARK VINA RESULT:    -6.445      2.491      3.711
REMARK INTER + INTRA:          -8.239
REMARK INTER:                  -7.800
REMARK INTRA:                  -0.439
REMARK UNBOUND:                -0.474
REMARK  Name = 
REMARK  4 active torsions:
REMARK  status: ('A' for Active; 'I' for Inactive)
REMARK    1  A    between atoms: N_1  and  C_2
REMARK    2  A    between atoms: C_2  and  C_3
REMARK    3  A    between atoms: C_8  and  C_9
REMARK    4  A    between atoms: C_9  and  N_10
REMARK                            x       y       z     vdW  Elec       q    Type
REMARK                         _______ _______ _______ _____ _____    ______ ____
ROOT
ATOM      1  C   UNL     1      45.238   8.453  11.843  0.00  0.00    +0.000 A 
ATOM      2  C   UNL     1      46.443   8.943  12.407  0.00  0.00    +0.000 A 
ATOM      3  C   UNL     1      47.334   8.119  13.090  0.00  0.00    +0.000 A 
ATOM      4  C   UNL     1      47.031   6.781  13.256  0.00  0.00    +0.000 A 
ATOM      5  C   UNL     1      45.858   6.272  12.704  0.00  0.00    +0.000 A 
ATOM      6  C   UNL     1      44.942   7.077  11.972  0.00  0.00    +0.000 A 
ENDROOT
BRANCH   1   7
ATOM      7  C   UNL     1      44.344   9.509  11.231  0.00  0.00    +0.000 C 
BRANCH   7   8
ATOM      8  N   UNL     1      43.719  10.333  12.259  0.00  0.00    +0.000 NA
ATOM      9  H   UNL     1      43.410  11.209  11.836  0.00  0.00    +0.000 HD
ATOM     10  H   UNL     1      42.880   9.876  12.609  0.00  0.00    +0.000 HD
ENDBRANCH   7   8
ENDBRANCH   1   7
BRANCH   6  11
ATOM     11  C   UNL     1      43.770   6.278  11.436  0.00  0.00    +0.000 C 
BRANCH  11  12
ATOM     12  N   UNL     1      43.924   4.857  11.175  0.00  0.00    +0.000 N 
ATOM     13  C   UNL     1      43.214   3.870  11.805  0.00  0.00    +0.000 A 
ATOM     14  N   UNL     1      43.374   2.709  11.214  0.00  0.00    +0.000 NA
ATOM     15  C   UNL     1      44.200   2.956  10.142  0.00  0.00    +0.000 A 
ATOM     16  C   UNL     1      44.663   2.095   9.140  0.00  0.00    +0.000 A 
ATOM     17  N   UNL     1      45.484   2.568   8.161  0.00  0.00    +0.000 NA
ATOM     18  C   UNL     1      45.832   3.874   8.173  0.00  0.00    +0.000 A 
ATOM     19  C   UNL     1      45.415   4.807   9.114  0.00  0.00    +0.000 A 
ATOM     20  C   UNL     1      44.570   4.297  10.102  0.00  0.00    +0.000 A 
ENDBRANCH  11  12
ENDBRANCH   6  11
TORSDOF 4
ENDMDL
MODEL 8
REMARK VINA RESULT:    -5.556      2.739      5.785
REMARK INTER + INTRA:          -7.167
REMARK INTER:                  -6.691
REMARK INTRA:                  -0.476
REMARK UNBOUND:                -0.474
REMARK  Name = 
REMARK  4 active torsions:
REMARK  status: ('A' for Active; 'I' for Inactive)
REMARK    1  A    between atoms: N_1  and  C_2
REMARK    2  A    between atoms: C_2  and  C_3
REMARK    3  A    between atoms: C_8  and  C_9
REMARK    4  A    between atoms: C_9  and  N_10
REMARK                            x       y       z     vdW  Elec       q    Type
REMARK                         _______ _______ _______ _____ _____    ______ ____
ROOT
ATOM      1  C   UNL     1      45.361   4.315   9.250  0.00  0.00    +0.000 A 
ATOM      2  C   UNL     1      45.092   3.011   8.763  0.00  0.00    +0.000 A 
ATOM      3  C   UNL     1      44.331   2.091   9.479  0.00  0.00    +0.000 A 
ATOM      4  C   UNL     1      43.840   2.438  10.723  0.00  0.00    +0.000 A 
ATOM      5  C   UNL     1      44.081   3.716  11.221  0.00  0.00    +0.000 A 
ATOM      6  C   UNL     1      44.825   4.692  10.502  0.00  0.00    +0.000 A 
ENDROOT
BRANCH   1   7
ATOM      7  C   UNL     1      46.290   5.140   8.387  0.00  0.00    +0.000 C 
BRANCH   7   8
ATOM      8  N   UNL     1      46.781   4.368   7.252  0.00  0.00    +0.000 NA
ATOM      9  H   UNL     1      46.122   3.615   7.055  0.00  0.00    +0.000 HD
ATOM     10  H   UNL     1      46.803   4.951   6.418  0.00  0.00    +0.000 HD
ENDBRANCH   7   8
ENDBRANCH   1   7
BRANCH   6  11
ATOM     11  C   UNL     1      44.906   6.015  11.239  0.00  0.00    +0.000 C 
BRANCH  11  12
ATOM     12  N   UNL     1      46.135   6.389  11.919  0.00  0.00    +0.000 N 
ATOM     13  C   UNL     1      46.835   7.542  11.681  0.00  0.00    +0.000 A 
ATOM     14  N   UNL     1      47.758   7.740  12.593  0.00  0.00    +0.000 NA
ATOM     15  C   UNL     1      47.637   6.689  13.471  0.00  0.00    +0.000 A 
ATOM     16  C   UNL     1      48.331   6.416  14.655  0.00  0.00    +0.000 A 
ATOM     17  N   UNL     1      48.036   5.297  15.376  0.00  0.00    +0.000 NA
ATOM     18  C   UNL     1      47.064   4.470  14.931  0.00  0.00    +0.000 A 
ATOM     19  C   UNL     1      46.312   4.662  13.778  0.00  0.00    +0.000 A 
ATOM     20  C   UNL     1      46.631   5.818  13.063  0.00  0.00    +0.000 A 
ENDBRANCH  11  12
ENDBRANCH   6  11
TORSDOF 4
ENDMDL
MODEL 9
REMARK VINA RESULT:    -5.551      3.622      6.077
REMARK INTER + INTRA:          -7.161
REMARK INTER:                  -6.679
REMARK INTRA:                  -0.483
REMARK UNBOUND:                -0.474
REMARK  Name = 
REMARK  4 active torsions:
REMARK  status: ('A' for Active; 'I' for Inactive)
REMARK    1  A    between atoms: N_1  and  C_2
REMARK    2  A    between atoms: C_2  and  C_3
REMARK    3  A    between atoms: C_8  and  C_9
REMARK    4  A    between atoms: C_9  and  N_10
REMARK                            x       y       z     vdW  Elec       q    Type
REMARK                         _______ _______ _______ _____ _____    ______ ____
ROOT
ATOM      1  C   UNL     1      44.930   4.807  10.723  0.00  0.00    +0.000 A 
ATOM      2  C   UNL     1      44.380   3.590  10.248  0.00  0.00    +0.000 A 
ATOM      3  C   UNL     1      43.645   2.736  11.067  0.00  0.00    +0.000 A 
ATOM      4  C   UNL     1      43.463   3.061  12.398  0.00  0.00    +0.000 A 
ATOM      5  C   UNL     1      43.985   4.256  12.887  0.00  0.00    +0.000 A 
ATOM      6  C   UNL     1      44.711   5.167  12.071  0.00  0.00    +0.000 A 
ENDROOT
BRANCH   1   7
ATOM      7  C   UNL     1      45.785   5.553   9.722  0.00  0.00    +0.000 C 
BRANCH   7   8
ATOM      8  N   UNL     1      45.664   4.977   8.389  0.00  0.00    +0.000 NA
ATOM      9  H   UNL     1      44.675   4.849   8.173  0.00  0.00    +0.000 HD
ATOM     10  H   UNL     1      46.025   5.626   7.694  0.00  0.00    +0.000 HD
ENDBRANCH   7   8
ENDBRANCH   1   7
BRANCH   6  11
ATOM     11  C   UNL     1      45.131   6.413  12.828  0.00  0.00    +0.000 C 
BRANCH  11  12
ATOM     12  N   UNL     1      46.543   6.696  13.025  0.00  0.00    +0.000 N 
ATOM     13  C   UNL     1      47.484   5.759  13.360  0.00  0.00    +0.000 A 
ATOM     14  N   UNL     1      48.701   6.234  13.237  0.00  0.00    +0.000 NA
ATOM     15  C   UNL     1      48.546   7.523  12.780  0.00  0.00    +0.000 A 
ATOM     16  C   UNL     1      49.505   8.479  12.430  0.00  0.00    +0.000 A 
ATOM     17  N   UNL     1      49.114   9.710  11.994  0.00  0.00    +0.000 NA
ATOM     18  C   UNL     1      47.793   9.981  11.902  0.00  0.00    +0.000 A 
ATOM     19  C   UNL     1      46.768   9.096  12.213  0.00  0.00    +0.000 A 
ATOM     20  C   UNL     1      47.198   7.841  12.651  0.00  0.00    +0.000 A 
ENDBRANCH  11  12
ENDBRANCH   6  11
TORSDOF 4
ENDMDL
