MODEL 1
REMARK VINA RESULT:    -8.953      0.000      0.000
REMARK INTER + INTRA:         -11.570
REMARK INTER:                 -11.047
REMARK INTRA:                  -0.523
REMARK UNBOUND:                -0.523
REMARK  Name = 
REMARK  4 active torsions:
REMARK  status: ('A' for Active; 'I' for Inactive)
REMARK    1  A    between atoms: C_2  and  C_4
REMARK    2  A    between atoms: N_8  and  C_9
REMARK    3  A    between atoms: C_9  and  C_10
REMARK    4  A    between atoms: C_14  and  C_15
REMARK                            x       y       z     vdW  Elec       q    Type
REMARK                         _______ _______ _______ _____ _____    ______ ____
ROOT
ATOM      1  C   UNL     1      46.613   2.507   7.206  0.00  0.00    +0.000 A 
ATOM      2  C   UNL     1      46.040   3.723   7.560  0.00  0.00    +0.000 A 
ATOM      3  C   UNL     1      45.210   3.784   8.679  0.00  0.00    +0.000 A 
ATOM      4  C   UNL     1      44.959   2.634   9.420  0.00  0.00    +0.000 A 
ATOM      5  N   UNL     1      44.217   2.620  10.567  0.00  0.00    +0.000 N 
ATOM      6  N   UNL     1      45.485   1.444   9.064  0.00  0.00    +0.000 NA
ATOM      7  C   UNL     1      46.290   1.398   7.969  0.00  0.00    +0.000 A 
ATOM      8  H   UNL     1      44.052   1.685  10.918  0.00  0.00    +0.000 HD
ENDROOT
BRANCH   1  10
ATOM      9  N   UNL     1      47.455   3.304   5.075  0.00  0.00    +0.000 N 
ATOM     10  C   UNL     1      47.537   2.362   6.063  0.00  0.00    +0.000 C 
ATOM     11  O   UNL     1      48.367   1.465   6.019  0.00  0.00    +0.000 OA
ATOM     12  H   UNL     1      48.156   3.254   4.347  0.00  0.00    +0.000 HD
ATOM     13  H   UNL     1      46.966   4.180   5.193  0.00  0.00    +0.000 HD
ENDBRANCH   1  10
BRANCH   5  14
ATOM     14  C   UNL     1      43.487   3.727  11.130  0.00  0.00    +0.000 C 
BRANCH  14  15
ATOM     15  C   UNL     1      44.402   4.783  11.700  0.00  0.00    +0.000 A 
ATOM     16  C   UNL     1      44.296   6.112  11.273  0.00  0.00    +0.000 A 
ATOM     17  C   UNL     1      45.101   7.098  11.835  0.00  0.00    +0.000 A 
ATOM     18  C   UNL     1      46.002   6.770  12.850  0.00  0.00    +0.000 A 
ATOM     19  C   UNL     1      46.117   5.454  13.332  0.00  0.00    +0.000 A 
ATOM     20  C   UNL     1      45.325   4.466  12.713  0.00  0.00    +0.000 A 
BRANCH  19  21
ATOM     21  C   UNL     1      46.986   5.124  14.479  0.00  0.00    +0.000 A 
ATOM     22  C   UNL     1      48.034   5.953  14.889  0.00  0.00    +0.000 A 
ATOM     23  N   UNL     1      48.828   5.694  15.960  0.00  0.00    +0.000 NA
ATOM     24  C   UNL     1      48.533   4.559  16.625  0.00  0.00    +0.000 A 
ATOM     25  C   UNL     1      47.497   3.728  16.240  0.00  0.00    +0.000 A 
ATOM     26  N   UNL     1      46.702   3.990  15.176  0.00  0.00    +0.000 NA
ENDBRANCH  19  21
ENDBRANCH  14  15
ENDBRANCH   5  14
TORSDOF 4
ENDMDL
MODEL 2
REMARK VINA RESULT:    -8.509      2.308      3.751
REMARK INTER + INTRA:         -11.021
REMARK INTER:                 -10.423
REMARK INTRA:                  -0.598
REMARK UNBOUND:                -0.523
REMARK  Name = 
REMARK  4 active torsions:
REMARK  status: ('A' for Active; 'I' for Inactive)
REMARK    1  A    between atoms: C_2  and  C_4
REMARK    2  A    between atoms: N_8  and  C_9
REMARK    3  A    between atoms: C_9  and  C_10
REMARK    4  A    between atoms: C_14  and  C_15
REMARK                            x       y       z     vdW  Elec       q    Type
REMARK                         _______ _______ _______ _____ _____    ______ ____
ROOT
ATOM      1  C   UNL     1      46.595   2.517   7.316  0.00  0.00    +0.000 A 
ATOM      2  C   UNL     1      46.070   3.749   7.687  0.00  0.00    +0.000 A 
ATOM      3  C   UNL     1      45.203   3.819   8.778  0.00  0.00    +0.000 A 
ATOM      4  C   UNL     1      44.868   2.661   9.473  0.00  0.00    +0.000 A 
ATOM      5  N   UNL     1      44.085   2.651  10.592  0.00  0.00    +0.000 N 
ATOM      6  N   UNL     1      45.348   1.457   9.099  0.00  0.00    +0.000 NA
ATOM      7  C   UNL     1      46.189   1.404   8.032  0.00  0.00    +0.000 A 
ATOM      8  H   UNL     1      43.861   1.716  10.908  0.00  0.00    +0.000 HD
ENDROOT
BRANCH   1  10
ATOM      9  N   UNL     1      47.441   3.236   5.159  0.00  0.00    +0.000 N 
ATOM     10  C   UNL     1      47.552   2.360   6.203  0.00  0.00    +0.000 C 
ATOM     11  O   UNL     1      48.433   1.511   6.229  0.00  0.00    +0.000 OA
ATOM     12  H   UNL     1      48.161   3.185   4.450  0.00  0.00    +0.000 HD
ATOM     13  H   UNL     1      46.901   4.089   5.216  0.00  0.00    +0.000 HD
ENDBRANCH   1  10
BRANCH   5  14
ATOM     14  C   UNL     1      43.389   3.776  11.162  0.00  0.00    +0.000 C 
BRANCH  14  15
ATOM     15  C   UNL     1      44.322   4.715  11.888  0.00  0.00    +0.000 A 
ATOM     16  C   UNL     1      45.304   4.208  12.747  0.00  0.00    +0.000 A 
ATOM     17  C   UNL     1      46.201   5.066  13.375  0.00  0.00    +0.000 A 
ATOM     18  C   UNL     1      46.143   6.440  13.131  0.00  0.00    +0.000 A 
ATOM     19  C   UNL     1      45.193   6.988  12.249  0.00  0.00    +0.000 A 
ATOM     20  C   UNL     1      44.267   6.103  11.663  0.00  0.00    +0.000 A 
BRANCH  19  21
ATOM     21  C   UNL     1      45.200   8.423  11.902  0.00  0.00    +0.000 A 
ATOM     22  C   UNL     1      46.223   9.287  12.302  0.00  0.00    +0.000 A 
ATOM     23  N   UNL     1      46.275  10.602  11.969  0.00  0.00    +0.000 NA
ATOM     24  C   UNL     1      45.252  11.036  11.206  0.00  0.00    +0.000 A 
ATOM     25  C   UNL     1      44.232  10.197  10.794  0.00  0.00    +0.000 A 
ATOM     26  N   UNL     1      44.185   8.884  11.121  0.00  0.00    +0.000 NA
ENDBRANCH  19  21
ENDBRANCH  14  15
ENDBRANCH   5  14
TORSDOF 4
ENDMDL
MODEL 3
REMARK VINA RESULT:    -7.640      2.226      3.085
REMARK INTER + INTRA:          -9.950
REMARK INTER:                  -9.324
REMARK INTRA:                  -0.625
REMARK UNBOUND:                -0.523
REMARK  Name = 
REMARK  4 active torsions:
REMARK  status: ('A' for Active; 'I' for Inactive)
REMARK    1  A    between atoms: C_2  and  C_4
REMARK    2  A    between atoms: N_8  and  C_9
REMARK    3  A    between atoms: C_9  and  C_10
REMARK    4  A    between atoms: C_14  and  C_15
REMARK                            x       y       z     vdW  Elec       q    Type
REMARK                         _______ _______ _______ _____ _____    ______ ____
ROOT
ATOM      1  C   UNL     1      46.420   2.238   7.513  0.00  0.00    +0.000 A 
ATOM      2  C   UNL     1      45.968   1.908   8.785  0.00  0.00    +0.000 A 
ATOM      3  C   UNL     1      45.191   2.827   9.491  0.00  0.00    +0.000 A 
ATOM      4  C   UNL     1      44.885   4.059   8.921  0.00  0.00    +0.000 A 
ATOM      5  N   UNL     1      44.075   4.985   9.513  0.00  0.00    +0.000 N 
ATOM      6  N   UNL     1      45.348   4.399   7.701  0.00  0.00    +0.000 NA
ATOM      7  C   UNL     1      46.106   3.495   7.026  0.00  0.00    +0.000 A 
ATOM      8  H   UNL     1      44.043   5.861   9.008  0.00  0.00    +0.000 HD
ENDROOT
BRANCH   1  10
ATOM      9  N   UNL     1      48.242   1.844   5.960  0.00  0.00    +0.000 N 
ATOM     10  C   UNL     1      47.210   1.309   6.680  0.00  0.00    +0.000 C 
ATOM     11  O   UNL     1      46.980   0.107   6.665  0.00  0.00    +0.000 OA
ATOM     12  H   UNL     1      48.837   1.188   5.471  0.00  0.00    +0.000 HD
ATOM     13  H   UNL     1      48.611   2.768   6.137  0.00  0.00    +0.000 HD
ENDBRANCH   1  10
BRANCH   5  14
ATOM     14  C   UNL     1      43.509   4.910  10.836  0.00  0.00    +0.000 C 
BRANCH  14  15
ATOM     15  C   UNL     1      44.556   5.058  11.913  0.00  0.00    +0.000 A 
ATOM     16  C   UNL     1      44.642   4.120  12.948  0.00  0.00    +0.000 A 
ATOM     17  C   UNL     1      45.639   4.223  13.911  0.00  0.00    +0.000 A 
ATOM     18  C   UNL     1      46.580   5.251  13.836  0.00  0.00    +0.000 A 
ATOM     19  C   UNL     1      46.552   6.197  12.795  0.00  0.00    +0.000 A 
ATOM     20  C   UNL     1      45.503   6.098  11.859  0.00  0.00    +0.000 A 
BRANCH  19  21
ATOM     21  C   UNL     1      47.609   7.218  12.649  0.00  0.00    +0.000 A 
ATOM     22  C   UNL     1      48.938   6.977  13.006  0.00  0.00    +0.000 A 
ATOM     23  N   UNL     1      49.938   7.883  12.852  0.00  0.00    +0.000 NA
ATOM     24  C   UNL     1      49.560   9.059  12.313  0.00  0.00    +0.000 A 
ATOM     25  C   UNL     1      48.251   9.316  11.946  0.00  0.00    +0.000 A 
ATOM     26  N   UNL     1      47.256   8.410  12.095  0.00  0.00    +0.000 NA
ENDBRANCH  19  21
ENDBRANCH  14  15
ENDBRANCH   5  14
TORSDOF 4
ENDMDL
MODEL 4
REMARK VINA RESULT:    -7.217      3.030      7.157
REMARK INTER + INTRA:          -9.428
REMARK INTER:                  -8.879
REMARK INTRA:                  -0.549
REMARK UNBOUND:                -0.523
REMARK  Name = 
REMARK  4 active torsions:
REMARK  status: ('A' for Active; 'I' for Inactive)
REMARK    1  A    between atoms: C_2  and  C_4
REMARK    2  A    between atoms: N_8  and  C_9
REMARK    3  A    between atoms: C_9  and  C_10
REMARK    4  A    between atoms: C_14  and  C_15
REMARK                            x       y       z     vdW  Elec       q    Type
REMARK                         _______ _______ _______ _____ _____    ______ ____
ROOT
ATOM      1  C   UNL     1      48.420   7.189  13.426  0.00  0.00    +0.000 A 
ATOM      2  C   UNL     1      47.373   6.357  13.803  0.00  0.00    +0.000 A 
ATOM      3  C   UNL     1      46.196   6.360  13.054  0.00  0.00    +0.000 A 
ATOM      4  C   UNL     1      46.080   7.198  11.949  0.00  0.00    +0.000 A 
ATOM      5  N   UNL     1      44.994   7.212  11.122  0.00  0.00    +0.000 N 
ATOM      6  N   UNL     1      47.079   8.032  11.596  0.00  0.00    +0.000 NA
ATOM      7  C   UNL     1      48.219   8.020  12.337  0.00  0.00    +0.000 A 
ATOM      8  H   UNL     1      45.033   7.951  10.432  0.00  0.00    +0.000 HD
ENDROOT
BRANCH   1  10
ATOM      9  N   UNL     1      50.720   7.946  13.566  0.00  0.00    +0.000 N 
ATOM     10  C   UNL     1      49.714   7.216  14.136  0.00  0.00    +0.000 C 
ATOM     11  O   UNL     1      49.871   6.646  15.207  0.00  0.00    +0.000 OA
ATOM     12  H   UNL     1      51.570   8.040  14.108  0.00  0.00    +0.000 HD
ATOM     13  H   UNL     1      50.558   8.620  12.830  0.00  0.00    +0.000 HD
ENDBRANCH   1  10
BRANCH   5  14
ATOM     14  C   UNL     1      43.766   6.480  11.306  0.00  0.00    +0.000 C 
BRANCH  14  15
ATOM     15  C   UNL     1      43.939   5.003  11.047  0.00  0.00    +0.000 A 
ATOM     16  C   UNL     1      43.232   4.067  11.811  0.00  0.00    +0.000 A 
ATOM     17  C   UNL     1      43.347   2.707  11.541  0.00  0.00    +0.000 A 
ATOM     18  C   UNL     1      44.150   2.270  10.485  0.00  0.00    +0.000 A 
ATOM     19  C   UNL     1      44.851   3.178   9.672  0.00  0.00    +0.000 A 
ATOM     20  C   UNL     1      44.755   4.546   9.996  0.00  0.00    +0.000 A 
BRANCH  19  21
ATOM     21  C   UNL     1      45.610   2.728   8.488  0.00  0.00    +0.000 A 
ATOM     22  C   UNL     1      45.865   3.565   7.398  0.00  0.00    +0.000 A 
ATOM     23  N   UNL     1      46.589   3.192   6.312  0.00  0.00    +0.000 NA
ATOM     24  C   UNL     1      47.064   1.931   6.352  0.00  0.00    +0.000 A 
ATOM     25  C   UNL     1      46.830   1.088   7.424  0.00  0.00    +0.000 A 
ATOM     26  N   UNL     1      46.113   1.464   8.509  0.00  0.00    +0.000 NA
ENDBRANCH  19  21
ENDBRANCH  14  15
ENDBRANCH   5  14
TORSDOF 4
ENDMDL
MODEL 5
REMARK VINA RESULT:    -7.099      3.192      7.154
REMARK INTER + INTRA:          -9.282
REMARK INTER:                  -8.648
REMARK INTRA:                  -0.634
REMARK UNBOUND:                -0.523
REMARK  Name = 
REMARK  4 active torsions:
REMARK  status: ('A' for Active; 'I' for Inactive)
REMARK    1  A    between atoms: C_2  and  C_4
REMARK    2  A    between atoms: N_8  and  C_9
REMARK    3  A    between atoms: C_9  and  C_10
REMARK    4  A    between atoms: C_14  and  C_15
REMARK                            x       y       z     vdW  Elec       q    Type
REMARK                         _______ _______ _______ _____ _____    ______ ____
ROOT
ATOM      1  C   UNL     1      49.631   7.865  12.932  0.00  0.00    +0.000 A 
ATOM      2  C   UNL     1      48.703   8.053  11.915  0.00  0.00    +0.000 A 
ATOM      3  C   UNL     1      47.427   7.504  12.046  0.00  0.00    +0.000 A 
ATOM      4  C   UNL     1      47.101   6.771  13.182  0.00  0.00    +0.000 A 
ATOM      5  N   UNL     1      45.858   6.261  13.422  0.00  0.00    +0.000 N 
ATOM      6  N   UNL     1      48.006   6.557  14.159  0.00  0.00    +0.000 NA
ATOM      7  C   UNL     1      49.246   7.095  14.017  0.00  0.00    +0.000 A 
ATOM      8  H   UNL     1      45.825   5.671  14.243  0.00  0.00    +0.000 HD
ENDROOT
BRANCH   1  10
ATOM      9  N   UNL     1      51.859   7.933  11.976  0.00  0.00    +0.000 N 
ATOM     10  C   UNL     1      50.987   8.448  12.895  0.00  0.00    +0.000 C 
ATOM     11  O   UNL     1      51.307   9.376  13.624  0.00  0.00    +0.000 OA
ATOM     12  H   UNL     1      52.751   8.403  11.889  0.00  0.00    +0.000 HD
ATOM     13  H   UNL     1      51.561   7.351  11.204  0.00  0.00    +0.000 HD
ENDBRANCH   1  10
BRANCH   5  14
ATOM     14  C   UNL     1      44.734   6.281  12.520  0.00  0.00    +0.000 C 
BRANCH  14  15
ATOM     15  C   UNL     1      44.499   4.939  11.871  0.00  0.00    +0.000 A 
ATOM     16  C   UNL     1      43.512   4.079  12.366  0.00  0.00    +0.000 A 
ATOM     17  C   UNL     1      43.256   2.865  11.738  0.00  0.00    +0.000 A 
ATOM     18  C   UNL     1      43.966   2.508  10.590  0.00  0.00    +0.000 A 
ATOM     19  C   UNL     1      44.943   3.356  10.039  0.00  0.00    +0.000 A 
ATOM     20  C   UNL     1      45.216   4.559  10.722  0.00  0.00    +0.000 A 
BRANCH  19  21
ATOM     21  C   UNL     1      45.617   3.035   8.765  0.00  0.00    +0.000 A 
ATOM     22  C   UNL     1      45.830   3.990   7.767  0.00  0.00    +0.000 A 
ATOM     23  N   UNL     1      46.475   3.733   6.601  0.00  0.00    +0.000 NA
ATOM     24  C   UNL     1      46.916   2.466   6.462  0.00  0.00    +0.000 A 
ATOM     25  C   UNL     1      46.722   1.507   7.441  0.00  0.00    +0.000 A 
ATOM     26  N   UNL     1      46.083   1.766   8.606  0.00  0.00    +0.000 NA
ENDBRANCH  19  21
ENDBRANCH  14  15
ENDBRANCH   5  14
TORSDOF 4
ENDMDL
MODEL 6
REMARK VINA RESULT:    -6.963      3.320      8.117
REMARK INTER + INTRA:          -9.114
REMARK INTER:                  -8.729
REMARK INTRA:                  -0.385
REMARK UNBOUND:                -0.523
REMARK  Name = 
REMARK  4 active torsions:
REMARK  status: ('A' for Active; 'I' for Inactive)
REMARK    1  A    between atoms: C_2  and  C_4
REMARK    2  A    between atoms: N_8  and  C_9
REMARK    3  A    between atoms: C_9  and  C_10
REMARK    4  A    between atoms: C_14  and  C_15
REMARK                            x       y       z     vdW  Elec       q    Type
REMARK                         _______ _______ _______ _____ _____    ______ ____
ROOT
ATOM      1  C   UNL     1      49.407   4.270  17.537  0.00  0.00    +0.000 A 
ATOM      2  C   UNL     1      49.193   5.465  16.860  0.00  0.00    +0.000 A 
ATOM      3  C   UNL     1      48.180   5.534  15.904  0.00  0.00    +0.000 A 
ATOM      4  C   UNL     1      47.405   4.411  15.633  0.00  0.00    +0.000 A 
ATOM      5  N   UNL     1      46.350   4.412  14.766  0.00  0.00    +0.000 N 
ATOM      6  N   UNL     1      47.628   3.239  16.262  0.00  0.00    +0.000 NA
ATOM      7  C   UNL     1      48.620   3.186  17.189  0.00  0.00    +0.000 A 
ATOM      8  H   UNL     1      45.964   3.489  14.612  0.00  0.00    +0.000 HD
ENDROOT
BRANCH   1  10
ATOM      9  N   UNL     1      51.398   3.180  18.393  0.00  0.00    +0.000 N 
ATOM     10  C   UNL     1      50.428   4.123  18.593  0.00  0.00    +0.000 C 
ATOM     11  O   UNL     1      50.433   4.838  19.586  0.00  0.00    +0.000 OA
ATOM     12  H   UNL     1      52.147   3.154  19.073  0.00  0.00    +0.000 HD
ATOM     13  H   UNL     1      51.569   2.753  17.493  0.00  0.00    +0.000 HD
ENDBRANCH   1  10
BRANCH   5  14
ATOM     14  C   UNL     1      45.940   5.500  13.914  0.00  0.00    +0.000 C 
BRANCH  14  15
ATOM     15  C   UNL     1      45.024   5.042  12.805  0.00  0.00    +0.000 A 
ATOM     16  C   UNL     1      43.650   5.301  12.873  0.00  0.00    +0.000 A 
ATOM     17  C   UNL     1      42.812   4.928  11.828  0.00  0.00    +0.000 A 
ATOM     18  C   UNL     1      43.341   4.316  10.690  0.00  0.00    +0.000 A 
ATOM     19  C   UNL     1      44.719   4.067  10.566  0.00  0.00    +0.000 A 
ATOM     20  C   UNL     1      45.541   4.411  11.658  0.00  0.00    +0.000 A 
BRANCH  19  21
ATOM     21  C   UNL     1      45.297   3.522   9.321  0.00  0.00    +0.000 A 
ATOM     22  C   UNL     1      45.693   4.339   8.258  0.00  0.00    +0.000 A 
ATOM     23  N   UNL     1      46.259   3.871   7.116  0.00  0.00    +0.000 NA
ATOM     24  C   UNL     1      46.424   2.534   7.070  0.00  0.00    +0.000 A 
ATOM     25  C   UNL     1      46.045   1.708   8.113  0.00  0.00    +0.000 A 
ATOM     26  N   UNL     1      45.487   2.176   9.254  0.00  0.00    +0.000 NA
ENDBRANCH  19  21
ENDBRANCH  14  15
ENDBRANCH   5  14
TORSDOF 4
ENDMDL
MODEL 7
REMARK VINA RESULT:    -6.564      4.232      8.567
REMARK INTER + INTRA:          -8.621
REMARK INTER:                  -8.008
REMARK INTRA:                  -0.613
REMARK UNBOUND:                -0.523
REMARK  Name = 
REMARK  4 active torsions:
REMARK  status: ('A' for Active; 'I' for Inactive)
REMARK    1  A    between atoms: C_2  and  C_4
REMARK    2  A    between atoms: N_8  and  C_9
REMARK    3  A    between atoms: C_9  and  C_10
REMARK    4  A    between atoms: C_14  and  C_15
REMARK                            x       y       z     vdW  Elec       q    Type
REMARK                         _______ _______ _______ _____ _____    ______ ____
ROOT
ATOM      1  C   UNL     1      52.466   2.340  17.964  0.00  0.00    +0.000 A 
ATOM      2  C   UNL     1      51.870   3.564  18.243  0.00  0.00    +0.000 A 
ATOM      3  C   UNL     1      50.535   3.768  17.891  0.00  0.00    +0.000 A 
ATOM      4  C   UNL     1      49.823   2.753  17.259  0.00  0.00    +0.000 A 
ATOM      5  N   UNL     1      48.497   2.844  16.945  0.00  0.00    +0.000 N 
ATOM      6  N   UNL     1      50.404   1.575  16.955  0.00  0.00    +0.000 NA
ATOM      7  C   UNL     1      51.705   1.391  17.302  0.00  0.00    +0.000 A 
ATOM      8  H   UNL     1      48.166   2.058  16.399  0.00  0.00    +0.000 HD
ENDROOT
BRANCH   1  10
ATOM      9  N   UNL     1      54.850   2.657  17.642  0.00  0.00    +0.000 N 
ATOM     10  C   UNL     1      53.858   2.026  18.341  0.00  0.00    +0.000 C 
ATOM     11  O   UNL     1      54.117   1.267  19.265  0.00  0.00    +0.000 OA
ATOM     12  H   UNL     1      55.795   2.512  17.971  0.00  0.00    +0.000 HD
ATOM     13  H   UNL     1      54.678   3.461  17.054  0.00  0.00    +0.000 HD
ENDBRANCH   1  10
BRANCH   5  14
ATOM     14  C   UNL     1      47.658   4.006  17.091  0.00  0.00    +0.000 C 
BRANCH  14  15
ATOM     15  C   UNL     1      47.505   4.766  15.797  0.00  0.00    +0.000 A 
ATOM     16  C   UNL     1      48.377   5.818  15.490  0.00  0.00    +0.000 A 
ATOM     17  C   UNL     1      48.274   6.486  14.274  0.00  0.00    +0.000 A 
ATOM     18  C   UNL     1      47.316   6.092  13.339  0.00  0.00    +0.000 A 
ATOM     19  C   UNL     1      46.441   5.020  13.592  0.00  0.00    +0.000 A 
ATOM     20  C   UNL     1      46.535   4.391  14.850  0.00  0.00    +0.000 A 
BRANCH  19  21
ATOM     21  C   UNL     1      45.502   4.529  12.564  0.00  0.00    +0.000 A 
ATOM     22  C   UNL     1      45.442   5.078  11.280  0.00  0.00    +0.000 A 
ATOM     23  N   UNL     1      44.614   4.627  10.303  0.00  0.00    +0.000 NA
ATOM     24  C   UNL     1      43.835   3.584  10.655  0.00  0.00    +0.000 A 
ATOM     25  C   UNL     1      43.884   3.021  11.918  0.00  0.00    +0.000 A 
ATOM     26  N   UNL     1      44.714   3.468  12.889  0.00  0.00    +0.000 NA
ENDBRANCH  19  21
ENDBRANCH  14  15
ENDBRANCH   5  14
TORSDOF 4
ENDMDL
MODEL 8
REMARK VINA RESULT:    -6.530      3.196      4.919
REMARK INTER + INTRA:          -8.580
REMARK INTER:                  -7.951
REMARK INTRA:                  -0.628
REMARK UNBOUND:                -0.523
REMARK  Name = 
REMARK  4 active torsions:
REMARK  status: ('A' for Active; 'I' for Inactive)
REMARK    1  A    between atoms: C_2  and  C_4
REMARK    2  A    between atoms: N_8  and  C_9
REMARK    3  A    between atoms: C_9  and  C_10
REMARK    4  A    between atoms: C_14  and  C_15
REMARK                            x       y       z     vdW  Elec       q    Type
REMARK                         _______ _______ _______ _____ _____    ______ ____
ROOT
ATOM      1  C   UNL     1      44.227   4.111  11.458  0.00  0.00    +0.000 A 
ATOM      2  C   UNL     1      45.113   4.910  10.746  0.00  0.00    +0.000 A 
ATOM      3  C   UNL     1      45.472   6.155  11.263  0.00  0.00    +0.000 A 
ATOM      4  C   UNL     1      44.936   6.585  12.472  0.00  0.00    +0.000 A 
ATOM      5  N   UNL     1      45.287   7.755  13.082  0.00  0.00    +0.000 N 
ATOM      6  N   UNL     1      44.050   5.829  13.152  0.00  0.00    +0.000 NA
ATOM      7  C   UNL     1      43.707   4.619  12.636  0.00  0.00    +0.000 A 
ATOM      8  H   UNL     1      44.727   7.958  13.899  0.00  0.00    +0.000 HD
ENDROOT
BRANCH   1  10
ATOM      9  N   UNL     1      44.512   2.235   9.946  0.00  0.00    +0.000 N 
ATOM     10  C   UNL     1      43.828   2.763  11.006  0.00  0.00    +0.000 C 
ATOM     11  O   UNL     1      42.952   2.127  11.576  0.00  0.00    +0.000 OA
ATOM     12  H   UNL     1      44.301   1.275   9.707  0.00  0.00    +0.000 HD
ATOM     13  H   UNL     1      45.389   2.616   9.616  0.00  0.00    +0.000 HD
ENDBRANCH   1  10
BRANCH   5  14
ATOM     14  C   UNL     1      46.151   8.777  12.545  0.00  0.00    +0.000 C 
BRANCH  14  15
ATOM     15  C   UNL     1      47.602   8.529  12.878  0.00  0.00    +0.000 A 
ATOM     16  C   UNL     1      48.611   9.192  12.169  0.00  0.00    +0.000 A 
ATOM     17  C   UNL     1      49.947   9.008  12.508  0.00  0.00    +0.000 A 
ATOM     18  C   UNL     1      50.289   8.180  13.579  0.00  0.00    +0.000 A 
ATOM     19  C   UNL     1      49.306   7.521  14.340  0.00  0.00    +0.000 A 
ATOM     20  C   UNL     1      47.963   7.687  13.946  0.00  0.00    +0.000 A 
BRANCH  19  21
ATOM     21  C   UNL     1      49.655   6.735  15.540  0.00  0.00    +0.000 A 
ATOM     22  C   UNL     1      48.693   6.074  16.309  0.00  0.00    +0.000 A 
ATOM     23  N   UNL     1      48.987   5.316  17.397  0.00  0.00    +0.000 NA
ATOM     24  C   UNL     1      50.299   5.233  17.695  0.00  0.00    +0.000 A 
ATOM     25  C   UNL     1      51.267   5.874  16.943  0.00  0.00    +0.000 A 
ATOM     26  N   UNL     1      50.974   6.625  15.855  0.00  0.00    +0.000 NA
ENDBRANCH  19  21
ENDBRANCH  14  15
ENDBRANCH   5  14
TORSDOF 4
ENDMDL
