MODEL 1
REMARK VINA RESULT:    -8.113      0.000      0.000
REMARK INTER + INTRA:          -9.207
REMARK INTER:                  -9.536
REMARK INTRA:                   0.329
REMARK UNBOUND:                 0.329
REMARK  Name = 
REMARK  3 active torsions:
REMARK  status: ('A' for Active; 'I' for Inactive)
REMARK    1  A    between atoms: C_2  and  C_4
REMARK    2  A    between atoms: N_8  and  C_9
REMARK    3  A    between atoms: C_9  and  C_10
REMARK                            x       y       z     vdW  Elec       q    Type
REMARK                         _______ _______ _______ _____ _____    ______ ____
ROOT
ATOM      1  C   UNL     1      46.615   2.476   7.517  0.00  0.00    +0.000 A 
ATOM      2  C   UNL     1      46.606   3.837   7.230  0.00  0.00    +0.000 A 
ATOM      3  C   UNL     1      45.891   4.697   8.063  0.00  0.00    +0.000 A 
ATOM      4  C   UNL     1      45.228   4.198   9.187  0.00  0.00    +0.000 A 
ATOM      5  N   UNL     1      44.480   5.127   9.946  0.00  0.00    +0.000 N 
ATOM      6  N   UNL     1      45.264   2.885   9.493  0.00  0.00    +0.000 NA
ATOM      7  C   UNL     1      45.922   2.053   8.642  0.00  0.00    +0.000 A 
ATOM      8  H   UNL     1      43.709   5.452   9.368  0.00  0.00    +0.000 HD
ENDROOT
BRANCH   1  10
ATOM      9  N   UNL     1      48.266   1.928   5.816  0.00  0.00    +0.000 N 
ATOM     10  C   UNL     1      47.285   1.481   6.655  0.00  0.00    +0.000 C 
ATOM     11  O   UNL     1      46.986   0.294   6.702  0.00  0.00    +0.000 OA
ATOM     12  H   UNL     1      48.768   1.219   5.292  0.00  0.00    +0.000 HD
ATOM     13  H   UNL     1      48.708   2.830   5.918  0.00  0.00    +0.000 HD
ENDBRANCH   1  10
BRANCH   5  14
ATOM     14  C   UNL     1      44.118   4.884  11.358  0.00  0.00    +0.000 C 
ATOM     15  C   UNL     1      43.003   3.858  11.557  0.00  0.00    +0.000 C 
ATOM     16  C   UNL     1      42.752   5.296  11.873  0.00  0.00    +0.000 C 
BRANCH  14  17
ATOM     17  C   UNL     1      45.281   4.837  12.344  0.00  0.00    +0.000 A 
ATOM     18  C   UNL     1      45.766   3.622  12.845  0.00  0.00    +0.000 A 
ATOM     19  C   UNL     1      46.847   3.618  13.714  0.00  0.00    +0.000 A 
ATOM     20  N   UNL     1      47.492   4.733  14.113  0.00  0.00    +0.000 NA
ATOM     21  C   UNL     1      47.020   5.899  13.633  0.00  0.00    +0.000 A 
ATOM     22  C   UNL     1      45.937   6.000  12.773  0.00  0.00    +0.000 A 
ENDBRANCH  14  17
ENDBRANCH   5  14
TORSDOF 3
ENDMDL
MODEL 2
REMARK VINA RESULT:    -7.457      1.426      1.884
REMARK INTER + INTRA:          -8.436
REMARK INTER:                  -8.075
REMARK INTRA:                  -0.361
REMARK UNBOUND:                 0.329
REMARK  Name = 
REMARK  3 active torsions:
REMARK  status: ('A' for Active; 'I' for Inactive)
REMARK    1  A    between atoms: C_2  and  C_4
REMARK    2  A    between atoms: N_8  and  C_9
REMARK    3  A    between atoms: C_9  and  C_10
REMARK                            x       y       z     vdW  Elec       q    Type
REMARK                         _______ _______ _______ _____ _____    ______ ____
ROOT
ATOM      1  C   UNL     1      46.428   2.954   7.384  0.00  0.00    +0.000 A 
ATOM      2  C   UNL     1      45.792   1.908   8.043  0.00  0.00    +0.000 A 
ATOM      3  C   UNL     1      45.193   2.154   9.278  0.00  0.00    +0.000 A 
ATOM      4  C   UNL     1      45.203   3.441   9.820  0.00  0.00    +0.000 A 
ATOM      5  N   UNL     1      44.625   3.593  11.102  0.00  0.00    +0.000 N 
ATOM      6  N   UNL     1      45.785   4.469   9.169  0.00  0.00    +0.000 NA
ATOM      7  C   UNL     1      46.410   4.201   7.991  0.00  0.00    +0.000 A 
ATOM      8  H   UNL     1      45.196   3.077  11.765  0.00  0.00    +0.000 HD
ENDROOT
BRANCH   1  10
ATOM      9  N   UNL     1      48.483   2.480   6.170  0.00  0.00    +0.000 N 
ATOM     10  C   UNL     1      47.150   2.775   6.107  0.00  0.00    +0.000 C 
ATOM     11  O   UNL     1      46.574   2.869   5.031  0.00  0.00    +0.000 OA
ATOM     12  H   UNL     1      48.942   2.282   5.288  0.00  0.00    +0.000 HD
ATOM     13  H   UNL     1      48.936   2.155   7.012  0.00  0.00    +0.000 HD
ENDBRANCH   1  10
BRANCH   5  14
ATOM     14  C   UNL     1      44.147   4.899  11.602  0.00  0.00    +0.000 C 
ATOM     15  C   UNL     1      42.774   4.855  12.273  0.00  0.00    +0.000 C 
ATOM     16  C   UNL     1      42.938   5.559  10.966  0.00  0.00    +0.000 C 
BRANCH  14  17
ATOM     17  C   UNL     1      45.201   5.790  12.252  0.00  0.00    +0.000 A 
ATOM     18  C   UNL     1      46.266   5.249  12.983  0.00  0.00    +0.000 A 
ATOM     19  C   UNL     1      47.224   6.090  13.530  0.00  0.00    +0.000 A 
ATOM     20  N   UNL     1      47.208   7.432  13.394  0.00  0.00    +0.000 NA
ATOM     21  C   UNL     1      46.180   7.949  12.694  0.00  0.00    +0.000 A 
ATOM     22  C   UNL     1      45.171   7.187  12.125  0.00  0.00    +0.000 A 
ENDBRANCH  14  17
ENDBRANCH   5  14
TORSDOF 3
ENDMDL
MODEL 3
REMARK VINA RESULT:    -6.817      3.281      6.239
REMARK INTER + INTRA:          -7.684
REMARK INTER:                  -7.384
REMARK INTRA:                  -0.300
REMARK UNBOUND:                 0.329
REMARK  Name = 
REMARK  3 active torsions:
REMARK  status: ('A' for Active; 'I' for Inactive)
REMARK    1  A    between atoms: C_2  and  C_4
REMARK    2  A    between atoms: N_8  and  C_9
REMARK    3  A    between atoms: C_9  and  C_10
REMARK                            x       y       z     vdW  Elec       q    Type
REMARK                         _______ _______ _______ _____ _____    ______ ____
ROOT
ATOM      1  C   UNL     1      48.080   7.118  13.969  0.00  0.00    +0.000 A 
ATOM      2  C   UNL     1      47.273   8.203  13.645  0.00  0.00    +0.000 A 
ATOM      3  C   UNL     1      46.136   7.990  12.867  0.00  0.00    +0.000 A 
ATOM      4  C   UNL     1      45.799   6.699  12.454  0.00  0.00    +0.000 A 
ATOM      5  N   UNL     1      44.663   6.577  11.620  0.00  0.00    +0.000 N 
ATOM      6  N   UNL     1      46.555   5.636  12.796  0.00  0.00    +0.000 NA
ATOM      7  C   UNL     1      47.689   5.868  13.512  0.00  0.00    +0.000 A 
ATOM      8  H   UNL     1      44.873   7.036  10.738  0.00  0.00    +0.000 HD
ENDROOT
BRANCH   1  10
ATOM      9  N   UNL     1      50.482   7.505  14.020  0.00  0.00    +0.000 N 
ATOM     10  C   UNL     1      49.340   7.255  14.728  0.00  0.00    +0.000 C 
ATOM     11  O   UNL     1      49.361   7.165  15.950  0.00  0.00    +0.000 OA
ATOM     12  H   UNL     1      51.320   7.676  14.564  0.00  0.00    +0.000 HD
ATOM     13  H   UNL     1      50.476   7.827  13.063  0.00  0.00    +0.000 HD
ENDBRANCH   1  10
BRANCH   5  14
ATOM     14  C   UNL     1      43.919   5.308  11.481  0.00  0.00    +0.000 C 
ATOM     15  C   UNL     1      42.407   5.439  11.659  0.00  0.00    +0.000 C 
ATOM     16  C   UNL     1      43.212   4.706  12.681  0.00  0.00    +0.000 C 
BRANCH  14  17
ATOM     17  C   UNL     1      44.402   4.370  10.379  0.00  0.00    +0.000 A 
ATOM     18  C   UNL     1      45.142   4.842   9.289  0.00  0.00    +0.000 A 
ATOM     19  C   UNL     1      45.594   3.953   8.324  0.00  0.00    +0.000 A 
ATOM     20  N   UNL     1      45.374   2.623   8.371  0.00  0.00    +0.000 NA
ATOM     21  C   UNL     1      44.658   2.173   9.419  0.00  0.00    +0.000 A 
ATOM     22  C   UNL     1      44.155   2.989  10.420  0.00  0.00    +0.000 A 
ENDBRANCH  14  17
ENDBRANCH   5  14
TORSDOF 3
ENDMDL
MODEL 4
REMARK VINA RESULT:    -6.731      3.323      6.212
REMARK INTER + INTRA:          -7.583
REMARK INTER:                  -7.584
REMARK INTRA:                   0.001
REMARK UNBOUND:                 0.329
REMARK  Name = 
REMARK  3 active torsions:
REMARK  status: ('A' for Active; 'I' for Inactive)
REMARK    1  A    between atoms: C_2  and  C_4
REMARK    2  A    between atoms: N_8  and  C_9
REMARK    3  A    between atoms: C_9  and  C_10
REMARK                            x       y       z     vdW  Elec       q    Type
REMARK                         _______ _______ _______ _____ _____    ______ ____
ROOT
ATOM      1  C   UNL     1      46.836   8.434  12.179  0.00  0.00    +0.000 A 
ATOM      2  C   UNL     1      45.477   8.703  12.059  0.00  0.00    +0.000 A 
ATOM      3  C   UNL     1      44.635   7.711  11.558  0.00  0.00    +0.000 A 
ATOM      4  C   UNL     1      45.150   6.457  11.220  0.00  0.00    +0.000 A 
ATOM      5  N   UNL     1      44.239   5.527  10.666  0.00  0.00    +0.000 N 
ATOM      6  N   UNL     1      46.460   6.176  11.371  0.00  0.00    +0.000 NA
ATOM      7  C   UNL     1      47.276   7.171  11.811  0.00  0.00    +0.000 A 
ATOM      8  H   UNL     1      43.938   5.885   9.764  0.00  0.00    +0.000 HD
ENDROOT
BRANCH   1  10
ATOM      9  N   UNL     1      47.744   9.856  13.933  0.00  0.00    +0.000 N 
ATOM     10  C   UNL     1      47.816   9.444  12.632  0.00  0.00    +0.000 C 
ATOM     11  O   UNL     1      48.672   9.884  11.876  0.00  0.00    +0.000 OA
ATOM     12  H   UNL     1      48.474  10.487  14.246  0.00  0.00    +0.000 HD
ATOM     13  H   UNL     1      47.230   9.353  14.642  0.00  0.00    +0.000 HD
ENDBRANCH   1  10
BRANCH   5  14
ATOM     14  C   UNL     1      44.488   4.071  10.687  0.00  0.00    +0.000 C 
ATOM     15  C   UNL     1      43.340   3.242  11.263  0.00  0.00    +0.000 C 
ATOM     16  C   UNL     1      44.627   3.344  12.011  0.00  0.00    +0.000 C 
BRANCH  14  17
ATOM     17  C   UNL     1      45.204   3.499   9.468  0.00  0.00    +0.000 A 
ATOM     18  C   UNL     1      45.383   2.120   9.304  0.00  0.00    +0.000 A 
ATOM     19  C   UNL     1      46.009   1.637   8.164  0.00  0.00    +0.000 A 
ATOM     20  N   UNL     1      46.461   2.424   7.167  0.00  0.00    +0.000 NA
ATOM     21  C   UNL     1      46.291   3.751   7.330  0.00  0.00    +0.000 A 
ATOM     22  C   UNL     1      45.690   4.323   8.441  0.00  0.00    +0.000 A 
ENDBRANCH  14  17
ENDBRANCH   5  14
TORSDOF 3
ENDMDL
MODEL 5
REMARK VINA RESULT:    -6.457      3.182      6.632
REMARK INTER + INTRA:          -7.260
REMARK INTER:                  -7.193
REMARK INTRA:                  -0.067
REMARK UNBOUND:                 0.329
REMARK  Name = 
REMARK  3 active torsions:
REMARK  status: ('A' for Active; 'I' for Inactive)
REMARK    1  A    between atoms: C_2  and  C_4
REMARK    2  A    between atoms: N_8  and  C_9
REMARK    3  A    between atoms: C_9  and  C_10
REMARK                            x       y       z     vdW  Elec       q    Type
REMARK                         _______ _______ _______ _____ _____    ______ ____
ROOT
ATOM      1  C   UNL     1      47.880   5.122  15.545  0.00  0.00    +0.000 A 
ATOM      2  C   UNL     1      48.103   6.324  14.882  0.00  0.00    +0.000 A 
ATOM      3  C   UNL     1      47.464   6.551  13.664  0.00  0.00    +0.000 A 
ATOM      4  C   UNL     1      46.586   5.597  13.142  0.00  0.00    +0.000 A 
ATOM      5  N   UNL     1      46.024   5.880  11.876  0.00  0.00    +0.000 N 
ATOM      6  N   UNL     1      46.335   4.446  13.798  0.00  0.00    +0.000 NA
ATOM      7  C   UNL     1      47.007   4.218  14.959  0.00  0.00    +0.000 A 
ATOM      8  H   UNL     1      46.776   5.875  11.193  0.00  0.00    +0.000 HD
ENDROOT
BRANCH   1  10
ATOM      9  N   UNL     1      47.790   4.366  17.856  0.00  0.00    +0.000 N 
ATOM     10  C   UNL     1      48.566   4.762  16.803  0.00  0.00    +0.000 C 
ATOM     11  O   UNL     1      49.786   4.800  16.897  0.00  0.00    +0.000 OA
ATOM     12  H   UNL     1      48.282   4.047  18.683  0.00  0.00    +0.000 HD
ATOM     13  H   UNL     1      46.825   4.087  17.754  0.00  0.00    +0.000 HD
ENDBRANCH   1  10
BRANCH   5  14
ATOM     14  C   UNL     1      44.776   5.243  11.406  0.00  0.00    +0.000 C 
ATOM     15  C   UNL     1      43.559   6.168  11.400  0.00  0.00    +0.000 C 
ATOM     16  C   UNL     1      43.622   5.034  12.369  0.00  0.00    +0.000 C 
BRANCH  14  17
ATOM     17  C   UNL     1      44.919   4.287  10.227  0.00  0.00    +0.000 A 
ATOM     18  C   UNL     1      45.543   4.680   9.037  0.00  0.00    +0.000 A 
ATOM     19  C   UNL     1      45.685   3.771   7.999  0.00  0.00    +0.000 A 
ATOM     20  N   UNL     1      45.261   2.492   8.061  0.00  0.00    +0.000 NA
ATOM     21  C   UNL     1      44.656   2.118   9.205  0.00  0.00    +0.000 A 
ATOM     22  C   UNL     1      44.459   2.962  10.287  0.00  0.00    +0.000 A 
ENDBRANCH  14  17
ENDBRANCH   5  14
TORSDOF 3
ENDMDL
MODEL 6
REMARK VINA RESULT:    -6.387      3.120      6.303
REMARK INTER + INTRA:          -7.178
REMARK INTER:                  -7.608
REMARK INTRA:                   0.430
REMARK UNBOUND:                 0.329
REMARK  Name = 
REMARK  3 active torsions:
REMARK  status: ('A' for Active; 'I' for Inactive)
REMARK    1  A    between atoms: C_2  and  C_4
REMARK    2  A    between atoms: N_8  and  C_9
REMARK    3  A    between atoms: C_9  and  C_10
REMARK                            x       y       z     vdW  Elec       q    Type
REMARK                         _______ _______ _______ _____ _____    ______ ____
ROOT
ATOM      1  C   UNL     1      47.032   7.338  13.424  0.00  0.00    +0.000 A 
ATOM      2  C   UNL     1      47.671   6.171  13.827  0.00  0.00    +0.000 A 
ATOM      3  C   UNL     1      47.101   4.941  13.498  0.00  0.00    +0.000 A 
ATOM      4  C   UNL     1      45.926   4.891  12.743  0.00  0.00    +0.000 A 
ATOM      5  N   UNL     1      45.382   3.608  12.502  0.00  0.00    +0.000 N 
ATOM      6  N   UNL     1      45.321   6.018  12.317  0.00  0.00    +0.000 NA
ATOM      7  C   UNL     1      45.862   7.209  12.690  0.00  0.00    +0.000 A 
ATOM      8  H   UNL     1      45.082   3.224  13.394  0.00  0.00    +0.000 HD
ENDROOT
BRANCH   1  10
ATOM      9  N   UNL     1      47.426   9.063  15.095  0.00  0.00    +0.000 N 
ATOM     10  C   UNL     1      47.521   8.685  13.785  0.00  0.00    +0.000 C 
ATOM     11  O   UNL     1      48.011   9.431  12.946  0.00  0.00    +0.000 OA
ATOM     12  H   UNL     1      47.841   9.956  15.336  0.00  0.00    +0.000 HD
ATOM     13  H   UNL     1      47.265   8.408  15.846  0.00  0.00    +0.000 HD
ENDBRANCH   1  10
BRANCH   5  14
ATOM     14  C   UNL     1      44.454   3.341  11.384  0.00  0.00    +0.000 C 
ATOM     15  C   UNL     1      43.085   4.005  11.527  0.00  0.00    +0.000 C 
ATOM     16  C   UNL     1      43.201   2.519  11.618  0.00  0.00    +0.000 C 
BRANCH  14  17
ATOM     17  C   UNL     1      45.074   3.337   9.991  0.00  0.00    +0.000 A 
ATOM     18  C   UNL     1      45.323   2.142   9.305  0.00  0.00    +0.000 A 
ATOM     19  C   UNL     1      45.856   2.180   8.024  0.00  0.00    +0.000 A 
ATOM     20  N   UNL     1      46.149   3.322   7.369  0.00  0.00    +0.000 NA
ATOM     21  C   UNL     1      45.912   4.469   8.034  0.00  0.00    +0.000 A 
ATOM     22  C   UNL     1      45.395   4.526   9.319  0.00  0.00    +0.000 A 
ENDBRANCH  14  17
ENDBRANCH   5  14
TORSDOF 3
ENDMDL
MODEL 7
REMARK VINA RESULT:    -5.933      3.895      5.705
REMARK INTER + INTRA:          -6.645
REMARK INTER:                  -6.251
REMARK INTRA:                  -0.393
REMARK UNBOUND:                 0.329
REMARK  Name = 
REMARK  3 active torsions:
REMARK  status: ('A' for Active; 'I' for Inactive)
REMARK    1  A    between atoms: C_2  and  C_4
REMARK    2  A    between atoms: N_8  and  C_9
REMARK    3  A    between atoms: C_9  and  C_10
REMARK                            x       y       z     vdW  Elec       q    Type
REMARK                         _______ _______ _______ _____ _____    ______ ____
ROOT
ATOM      1  C   UNL     1      44.640   4.804  11.879  0.00  0.00    +0.000 A 
ATOM      2  C   UNL     1      44.196   5.997  11.320  0.00  0.00    +0.000 A 
ATOM      3  C   UNL     1      44.969   7.146  11.481  0.00  0.00    +0.000 A 
ATOM      4  C   UNL     1      46.188   7.084  12.161  0.00  0.00    +0.000 A 
ATOM      5  N   UNL     1      46.882   8.305  12.329  0.00  0.00    +0.000 N 
ATOM      6  N   UNL     1      46.644   5.923  12.672  0.00  0.00    +0.000 NA
ATOM      7  C   UNL     1      45.853   4.823  12.552  0.00  0.00    +0.000 A 
ATOM      8  H   UNL     1      46.326   8.898  12.939  0.00  0.00    +0.000 HD
ENDROOT
BRANCH   1  10
ATOM      9  N   UNL     1      44.252   2.521  12.627  0.00  0.00    +0.000 N 
ATOM     10  C   UNL     1      43.857   3.552  11.822  0.00  0.00    +0.000 C 
ATOM     11  O   UNL     1      42.879   3.446  11.093  0.00  0.00    +0.000 OA
ATOM     12  H   UNL     1      43.655   1.701  12.634  0.00  0.00    +0.000 HD
ATOM     13  H   UNL     1      44.882   2.642  13.406  0.00  0.00    +0.000 HD
ENDBRANCH   1  10
BRANCH   5  14
ATOM     14  C   UNL     1      48.335   8.356  12.594  0.00  0.00    +0.000 C 
ATOM     15  C   UNL     1      49.097   9.370  11.741  0.00  0.00    +0.000 C 
ATOM     16  C   UNL     1      49.317   7.909  11.528  0.00  0.00    +0.000 C 
BRANCH  14  17
ATOM     17  C   UNL     1      48.750   8.239  14.057  0.00  0.00    +0.000 A 
ATOM     18  C   UNL     1      48.160   9.030  15.051  0.00  0.00    +0.000 A 
ATOM     19  C   UNL     1      48.540   8.870  16.375  0.00  0.00    +0.000 A 
ATOM     20  N   UNL     1      49.456   7.970  16.788  0.00  0.00    +0.000 NA
ATOM     21  C   UNL     1      50.024   7.214  15.829  0.00  0.00    +0.000 A 
ATOM     22  C   UNL     1      49.718   7.315  14.481  0.00  0.00    +0.000 A 
ENDBRANCH  14  17
ENDBRANCH   5  14
TORSDOF 3
ENDMDL
MODEL 8
REMARK VINA RESULT:    -5.726      3.679      5.872
REMARK INTER + INTRA:          -6.401
REMARK INTER:                  -6.081
REMARK INTRA:                  -0.320
REMARK UNBOUND:                 0.329
REMARK  Name = 
REMARK  3 active torsions:
REMARK  status: ('A' for Active; 'I' for Inactive)
REMARK    1  A    between atoms: C_2  and  C_4
REMARK    2  A    between atoms: N_8  and  C_9
REMARK    3  A    between atoms: C_9  and  C_10
REMARK                            x       y       z     vdW  Elec       q    Type
REMARK                         _______ _______ _______ _____ _____    ______ ____
ROOT
ATOM      1  C   UNL     1      44.966   4.695  11.387  0.00  0.00    +0.000 A 
ATOM      2  C   UNL     1      45.522   4.066  12.496  0.00  0.00    +0.000 A 
ATOM      3  C   UNL     1      46.538   4.712  13.199  0.00  0.00    +0.000 A 
ATOM      4  C   UNL     1      46.960   5.987  12.812  0.00  0.00    +0.000 A 
ATOM      5  N   UNL     1      48.033   6.548  13.542  0.00  0.00    +0.000 N 
ATOM      6  N   UNL     1      46.399   6.619  11.761  0.00  0.00    +0.000 NA
ATOM      7  C   UNL     1      45.445   5.953  11.055  0.00  0.00    +0.000 A 
ATOM      8  H   UNL     1      48.860   5.984  13.362  0.00  0.00    +0.000 HD
ENDROOT
BRANCH   1  10
ATOM      9  N   UNL     1      43.919   4.386   9.212  0.00  0.00    +0.000 N 
ATOM     10  C   UNL     1      43.936   4.060  10.539  0.00  0.00    +0.000 C 
ATOM     11  O   UNL     1      43.136   3.256  11.003  0.00  0.00    +0.000 OA
ATOM     12  H   UNL     1      43.258   3.880   8.633  0.00  0.00    +0.000 HD
ATOM     13  H   UNL     1      44.692   4.839   8.747  0.00  0.00    +0.000 HD
ENDBRANCH   1  10
BRANCH   5  14
ATOM     14  C   UNL     1      48.288   8.003  13.579  0.00  0.00    +0.000 C 
ATOM     15  C   UNL     1      48.350   8.598  14.985  0.00  0.00    +0.000 C 
ATOM     16  C   UNL     1      47.214   8.948  14.082  0.00  0.00    +0.000 C 
BRANCH  14  17
ATOM     17  C   UNL     1      49.299   8.528  12.565  0.00  0.00    +0.000 A 
ATOM     18  C   UNL     1      49.144   9.781  11.959  0.00  0.00    +0.000 A 
ATOM     19  C   UNL     1      50.103  10.239  11.067  0.00  0.00    +0.000 A 
ATOM     20  N   UNL     1      51.214   9.547  10.742  0.00  0.00    +0.000 NA
ATOM     21  C   UNL     1      51.358   8.341  11.324  0.00  0.00    +0.000 A 
ATOM     22  C   UNL     1      50.444   7.797  12.214  0.00  0.00    +0.000 A 
ENDBRANCH  14  17
ENDBRANCH   5  14
TORSDOF 3
ENDMDL
MODEL 9
REMARK VINA RESULT:    -5.671      5.723      9.065
REMARK INTER + INTRA:          -6.337
REMARK INTER:                  -5.988
REMARK INTRA:                  -0.349
REMARK UNBOUND:                 0.329
REMARK  Name = 
REMARK  3 active torsions:
REMARK  status: ('A' for Active; 'I' for Inactive)
REMARK    1  A    between atoms: C_2  and  C_4
REMARK    2  A    between atoms: N_8  and  C_9
REMARK    3  A    between atoms: C_9  and  C_10
REMARK                            x       y       z     vdW  Elec       q    Type
REMARK                         _______ _______ _______ _____ _____    ______ ____
ROOT
ATOM      1  C   UNL     1      52.249   1.792  17.715  0.00  0.00    +0.000 A 
ATOM      2  C   UNL     1      52.773   2.982  18.210  0.00  0.00    +0.000 A 
ATOM      3  C   UNL     1      52.015   4.147  18.107  0.00  0.00    +0.000 A 
ATOM      4  C   UNL     1      50.735   4.106  17.548  0.00  0.00    +0.000 A 
ATOM      5  N   UNL     1      50.056   5.341  17.429  0.00  0.00    +0.000 N 
ATOM      6  N   UNL     1      50.205   2.950  17.101  0.00  0.00    +0.000 NA
ATOM      7  C   UNL     1      50.979   1.832  17.161  0.00  0.00    +0.000 A 
ATOM      8  H   UNL     1      50.564   5.912  16.760  0.00  0.00    +0.000 HD
ENDROOT
BRANCH   1  10
ATOM      9  N   UNL     1      52.527  -0.499  18.486  0.00  0.00    +0.000 N 
ATOM     10  C   UNL     1      53.006   0.523  17.716  0.00  0.00    +0.000 C 
ATOM     11  O   UNL     1      54.016   0.383  17.037  0.00  0.00    +0.000 OA
ATOM     12  H   UNL     1      53.013  -1.385  18.411  0.00  0.00    +0.000 HD
ATOM     13  H   UNL     1      51.588  -0.514  18.858  0.00  0.00    +0.000 HD
ENDBRANCH   1  10
BRANCH   5  14
ATOM     14  C   UNL     1      48.586   5.424  17.304  0.00  0.00    +0.000 C 
ATOM     15  C   UNL     1      47.920   6.372  18.301  0.00  0.00    +0.000 C 
ATOM     16  C   UNL     1      47.699   4.900  18.417  0.00  0.00    +0.000 C 
BRANCH  14  17
ATOM     17  C   UNL     1      48.037   5.428  15.881  0.00  0.00    +0.000 A 
ATOM     18  C   UNL     1      48.389   6.426  14.964  0.00  0.00    +0.000 A 
ATOM     19  C   UNL     1      47.896   6.376  13.668  0.00  0.00    +0.000 A 
ATOM     20  N   UNL     1      47.088   5.398  13.211  0.00  0.00    +0.000 NA
ATOM     21  C   UNL     1      46.748   4.442  14.098  0.00  0.00    +0.000 A 
ATOM     22  C   UNL     1      47.180   4.419  15.415  0.00  0.00    +0.000 A 
ENDBRANCH  14  17
ENDBRANCH   5  14
TORSDOF 3
ENDMDL
