MODEL 1
REMARK VINA RESULT:    -7.732      0.000      0.000
REMARK INTER + INTRA:         -11.497
REMARK INTER:                 -10.444
REMARK INTRA:                  -1.054
REMARK UNBOUND:                -1.054
REMARK  Name = 
REMARK  7 active torsions:
REMARK  status: ('A' for Active; 'I' for Inactive)
REMARK    1  A    between atoms: C_1  and  C_2
REMARK    2  A    between atoms: C_2  and  N_3
REMARK    3  A    between atoms: C_2  and  C_16
REMARK    4  A    between atoms: C_4  and  C_6
REMARK    5  A    between atoms: C_19  and  C_20
REMARK    6  A    between atoms: C_20  and  N_21
REMARK    7  A    between atoms: C_22  and  C_24
REMARK                            x       y       z     vdW  Elec       q    Type
REMARK                         _______ _______ _______ _____ _____    ______ ____
ROOT
ATOM      1  C   UNL     1      48.519   8.081  14.215  0.00  0.00    +0.000 C 
ATOM      2  C   UNL     1      47.988   6.842  14.943  0.00  0.00    +0.000 C 
ENDROOT
BRANCH   2   3
ATOM      3  C   UNL     1      47.147   5.909  14.077  0.00  0.00    +0.000 A 
ATOM      4  C   UNL     1      46.315   6.472  13.096  0.00  0.00    +0.000 A 
ATOM      5  C   UNL     1      45.499   5.673  12.286  0.00  0.00    +0.000 A 
ATOM      6  C   UNL     1      45.477   4.282  12.445  0.00  0.00    +0.000 A 
ATOM      7  C   UNL     1      46.310   3.711  13.416  0.00  0.00    +0.000 A 
ATOM      8  C   UNL     1      47.122   4.514  14.230  0.00  0.00    +0.000 A 
BRANCH   6   9
ATOM      9  C   UNL     1      44.565   3.425  11.606  0.00  0.00    +0.000 C 
BRANCH   9  10
ATOM     10  N   UNL     1      45.256   2.774  10.523  0.00  0.00    +0.000 N 
ATOM     11  C   UNL     1      45.075   3.172   9.209  0.00  0.00    +0.000 C 
ATOM     12  O   UNL     1      44.302   4.079   8.914  0.00  0.00    +0.000 OA
ATOM     13  H   UNL     1      45.907   2.014  10.699  0.00  0.00    +0.000 HD
BRANCH  11  14
ATOM     14  C   UNL     1      45.890   2.419   8.254  0.00  0.00    +0.000 A 
ATOM     15  N   UNL     1      46.108   1.118   8.362  0.00  0.00    +0.000 NA
ATOM     16  C   UNL     1      46.923   0.704   7.326  0.00  0.00    +0.000 A 
ATOM     17  C   UNL     1      47.316   1.689   6.443  0.00  0.00    +0.000 A 
ATOM     18  S   UNL     1      46.639   3.191   6.919  0.00  0.00    +0.000 S 
ENDBRANCH  11  14
ENDBRANCH   9  10
ENDBRANCH   6   9
ENDBRANCH   2   3
BRANCH   2  19
ATOM     19  N   UNL     1      49.075   6.090  15.546  0.00  0.00    +0.000 N 
ATOM     20  C   UNL     1      49.130   5.801  16.888  0.00  0.00    +0.000 C 
ATOM     21  O   UNL     1      48.212   6.055  17.660  0.00  0.00    +0.000 OA
ATOM     22  H   UNL     1      49.914   5.991  14.988  0.00  0.00    +0.000 HD
BRANCH  20  23
ATOM     23  C   UNL     1      50.343   5.108  17.341  0.00  0.00    +0.000 A 
ATOM     24  C   UNL     1      51.428   5.825  17.823  0.00  0.00    +0.000 A 
ATOM     25  S   UNL     1      52.733   4.837  18.311  0.00  0.00    +0.000 S 
ATOM     26  C   UNL     1      51.913   3.424  17.833  0.00  0.00    +0.000 A 
ATOM     27  N   UNL     1      52.499   2.198  17.942  0.00  0.00    +0.000 NA
ATOM     28  C   UNL     1      51.776   1.223  17.506  0.00  0.00    +0.000 A 
ATOM     29  N   UNL     1      50.515   1.356  16.983  0.00  0.00    +0.000 N 
ATOM     30  C   UNL     1      49.863   2.564  16.906  0.00  0.00    +0.000 A 
ATOM     31  O   UNL     1      48.701   2.633  16.524  0.00  0.00    +0.000 OA
ATOM     32  C   UNL     1      50.650   3.698  17.348  0.00  0.00    +0.000 A 
ATOM     33  H   UNL     1      49.989   0.547  16.683  0.00  0.00    +0.000 HD
ENDBRANCH  20  23
ENDBRANCH   2  19
TORSDOF 6
ENDMDL
MODEL 2
REMARK VINA RESULT:    -7.680      2.269      2.572
REMARK INTER + INTRA:         -11.428
REMARK INTER:                 -10.936
REMARK INTRA:                  -0.492
REMARK UNBOUND:                -1.054
REMARK  Name = 
REMARK  7 active torsions:
REMARK  status: ('A' for Active; 'I' for Inactive)
REMARK    1  A    between atoms: C_1  and  C_2
REMARK    2  A    between atoms: C_2  and  N_3
REMARK    3  A    between atoms: C_2  and  C_16
REMARK    4  A    between atoms: C_4  and  C_6
REMARK    5  A    between atoms: C_19  and  C_20
REMARK    6  A    between atoms: C_20  and  N_21
REMARK    7  A    between atoms: C_22  and  C_24
REMARK                            x       y       z     vdW  Elec       q    Type
REMARK                         _______ _______ _______ _____ _____    ______ ____
ROOT
ATOM      1  C   UNL     1      48.728   9.390  13.109  0.00  0.00    +0.000 C 
ATOM      2  C   UNL     1      47.499   8.712  13.724  0.00  0.00    +0.000 C 
ENDROOT
BRANCH   2   3
ATOM      3  C   UNL     1      46.714   7.827  12.760  0.00  0.00    +0.000 A 
ATOM      4  C   UNL     1      45.314   7.800  12.863  0.00  0.00    +0.000 A 
ATOM      5  C   UNL     1      44.538   6.989  12.025  0.00  0.00    +0.000 A 
ATOM      6  C   UNL     1      45.142   6.164  11.069  0.00  0.00    +0.000 A 
ATOM      7  C   UNL     1      46.538   6.192  10.954  0.00  0.00    +0.000 A 
ATOM      8  C   UNL     1      47.314   7.001  11.797  0.00  0.00    +0.000 A 
BRANCH   6   9
ATOM      9  C   UNL     1      44.312   5.257  10.198  0.00  0.00    +0.000 C 
BRANCH   9  10
ATOM     10  N   UNL     1      45.114   4.395   9.370  0.00  0.00    +0.000 N 
ATOM     11  C   UNL     1      44.878   3.032   9.306  0.00  0.00    +0.000 C 
ATOM     12  O   UNL     1      43.993   2.502   9.972  0.00  0.00    +0.000 OA
ATOM     13  H   UNL     1      45.864   4.770   8.797  0.00  0.00    +0.000 HD
BRANCH  11  14
ATOM     14  C   UNL     1      45.770   2.328   8.381  0.00  0.00    +0.000 A 
ATOM     15  N   UNL     1      45.989   1.025   8.445  0.00  0.00    +0.000 NA
ATOM     16  C   UNL     1      46.884   0.665   7.456  0.00  0.00    +0.000 A 
ATOM     17  C   UNL     1      47.335   1.692   6.653  0.00  0.00    +0.000 A 
ATOM     18  S   UNL     1      46.613   3.167   7.145  0.00  0.00    +0.000 S 
ENDBRANCH  11  14
ENDBRANCH   9  10
ENDBRANCH   6   9
ENDBRANCH   2   3
BRANCH   2  19
ATOM     19  N   UNL     1      47.867   7.940  14.898  0.00  0.00    +0.000 N 
ATOM     20  C   UNL     1      48.990   7.150  14.951  0.00  0.00    +0.000 C 
ATOM     21  O   UNL     1      49.827   7.123  14.055  0.00  0.00    +0.000 OA
ATOM     22  H   UNL     1      47.144   7.813  15.594  0.00  0.00    +0.000 HD
BRANCH  20  23
ATOM     23  C   UNL     1      49.162   6.371  16.184  0.00  0.00    +0.000 A 
ATOM     24  C   UNL     1      50.128   6.725  17.114  0.00  0.00    +0.000 A 
ATOM     25  S   UNL     1      50.160   5.704  18.484  0.00  0.00    +0.000 S 
ATOM     26  C   UNL     1      48.927   4.720  17.846  0.00  0.00    +0.000 A 
ATOM     27  N   UNL     1      48.492   3.613  18.513  0.00  0.00    +0.000 NA
ATOM     28  C   UNL     1      47.582   2.942  17.894  0.00  0.00    +0.000 A 
ATOM     29  N   UNL     1      47.053   3.281  16.674  0.00  0.00    +0.000 N 
ATOM     30  C   UNL     1      47.419   4.417  15.991  0.00  0.00    +0.000 A 
ATOM     31  O   UNL     1      46.858   4.740  14.952  0.00  0.00    +0.000 OA
ATOM     32  C   UNL     1      48.470   5.185  16.629  0.00  0.00    +0.000 A 
ATOM     33  H   UNL     1      46.320   2.726  16.254  0.00  0.00    +0.000 HD
ENDBRANCH  20  23
ENDBRANCH   2  19
TORSDOF 6
ENDMDL
MODEL 3
REMARK VINA RESULT:    -7.011      2.396      3.027
REMARK INTER + INTRA:         -10.524
REMARK INTER:                  -9.722
REMARK INTRA:                  -0.802
REMARK UNBOUND:                -1.054
REMARK  Name = 
REMARK  7 active torsions:
REMARK  status: ('A' for Active; 'I' for Inactive)
REMARK    1  A    between atoms: C_1  and  C_2
REMARK    2  A    between atoms: C_2  and  N_3
REMARK    3  A    between atoms: C_2  and  C_16
REMARK    4  A    between atoms: C_4  and  C_6
REMARK    5  A    between atoms: C_19  and  C_20
REMARK    6  A    between atoms: C_20  and  N_21
REMARK    7  A    between atoms: C_22  and  C_24
REMARK                            x       y       z     vdW  Elec       q    Type
REMARK                         _______ _______ _______ _____ _____    ______ ____
ROOT
ATOM      1  C   UNL     1      49.412   8.897  13.706  0.00  0.00    +0.000 C 
ATOM      2  C   UNL     1      47.959   8.708  14.156  0.00  0.00    +0.000 C 
ENDROOT
BRANCH   2   3
ATOM      3  C   UNL     1      47.119   7.828  13.235  0.00  0.00    +0.000 A 
ATOM      4  C   UNL     1      45.984   8.386  12.626  0.00  0.00    +0.000 A 
ATOM      5  C   UNL     1      45.157   7.625  11.790  0.00  0.00    +0.000 A 
ATOM      6  C   UNL     1      45.432   6.273  11.552  0.00  0.00    +0.000 A 
ATOM      7  C   UNL     1      46.568   5.711  12.149  0.00  0.00    +0.000 A 
ATOM      8  C   UNL     1      47.391   6.473  12.990  0.00  0.00    +0.000 A 
BRANCH   6   9
ATOM      9  C   UNL     1      44.518   5.441  10.690  0.00  0.00    +0.000 C 
BRANCH   9  10
ATOM     10  N   UNL     1      45.237   4.592   9.777  0.00  0.00    +0.000 N 
ATOM     11  C   UNL     1      44.822   3.296   9.516  0.00  0.00    +0.000 C 
ATOM     12  O   UNL     1      43.839   2.814  10.073  0.00  0.00    +0.000 OA
ATOM     13  H   UNL     1      46.060   4.928   9.286  0.00  0.00    +0.000 HD
BRANCH  11  14
ATOM     14  C   UNL     1      45.656   2.602   8.533  0.00  0.00    +0.000 A 
ATOM     15  N   UNL     1      45.914   1.306   8.595  0.00  0.00    +0.000 NA
ATOM     16  C   UNL     1      46.738   0.955   7.543  0.00  0.00    +0.000 A 
ATOM     17  C   UNL     1      47.096   1.981   6.693  0.00  0.00    +0.000 A 
ATOM     18  S   UNL     1      46.375   3.444   7.223  0.00  0.00    +0.000 S 
ENDBRANCH  11  14
ENDBRANCH   9  10
ENDBRANCH   6   9
ENDBRANCH   2   3
BRANCH   2  19
ATOM     19  N   UNL     1      47.901   8.183  15.510  0.00  0.00    +0.000 N 
ATOM     20  C   UNL     1      48.364   8.877  16.601  0.00  0.00    +0.000 C 
ATOM     21  O   UNL     1      48.758  10.036  16.534  0.00  0.00    +0.000 OA
ATOM     22  H   UNL     1      47.727   7.190  15.597  0.00  0.00    +0.000 HD
BRANCH  20  23
ATOM     23  C   UNL     1      48.306   8.161  17.882  0.00  0.00    +0.000 A 
ATOM     24  C   UNL     1      47.843   8.795  19.025  0.00  0.00    +0.000 A 
ATOM     25  S   UNL     1      47.840   7.789  20.407  0.00  0.00    +0.000 S 
ATOM     26  C   UNL     1      48.518   6.496  19.533  0.00  0.00    +0.000 A 
ATOM     27  N   UNL     1      48.821   5.315  20.143  0.00  0.00    +0.000 NA
ATOM     28  C   UNL     1      49.364   4.439  19.367  0.00  0.00    +0.000 A 
ATOM     29  N   UNL     1      49.622   4.628  18.033  0.00  0.00    +0.000 N 
ATOM     30  C   UNL     1      49.284   5.780  17.364  0.00  0.00    +0.000 A 
ATOM     31  O   UNL     1      49.441   5.878  16.153  0.00  0.00    +0.000 OA
ATOM     32  C   UNL     1      48.705   6.812  18.202  0.00  0.00    +0.000 A 
ATOM     33  H   UNL     1      50.026   3.890  17.473  0.00  0.00    +0.000 HD
ENDBRANCH  20  23
ENDBRANCH   2  19
TORSDOF 6
ENDMDL
MODEL 4
REMARK VINA RESULT:    -6.932      4.268      4.527
REMARK INTER + INTRA:         -10.417
REMARK INTER:                  -9.758
REMARK INTRA:                  -0.659
REMARK UNBOUND:                -1.054
REMARK  Name = 
REMARK  7 active torsions:
REMARK  status: ('A' for Active; 'I' for Inactive)
REMARK    1  A    between atoms: C_1  and  C_2
REMARK    2  A    between atoms: C_2  and  N_3
REMARK    3  A    between atoms: C_2  and  C_16
REMARK    4  A    between atoms: C_4  and  C_6
REMARK    5  A    between atoms: C_19  and  C_20
REMARK    6  A    between atoms: C_20  and  N_21
REMARK    7  A    between atoms: C_22  and  C_24
REMARK                            x       y       z     vdW  Elec       q    Type
REMARK                         _______ _______ _______ _____ _____    ______ ____
ROOT
ATOM      1  C   UNL     1      45.434   9.722  12.509  0.00  0.00    +0.000 C 
ATOM      2  C   UNL     1      46.091   8.529  13.212  0.00  0.00    +0.000 C 
ENDROOT
BRANCH   2   3
ATOM      3  C   UNL     1      45.633   7.164  12.706  0.00  0.00    +0.000 A 
ATOM      4  C   UNL     1      44.551   7.107  11.814  0.00  0.00    +0.000 A 
ATOM      5  C   UNL     1      44.066   5.884  11.333  0.00  0.00    +0.000 A 
ATOM      6  C   UNL     1      44.640   4.676  11.747  0.00  0.00    +0.000 A 
ATOM      7  C   UNL     1      45.726   4.724  12.630  0.00  0.00    +0.000 A 
ATOM      8  C   UNL     1      46.207   5.950  13.114  0.00  0.00    +0.000 A 
BRANCH   6   9
ATOM      9  C   UNL     1      44.091   3.358  11.266  0.00  0.00    +0.000 C 
BRANCH   9  10
ATOM     10  N   UNL     1      44.944   2.720  10.299  0.00  0.00    +0.000 N 
ATOM     11  C   UNL     1      44.974   3.134   8.978  0.00  0.00    +0.000 C 
ATOM     12  O   UNL     1      44.258   4.046   8.575  0.00  0.00    +0.000 OA
ATOM     13  H   UNL     1      45.559   1.956  10.566  0.00  0.00    +0.000 HD
BRANCH  11  14
ATOM     14  C   UNL     1      45.930   2.390   8.154  0.00  0.00    +0.000 A 
ATOM     15  N   UNL     1      46.155   1.095   8.305  0.00  0.00    +0.000 NA
ATOM     16  C   UNL     1      47.116   0.691   7.398  0.00  0.00    +0.000 A 
ATOM     17  C   UNL     1      47.611   1.677   6.570  0.00  0.00    +0.000 A 
ATOM     18  S   UNL     1      46.846   3.169   6.931  0.00  0.00    +0.000 S 
ENDBRANCH  11  14
ENDBRANCH   9  10
ENDBRANCH   6   9
ENDBRANCH   2   3
BRANCH   2  19
ATOM     19  N   UNL     1      47.539   8.613  13.130  0.00  0.00    +0.000 N 
ATOM     20  C   UNL     1      48.338   8.836  14.225  0.00  0.00    +0.000 C 
ATOM     21  O   UNL     1      47.902   8.867  15.371  0.00  0.00    +0.000 OA
ATOM     22  H   UNL     1      47.928   8.742  12.204  0.00  0.00    +0.000 HD
BRANCH  20  23
ATOM     23  C   UNL     1      49.774   8.978  13.948  0.00  0.00    +0.000 A 
ATOM     24  C   UNL     1      50.583   9.734  14.783  0.00  0.00    +0.000 A 
ATOM     25  S   UNL     1      52.221   9.764  14.297  0.00  0.00    +0.000 S 
ATOM     26  C   UNL     1      51.886   8.820  12.921  0.00  0.00    +0.000 A 
ATOM     27  N   UNL     1      52.866   8.504  12.027  0.00  0.00    +0.000 NA
ATOM     28  C   UNL     1      52.460   7.818  11.014  0.00  0.00    +0.000 A 
ATOM     29  N   UNL     1      51.168   7.404  10.815  0.00  0.00    +0.000 N 
ATOM     30  C   UNL     1      50.159   7.651  11.716  0.00  0.00    +0.000 A 
ATOM     31  O   UNL     1      49.038   7.184  11.554  0.00  0.00    +0.000 OA
ATOM     32  C   UNL     1      50.556   8.454  12.854  0.00  0.00    +0.000 A 
ATOM     33  H   UNL     1      50.920   6.844  10.012  0.00  0.00    +0.000 HD
ENDBRANCH  20  23
ENDBRANCH   2  19
TORSDOF 6
ENDMDL
MODEL 5
REMARK VINA RESULT:    -6.519      5.353      8.113
REMARK INTER + INTRA:          -9.860
REMARK INTER:                  -8.783
REMARK INTRA:                  -1.077
REMARK UNBOUND:                -1.054
REMARK  Name = 
REMARK  7 active torsions:
REMARK  status: ('A' for Active; 'I' for Inactive)
REMARK    1  A    between atoms: C_1  and  C_2
REMARK    2  A    between atoms: C_2  and  N_3
REMARK    3  A    between atoms: C_2  and  C_16
REMARK    4  A    between atoms: C_4  and  C_6
REMARK    5  A    between atoms: C_19  and  C_20
REMARK    6  A    between atoms: C_20  and  N_21
REMARK    7  A    between atoms: C_22  and  C_24
REMARK                            x       y       z     vdW  Elec       q    Type
REMARK                         _______ _______ _______ _____ _____    ______ ____
ROOT
ATOM      1  C   UNL     1      46.893   8.706  14.040  0.00  0.00    +0.000 C 
ATOM      2  C   UNL     1      46.992   8.392  12.544  0.00  0.00    +0.000 C 
ENDROOT
BRANCH   2   3
ATOM      3  C   UNL     1      48.398   8.506  11.963  0.00  0.00    +0.000 A 
ATOM      4  C   UNL     1      49.146   7.332  11.778  0.00  0.00    +0.000 A 
ATOM      5  C   UNL     1      50.452   7.372  11.274  0.00  0.00    +0.000 A 
ATOM      6  C   UNL     1      51.058   8.592  10.955  0.00  0.00    +0.000 A 
ATOM      7  C   UNL     1      50.316   9.768  11.128  0.00  0.00    +0.000 A 
ATOM      8  C   UNL     1      49.010   9.727  11.639  0.00  0.00    +0.000 A 
BRANCH   6   9
ATOM      9  C   UNL     1      52.478   8.640  10.455  0.00  0.00    +0.000 C 
BRANCH   9  10
ATOM     10  N   UNL     1      52.860   7.445   9.750  0.00  0.00    +0.000 N 
ATOM     11  C   UNL     1      53.009   7.435   8.373  0.00  0.00    +0.000 C 
ATOM     12  O   UNL     1      52.797   8.438   7.698  0.00  0.00    +0.000 OA
ATOM     13  H   UNL     1      53.047   6.580  10.249  0.00  0.00    +0.000 HD
BRANCH  11  14
ATOM     14  C   UNL     1      53.439   6.140   7.842  0.00  0.00    +0.000 A 
ATOM     15  N   UNL     1      52.804   5.517   6.862  0.00  0.00    +0.000 NA
ATOM     16  C   UNL     1      53.438   4.317   6.599  0.00  0.00    +0.000 A 
ATOM     17  C   UNL     1      54.544   4.040   7.376  0.00  0.00    +0.000 A 
ATOM     18  S   UNL     1      54.809   5.327   8.477  0.00  0.00    +0.000 S 
ENDBRANCH  11  14
ENDBRANCH   9  10
ENDBRANCH   6   9
ENDBRANCH   2   3
BRANCH   2  19
ATOM     19  N   UNL     1      46.456   7.073  12.255  0.00  0.00    +0.000 N 
ATOM     20  C   UNL     1      45.243   6.877  11.640  0.00  0.00    +0.000 C 
ATOM     21  O   UNL     1      44.572   7.796  11.185  0.00  0.00    +0.000 OA
ATOM     22  H   UNL     1      46.894   6.297  12.737  0.00  0.00    +0.000 HD
BRANCH  20  23
ATOM     23  C   UNL     1      44.817   5.477  11.505  0.00  0.00    +0.000 A 
ATOM     24  C   UNL     1      44.162   4.835  12.544  0.00  0.00    +0.000 A 
ATOM     25  S   UNL     1      43.739   3.218  12.185  0.00  0.00    +0.000 S 
ATOM     26  C   UNL     1      44.476   3.309  10.654  0.00  0.00    +0.000 A 
ATOM     27  N   UNL     1      44.512   2.228   9.824  0.00  0.00    +0.000 NA
ATOM     28  C   UNL     1      45.135   2.431   8.713  0.00  0.00    +0.000 A 
ATOM     29  N   UNL     1      45.716   3.618   8.347  0.00  0.00    +0.000 N 
ATOM     30  C   UNL     1      45.657   4.749   9.126  0.00  0.00    +0.000 A 
ATOM     31  O   UNL     1      46.102   5.818   8.726  0.00  0.00    +0.000 OA
ATOM     32  C   UNL     1      44.999   4.562  10.404  0.00  0.00    +0.000 A 
ATOM     33  H   UNL     1      46.168   3.720   7.449  0.00  0.00    +0.000 HD
ENDBRANCH  20  23
ENDBRANCH   2  19
TORSDOF 6
ENDMDL
MODEL 6
REMARK VINA RESULT:    -6.474      3.592      9.420
REMARK INTER + INTRA:          -9.798
REMARK INTER:                  -8.813
REMARK INTRA:                  -0.985
REMARK UNBOUND:                -1.054
REMARK  Name = 
REMARK  7 active torsions:
REMARK  status: ('A' for Active; 'I' for Inactive)
REMARK    1  A    between atoms: C_1  and  C_2
REMARK    2  A    between atoms: C_2  and  N_3
REMARK    3  A    between atoms: C_2  and  C_16
REMARK    4  A    between atoms: C_4  and  C_6
REMARK    5  A    between atoms: C_19  and  C_20
REMARK    6  A    between atoms: C_20  and  N_21
REMARK    7  A    between atoms: C_22  and  C_24
REMARK                            x       y       z     vdW  Elec       q    Type
REMARK                         _______ _______ _______ _____ _____    ______ ____
ROOT
ATOM      1  C   UNL     1      47.196   3.277  17.575  0.00  0.00    +0.000 C 
ATOM      2  C   UNL     1      48.392   4.176  17.244  0.00  0.00    +0.000 C 
ENDROOT
BRANCH   2   3
ATOM      3  C   UNL     1      49.753   3.505  17.404  0.00  0.00    +0.000 A 
ATOM      4  C   UNL     1      49.856   2.127  17.158  0.00  0.00    +0.000 A 
ATOM      5  C   UNL     1      51.071   1.448  17.312  0.00  0.00    +0.000 A 
ATOM      6  C   UNL     1      52.220   2.126  17.737  0.00  0.00    +0.000 A 
ATOM      7  C   UNL     1      52.128   3.503  17.976  0.00  0.00    +0.000 A 
ATOM      8  C   UNL     1      50.909   4.181  17.826  0.00  0.00    +0.000 A 
BRANCH   6   9
ATOM      9  C   UNL     1      53.517   1.388  17.948  0.00  0.00    +0.000 C 
BRANCH   9  10
ATOM     10  N   UNL     1      53.321  -0.005  18.252  0.00  0.00    +0.000 N 
ATOM     11  C   UNL     1      54.357  -0.794  18.721  0.00  0.00    +0.000 C 
ATOM     12  O   UNL     1      55.489  -0.344  18.873  0.00  0.00    +0.000 OA
ATOM     13  H   UNL     1      52.409  -0.441  18.144  0.00  0.00    +0.000 HD
BRANCH  11  14
ATOM     14  C   UNL     1      53.956  -2.173  19.010  0.00  0.00    +0.000 A 
ATOM     15  N   UNL     1      53.075  -2.485  19.947  0.00  0.00    +0.000 NA
ATOM     16  C   UNL     1      52.922  -3.858  19.989  0.00  0.00    +0.000 A 
ATOM     17  C   UNL     1      53.683  -4.574  19.088  0.00  0.00    +0.000 A 
ATOM     18  S   UNL     1      54.625  -3.495  18.146  0.00  0.00    +0.000 S 
ENDBRANCH  11  14
ENDBRANCH   9  10
ENDBRANCH   6   9
ENDBRANCH   2   3
BRANCH   2  19
ATOM     19  N   UNL     1      48.276   4.718  15.901  0.00  0.00    +0.000 N 
ATOM     20  C   UNL     1      48.344   6.062  15.629  0.00  0.00    +0.000 C 
ATOM     21  O   UNL     1      48.620   6.900  16.481  0.00  0.00    +0.000 OA
ATOM     22  H   UNL     1      47.904   4.092  15.197  0.00  0.00    +0.000 HD
BRANCH  20  23
ATOM     23  C   UNL     1      48.120   6.441  14.227  0.00  0.00    +0.000 A 
ATOM     24  C   UNL     1      48.908   7.408  13.622  0.00  0.00    +0.000 A 
ATOM     25  S   UNL     1      48.499   7.694  11.988  0.00  0.00    +0.000 S 
ATOM     26  C   UNL     1      47.215   6.580  12.059  0.00  0.00    +0.000 A 
ATOM     27  N   UNL     1      46.406   6.367  10.982  0.00  0.00    +0.000 NA
ATOM     28  C   UNL     1      45.452   5.525  11.191  0.00  0.00    +0.000 A 
ATOM     29  N   UNL     1      45.237   4.863  12.373  0.00  0.00    +0.000 N 
ATOM     30  C   UNL     1      46.059   5.003  13.467  0.00  0.00    +0.000 A 
ATOM     31  O   UNL     1      45.895   4.324  14.473  0.00  0.00    +0.000 OA
ATOM     32  C   UNL     1      47.125   5.970  13.294  0.00  0.00    +0.000 A 
ATOM     33  H   UNL     1      44.486   4.194  12.464  0.00  0.00    +0.000 HD
ENDBRANCH  20  23
ENDBRANCH   2  19
TORSDOF 6
ENDMDL
MODEL 7
REMARK VINA RESULT:    -6.407      3.574      9.205
REMARK INTER + INTRA:          -9.708
REMARK INTER:                  -9.341
REMARK INTRA:                  -0.368
REMARK UNBOUND:                -1.054
REMARK  Name = 
REMARK  7 active torsions:
REMARK  status: ('A' for Active; 'I' for Inactive)
REMARK    1  A    between atoms: C_1  and  C_2
REMARK    2  A    between atoms: C_2  and  N_3
REMARK    3  A    between atoms: C_2  and  C_16
REMARK    4  A    between atoms: C_4  and  C_6
REMARK    5  A    between atoms: C_19  and  C_20
REMARK    6  A    between atoms: C_20  and  N_21
REMARK    7  A    between atoms: C_22  and  C_24
REMARK                            x       y       z     vdW  Elec       q    Type
REMARK                         _______ _______ _______ _____ _____    ______ ____
ROOT
ATOM      1  C   UNL     1      46.847   2.920  17.353  0.00  0.00    +0.000 C 
ATOM      2  C   UNL     1      47.649   4.224  17.302  0.00  0.00    +0.000 C 
ENDROOT
BRANCH   2   3
ATOM      3  C   UNL     1      49.160   4.044  17.408  0.00  0.00    +0.000 A 
ATOM      4  C   UNL     1      49.686   2.743  17.364  0.00  0.00    +0.000 A 
ATOM      5  C   UNL     1      51.062   2.508  17.481  0.00  0.00    +0.000 A 
ATOM      6  C   UNL     1      51.954   3.570  17.667  0.00  0.00    +0.000 A 
ATOM      7  C   UNL     1      51.439   4.873  17.703  0.00  0.00    +0.000 A 
ATOM      8  C   UNL     1      50.060   5.105  17.591  0.00  0.00    +0.000 A 
BRANCH   6   9
ATOM      9  C   UNL     1      53.429   3.317  17.840  0.00  0.00    +0.000 C 
BRANCH   9  10
ATOM     10  N   UNL     1      53.813   1.984  17.454  0.00  0.00    +0.000 N 
ATOM     11  C   UNL     1      54.186   1.039  18.396  0.00  0.00    +0.000 C 
ATOM     12  O   UNL     1      54.228   1.308  19.593  0.00  0.00    +0.000 OA
ATOM     13  H   UNL     1      53.804   1.697  16.480  0.00  0.00    +0.000 HD
BRANCH  11  14
ATOM     14  C   UNL     1      54.504  -0.268  17.817  0.00  0.00    +0.000 A 
ATOM     15  N   UNL     1      54.747  -0.444  16.528  0.00  0.00    +0.000 NA
ATOM     16  C   UNL     1      54.996  -1.783  16.290  0.00  0.00    +0.000 A 
ATOM     17  C   UNL     1      54.942  -2.608  17.395  0.00  0.00    +0.000 A 
ATOM     18  S   UNL     1      54.570  -1.680  18.788  0.00  0.00    +0.000 S 
ENDBRANCH  11  14
ENDBRANCH   9  10
ENDBRANCH   6   9
ENDBRANCH   2   3
BRANCH   2  19
ATOM     19  N   UNL     1      47.336   4.977  16.100  0.00  0.00    +0.000 N 
ATOM     20  C   UNL     1      47.294   4.408  14.850  0.00  0.00    +0.000 C 
ATOM     21  O   UNL     1      47.405   3.200  14.666  0.00  0.00    +0.000 OA
ATOM     22  H   UNL     1      47.385   5.985  16.179  0.00  0.00    +0.000 HD
BRANCH  20  23
ATOM     23  C   UNL     1      47.048   5.333  13.737  0.00  0.00    +0.000 A 
ATOM     24  C   UNL     1      48.025   6.230  13.334  0.00  0.00    +0.000 A 
ATOM     25  S   UNL     1      47.549   7.209  12.016  0.00  0.00    +0.000 S 
ATOM     26  C   UNL     1      45.999   6.506  11.986  0.00  0.00    +0.000 A 
ATOM     27  N   UNL     1      45.052   6.927  11.100  0.00  0.00    +0.000 NA
ATOM     28  C   UNL     1      43.914   6.333  11.216  0.00  0.00    +0.000 A 
ATOM     29  N   UNL     1      43.635   5.346  12.128  0.00  0.00    +0.000 N 
ATOM     30  C   UNL     1      44.574   4.852  13.002  0.00  0.00    +0.000 A 
ATOM     31  O   UNL     1      44.318   3.905  13.736  0.00  0.00    +0.000 OA
ATOM     32  C   UNL     1      45.860   5.515  12.937  0.00  0.00    +0.000 A 
ATOM     33  H   UNL     1      42.728   4.901  12.150  0.00  0.00    +0.000 HD
ENDBRANCH  20  23
ENDBRANCH   2  19
TORSDOF 6
ENDMDL
MODEL 8
REMARK VINA RESULT:    -6.397      4.065      6.847
REMARK INTER + INTRA:          -9.694
REMARK INTER:                  -8.829
REMARK INTRA:                  -0.866
REMARK UNBOUND:                -1.054
REMARK  Name = 
REMARK  7 active torsions:
REMARK  status: ('A' for Active; 'I' for Inactive)
REMARK    1  A    between atoms: C_1  and  C_2
REMARK    2  A    between atoms: C_2  and  N_3
REMARK    3  A    between atoms: C_2  and  C_16
REMARK    4  A    between atoms: C_4  and  C_6
REMARK    5  A    between atoms: C_19  and  C_20
REMARK    6  A    between atoms: C_20  and  N_21
REMARK    7  A    between atoms: C_22  and  C_24
REMARK                            x       y       z     vdW  Elec       q    Type
REMARK                         _______ _______ _______ _____ _____    ______ ____
ROOT
ATOM      1  C   UNL     1      53.859   3.782  17.783  0.00  0.00    +0.000 C 
ATOM      2  C   UNL     1      52.891   2.658  18.169  0.00  0.00    +0.000 C 
ENDROOT
BRANCH   2   3
ATOM      3  C   UNL     1      51.444   2.894  17.744  0.00  0.00    +0.000 A 
ATOM      4  C   UNL     1      50.877   4.159  17.965  0.00  0.00    +0.000 A 
ATOM      5  C   UNL     1      49.546   4.431  17.621  0.00  0.00    +0.000 A 
ATOM      6  C   UNL     1      48.736   3.436  17.061  0.00  0.00    +0.000 A 
ATOM      7  C   UNL     1      49.296   2.174  16.830  0.00  0.00    +0.000 A 
ATOM      8  C   UNL     1      50.627   1.902  17.180  0.00  0.00    +0.000 A 
BRANCH   6   9
ATOM      9  C   UNL     1      47.292   3.714  16.733  0.00  0.00    +0.000 C 
BRANCH   9  10
ATOM     10  N   UNL     1      47.137   4.677  15.675  0.00  0.00    +0.000 N 
ATOM     11  C   UNL     1      47.085   4.289  14.347  0.00  0.00    +0.000 C 
ATOM     12  O   UNL     1      47.194   3.111  14.018  0.00  0.00    +0.000 OA
ATOM     13  H   UNL     1      47.045   5.668  15.878  0.00  0.00    +0.000 HD
BRANCH  11  14
ATOM     14  C   UNL     1      46.886   5.405  13.419  0.00  0.00    +0.000 A 
ATOM     15  N   UNL     1      47.885   6.124  12.933  0.00  0.00    +0.000 NA
ATOM     16  C   UNL     1      47.378   7.107  12.106  0.00  0.00    +0.000 A 
ATOM     17  C   UNL     1      46.005   7.127  11.970  0.00  0.00    +0.000 A 
ATOM     18  S   UNL     1      45.316   5.867  12.907  0.00  0.00    +0.000 S 
ENDBRANCH  11  14
ENDBRANCH   9  10
ENDBRANCH   6   9
ENDBRANCH   2   3
BRANCH   2  19
ATOM     19  N   UNL     1      53.345   1.381  17.647  0.00  0.00    +0.000 N 
ATOM     20  C   UNL     1      54.229   0.572  18.319  0.00  0.00    +0.000 C 
ATOM     21  O   UNL     1      54.614   0.809  19.459  0.00  0.00    +0.000 OA
ATOM     22  H   UNL     1      53.177   1.215  16.663  0.00  0.00    +0.000 HD
BRANCH  20  23
ATOM     23  C   UNL     1      54.648  -0.643  17.606  0.00  0.00    +0.000 A 
ATOM     24  C   UNL     1      55.267  -0.557  16.368  0.00  0.00    +0.000 A 
ATOM     25  S   UNL     1      55.688  -2.077  15.711  0.00  0.00    +0.000 S 
ATOM     26  C   UNL     1      54.997  -2.899  17.032  0.00  0.00    +0.000 A 
ATOM     27  N   UNL     1      54.978  -4.261  17.082  0.00  0.00    +0.000 NA
ATOM     28  C   UNL     1      54.389  -4.746  18.122  0.00  0.00    +0.000 A 
ATOM     29  N   UNL     1      53.829  -3.997  19.125  0.00  0.00    +0.000 N 
ATOM     30  C   UNL     1      53.874  -2.623  19.145  0.00  0.00    +0.000 A 
ATOM     31  O   UNL     1      53.449  -1.990  20.103  0.00  0.00    +0.000 OA
ATOM     32  C   UNL     1      54.491  -2.028  17.977  0.00  0.00    +0.000 A 
ATOM     33  H   UNL     1      53.405  -4.440  19.928  0.00  0.00    +0.000 HD
ENDBRANCH  20  23
ENDBRANCH   2  19
TORSDOF 6
ENDMDL
MODEL 9
REMARK VINA RESULT:    -6.390      4.118      6.961
REMARK INTER + INTRA:          -9.685
REMARK INTER:                  -8.542
REMARK INTRA:                  -1.143
REMARK UNBOUND:                -1.054
REMARK  Name = 
REMARK  7 active torsions:
REMARK  status: ('A' for Active; 'I' for Inactive)
REMARK    1  A    between atoms: C_1  and  C_2
REMARK    2  A    between atoms: C_2  and  N_3
REMARK    3  A    between atoms: C_2  and  C_16
REMARK    4  A    between atoms: C_4  and  C_6
REMARK    5  A    between atoms: C_19  and  C_20
REMARK    6  A    between atoms: C_20  and  N_21
REMARK    7  A    between atoms: C_22  and  C_24
REMARK                            x       y       z     vdW  Elec       q    Type
REMARK                         _______ _______ _______ _____ _____    ______ ____
ROOT
ATOM      1  C   UNL     1      53.914   3.267  17.457  0.00  0.00    +0.000 C 
ATOM      2  C   UNL     1      52.868   2.418  18.187  0.00  0.00    +0.000 C 
ENDROOT
BRANCH   2   3
ATOM      3  C   UNL     1      51.426   2.696  17.776  0.00  0.00    +0.000 A 
ATOM      4  C   UNL     1      50.835   3.905  18.175  0.00  0.00    +0.000 A 
ATOM      5  C   UNL     1      49.507   4.210  17.851  0.00  0.00    +0.000 A 
ATOM      6  C   UNL     1      48.721   3.301  17.132  0.00  0.00    +0.000 A 
ATOM      7  C   UNL     1      49.305   2.096  16.722  0.00  0.00    +0.000 A 
ATOM      8  C   UNL     1      50.634   1.791  17.052  0.00  0.00    +0.000 A 
BRANCH   6   9
ATOM      9  C   UNL     1      47.278   3.607  16.822  0.00  0.00    +0.000 C 
BRANCH   9  10
ATOM     10  N   UNL     1      47.129   4.636  15.827  0.00  0.00    +0.000 N 
ATOM     11  C   UNL     1      47.063   4.332  14.478  0.00  0.00    +0.000 C 
ATOM     12  O   UNL     1      47.153   3.175  14.075  0.00  0.00    +0.000 OA
ATOM     13  H   UNL     1      47.052   5.614  16.092  0.00  0.00    +0.000 HD
BRANCH  11  14
ATOM     14  C   UNL     1      46.872   5.506  13.623  0.00  0.00    +0.000 A 
ATOM     15  N   UNL     1      45.697   5.844  13.117  0.00  0.00    +0.000 NA
ATOM     16  C   UNL     1      45.844   6.980  12.344  0.00  0.00    +0.000 A 
ATOM     17  C   UNL     1      47.122   7.494  12.271  0.00  0.00    +0.000 A 
ATOM     18  S   UNL     1      48.185   6.526  13.205  0.00  0.00    +0.000 S 
ENDBRANCH  11  14
ENDBRANCH   9  10
ENDBRANCH   6   9
ENDBRANCH   2   3
BRANCH   2  19
ATOM     19  N   UNL     1      53.150   1.001  18.031  0.00  0.00    +0.000 N 
ATOM     20  C   UNL     1      54.090   0.339  18.782  0.00  0.00    +0.000 C 
ATOM     21  O   UNL     1      54.683   0.864  19.719  0.00  0.00    +0.000 OA
ATOM     22  H   UNL     1      52.802   0.567  17.186  0.00  0.00    +0.000 HD
BRANCH  20  23
ATOM     23  C   UNL     1      54.307  -1.071  18.432  0.00  0.00    +0.000 A 
ATOM     24  C   UNL     1      54.046  -2.075  19.353  0.00  0.00    +0.000 A 
ATOM     25  S   UNL     1      54.348  -3.646  18.750  0.00  0.00    +0.000 S 
ATOM     26  C   UNL     1      54.896  -3.027  17.262  0.00  0.00    +0.000 A 
ATOM     27  N   UNL     1      55.356  -3.855  16.281  0.00  0.00    +0.000 NA
ATOM     28  C   UNL     1      55.775  -3.246  15.225  0.00  0.00    +0.000 A 
ATOM     29  N   UNL     1      55.766  -1.885  15.049  0.00  0.00    +0.000 N 
ATOM     30  C   UNL     1      55.261  -1.016  15.987  0.00  0.00    +0.000 A 
ATOM     31  O   UNL     1      55.179   0.185  15.758  0.00  0.00    +0.000 OA
ATOM     32  C   UNL     1      54.813  -1.650  17.211  0.00  0.00    +0.000 A 
ATOM     33  H   UNL     1      56.084  -1.471  14.185  0.00  0.00    +0.000 HD
ENDBRANCH  20  23
ENDBRANCH   2  19
TORSDOF 6
ENDMDL
