MODEL 1
REMARK VINA RESULT:    -8.187      0.000      0.000
REMARK INTER + INTRA:         -12.896
REMARK INTER:                 -11.777
REMARK INTRA:                  -1.120
REMARK UNBOUND:                -1.120
REMARK  Name = 
REMARK  8 active torsions:
REMARK  status: ('A' for Active; 'I' for Inactive)
REMARK    1  A    between atoms: N_1  and  C_2
REMARK    2  A    between atoms: C_2  and  C_3
REMARK    3  A    between atoms: C_3  and  N_4
REMARK    4  A    between atoms: C_3  and  C_17
REMARK    5  A    between atoms: C_5  and  C_7
REMARK    6  A    between atoms: C_20  and  O_21
REMARK    7  A    between atoms: O_21  and  C_22
REMARK    8  A    between atoms: C_22  and  C_23
REMARK                            x       y       z     vdW  Elec       q    Type
REMARK                         _______ _______ _______ _____ _____    ______ ____
ROOT
ATOM      1  C   UNL     1      47.667   6.832  13.551  0.00  0.00    +0.000 C 
ENDROOT
BRANCH   1   2
ATOM      2  C   UNL     1      46.720   5.953  12.736  0.00  0.00    +0.000 A 
ATOM      3  C   UNL     1      46.288   6.342  11.460  0.00  0.00    +0.000 A 
ATOM      4  C   UNL     1      45.457   5.506  10.703  0.00  0.00    +0.000 A 
ATOM      5  C   UNL     1      45.058   4.265  11.202  0.00  0.00    +0.000 A 
ATOM      6  C   UNL     1      45.441   3.894  12.491  0.00  0.00    +0.000 A 
ATOM      7  C   UNL     1      46.278   4.722  13.243  0.00  0.00    +0.000 A 
BRANCH   5   8
ATOM      8  O   UNL     1      44.306   3.483  10.361  0.00  0.00    +0.000 OA
BRANCH   8   9
ATOM      9  C   UNL     1      44.393   3.856   8.979  0.00  0.00    +0.000 C 
BRANCH   9  10
ATOM     10  C   UNL     1      45.442   3.043   8.259  0.00  0.00    +0.000 A 
ATOM     11  C   UNL     1      46.187   3.601   7.225  0.00  0.00    +0.000 A 
ATOM     12  C   UNL     1      47.109   2.800   6.557  0.00  0.00    +0.000 A 
ATOM     13  C   UNL     1      47.264   1.471   6.939  0.00  0.00    +0.000 A 
ATOM     14  C   UNL     1      46.483   0.994   7.975  0.00  0.00    +0.000 A 
ATOM     15  N   UNL     1      45.577   1.743   8.635  0.00  0.00    +0.000 NA
ENDBRANCH   9  10
ENDBRANCH   8   9
ENDBRANCH   5   8
ENDBRANCH   1   2
BRANCH   1  16
ATOM     16  N   UNL     1      47.676   6.345  14.929  0.00  0.00    +0.000 N 
ATOM     17  C   UNL     1      48.827   6.231  15.669  0.00  0.00    +0.000 C 
ATOM     18  O   UNL     1      49.910   6.649  15.267  0.00  0.00    +0.000 OA
ATOM     19  H   UNL     1      46.878   5.778  15.206  0.00  0.00    +0.000 HD
BRANCH  17  20
ATOM     20  C   UNL     1      48.704   5.633  16.998  0.00  0.00    +0.000 A 
ATOM     21  C   UNL     1      48.888   4.266  17.161  0.00  0.00    +0.000 A 
ATOM     22  S   UNL     1      48.626   3.729  18.758  0.00  0.00    +0.000 S 
ATOM     23  C   UNL     1      48.218   5.299  19.275  0.00  0.00    +0.000 A 
ATOM     24  N   UNL     1      47.808   5.534  20.551  0.00  0.00    +0.000 NA
ATOM     25  C   UNL     1      47.494   6.763  20.790  0.00  0.00    +0.000 A 
ATOM     26  N   UNL     1      47.581   7.785  19.881  0.00  0.00    +0.000 N 
ATOM     27  C   UNL     1      48.053   7.606  18.602  0.00  0.00    +0.000 A 
ATOM     28  O   UNL     1      48.235   8.552  17.844  0.00  0.00    +0.000 OA
ATOM     29  C   UNL     1      48.346   6.229  18.260  0.00  0.00    +0.000 A 
ATOM     30  H   UNL     1      47.362   8.735  20.145  0.00  0.00    +0.000 HD
ENDBRANCH  17  20
ENDBRANCH   1  16
BRANCH   1  31
ATOM     31  C   UNL     1      47.269   8.340  13.454  0.00  0.00    +0.000 C 
BRANCH  31  32
ATOM     32  N   UNL     1      47.148   9.029  14.747  0.00  0.00    +0.000 NA
ATOM     33  H   UNL     1      47.935   8.758  15.335  0.00  0.00    +0.000 HD
ATOM     34  H   UNL     1      46.307   8.707  15.227  0.00  0.00    +0.000 HD
ENDBRANCH  31  32
ENDBRANCH   1  31
TORSDOF 8
ENDMDL
MODEL 2
REMARK VINA RESULT:    -8.140      1.559      2.169
REMARK INTER + INTRA:         -12.828
REMARK INTER:                 -11.964
REMARK INTRA:                  -0.864
REMARK UNBOUND:                -1.120
REMARK  Name = 
REMARK  8 active torsions:
REMARK  status: ('A' for Active; 'I' for Inactive)
REMARK    1  A    between atoms: N_1  and  C_2
REMARK    2  A    between atoms: C_2  and  C_3
REMARK    3  A    between atoms: C_3  and  N_4
REMARK    4  A    between atoms: C_3  and  C_17
REMARK    5  A    between atoms: C_5  and  C_7
REMARK    6  A    between atoms: C_20  and  O_21
REMARK    7  A    between atoms: O_21  and  C_22
REMARK    8  A    between atoms: C_22  and  C_23
REMARK                            x       y       z     vdW  Elec       q    Type
REMARK                         _______ _______ _______ _____ _____    ______ ____
ROOT
ATOM      1  C   UNL     1      47.319   7.541  12.954  0.00  0.00    +0.000 C 
ENDROOT
BRANCH   1   2
ATOM      2  C   UNL     1      46.520   6.416  12.301  0.00  0.00    +0.000 A 
ATOM      3  C   UNL     1      46.262   6.416  10.922  0.00  0.00    +0.000 A 
ATOM      4  C   UNL     1      45.568   5.354  10.327  0.00  0.00    +0.000 A 
ATOM      5  C   UNL     1      45.135   4.272  11.095  0.00  0.00    +0.000 A 
ATOM      6  C   UNL     1      45.343   4.290  12.474  0.00  0.00    +0.000 A 
ATOM      7  C   UNL     1      46.043   5.342  13.068  0.00  0.00    +0.000 A 
BRANCH   5   8
ATOM      8  O   UNL     1      44.530   3.245  10.416  0.00  0.00    +0.000 OA
BRANCH   8   9
ATOM      9  C   UNL     1      44.412   3.465   9.003  0.00  0.00    +0.000 C 
BRANCH   9  10
ATOM     10  C   UNL     1      45.522   2.773   8.249  0.00  0.00    +0.000 A 
ATOM     11  C   UNL     1      46.232   3.444   7.257  0.00  0.00    +0.000 A 
ATOM     12  C   UNL     1      47.214   2.752   6.553  0.00  0.00    +0.000 A 
ATOM     13  C   UNL     1      47.461   1.417   6.857  0.00  0.00    +0.000 A 
ATOM     14  C   UNL     1      46.709   0.824   7.855  0.00  0.00    +0.000 A 
ATOM     15  N   UNL     1      45.747   1.466   8.548  0.00  0.00    +0.000 NA
ENDBRANCH   9  10
ENDBRANCH   8   9
ENDBRANCH   5   8
ENDBRANCH   1   2
BRANCH   1  16
ATOM     16  N   UNL     1      47.491   7.222  14.370  0.00  0.00    +0.000 N 
ATOM     17  C   UNL     1      48.712   6.916  14.919  0.00  0.00    +0.000 C 
ATOM     18  O   UNL     1      49.760   7.014  14.286  0.00  0.00    +0.000 OA
ATOM     19  H   UNL     1      46.660   6.899  14.857  0.00  0.00    +0.000 HD
BRANCH  17  20
ATOM     20  C   UNL     1      48.724   6.518  16.326  0.00  0.00    +0.000 A 
ATOM     21  C   UNL     1      49.100   7.433  17.300  0.00  0.00    +0.000 A 
ATOM     22  S   UNL     1      49.136   6.778  18.874  0.00  0.00    +0.000 S 
ATOM     23  C   UNL     1      48.690   5.238  18.299  0.00  0.00    +0.000 A 
ATOM     24  N   UNL     1      48.612   4.170  19.140  0.00  0.00    +0.000 NA
ATOM     25  C   UNL     1      48.303   3.060  18.560  0.00  0.00    +0.000 A 
ATOM     26  N   UNL     1      48.033   2.924  17.222  0.00  0.00    +0.000 N 
ATOM     27  C   UNL     1      48.033   3.986  16.350  0.00  0.00    +0.000 A 
ATOM     28  O   UNL     1      47.674   3.863  15.184  0.00  0.00    +0.000 OA
ATOM     29  C   UNL     1      48.452   5.243  16.938  0.00  0.00    +0.000 A 
ATOM     30  H   UNL     1      47.751   2.033  16.838  0.00  0.00    +0.000 HD
ENDBRANCH  17  20
ENDBRANCH   1  16
BRANCH   1  31
ATOM     31  C   UNL     1      46.633   8.929  12.733  0.00  0.00    +0.000 C 
BRANCH  31  32
ATOM     32  N   UNL     1      45.223   8.990  13.144  0.00  0.00    +0.000 NA
ATOM     33  H   UNL     1      44.644   8.670  12.369  0.00  0.00    +0.000 HD
ATOM     34  H   UNL     1      44.960   9.960  13.319  0.00  0.00    +0.000 HD
ENDBRANCH  31  32
ENDBRANCH   1  31
TORSDOF 8
ENDMDL
MODEL 3
REMARK VINA RESULT:    -7.626      3.135      4.725
REMARK INTER + INTRA:         -12.090
REMARK INTER:                 -10.805
REMARK INTRA:                  -1.285
REMARK UNBOUND:                -1.120
REMARK  Name = 
REMARK  8 active torsions:
REMARK  status: ('A' for Active; 'I' for Inactive)
REMARK    1  A    between atoms: N_1  and  C_2
REMARK    2  A    between atoms: C_2  and  C_3
REMARK    3  A    between atoms: C_3  and  N_4
REMARK    4  A    between atoms: C_3  and  C_17
REMARK    5  A    between atoms: C_5  and  C_7
REMARK    6  A    between atoms: C_20  and  O_21
REMARK    7  A    between atoms: O_21  and  C_22
REMARK    8  A    between atoms: C_22  and  C_23
REMARK                            x       y       z     vdW  Elec       q    Type
REMARK                         _______ _______ _______ _____ _____    ______ ____
ROOT
ATOM      1  C   UNL     1      46.741   5.756  14.021  0.00  0.00    +0.000 C 
ENDROOT
BRANCH   1   2
ATOM      2  C   UNL     1      46.085   5.153  12.781  0.00  0.00    +0.000 A 
ATOM      3  C   UNL     1      45.568   3.849  12.794  0.00  0.00    +0.000 A 
ATOM      4  C   UNL     1      44.927   3.324  11.665  0.00  0.00    +0.000 A 
ATOM      5  C   UNL     1      44.781   4.096  10.511  0.00  0.00    +0.000 A 
ATOM      6  C   UNL     1      45.338   5.374  10.472  0.00  0.00    +0.000 A 
ATOM      7  C   UNL     1      45.968   5.904  11.600  0.00  0.00    +0.000 A 
BRANCH   5   8
ATOM      8  O   UNL     1      44.076   3.526   9.481  0.00  0.00    +0.000 OA
BRANCH   8   9
ATOM      9  C   UNL     1      44.498   2.197   9.146  0.00  0.00    +0.000 C 
BRANCH   9  10
ATOM     10  C   UNL     1      45.646   2.220   8.165  0.00  0.00    +0.000 A 
ATOM     11  C   UNL     1      45.836   3.309   7.320  0.00  0.00    +0.000 A 
ATOM     12  C   UNL     1      46.877   3.267   6.398  0.00  0.00    +0.000 A 
ATOM     13  C   UNL     1      47.699   2.145   6.345  0.00  0.00    +0.000 A 
ATOM     14  C   UNL     1      47.440   1.104   7.218  0.00  0.00    +0.000 A 
ATOM     15  N   UNL     1      46.435   1.114   8.117  0.00  0.00    +0.000 NA
ENDBRANCH   9  10
ENDBRANCH   8   9
ENDBRANCH   5   8
ENDBRANCH   1   2
BRANCH   1  16
ATOM     16  N   UNL     1      47.860   6.591  13.590  0.00  0.00    +0.000 N 
ATOM     17  C   UNL     1      47.767   7.956  13.475  0.00  0.00    +0.000 C 
ATOM     18  O   UNL     1      46.776   8.581  13.846  0.00  0.00    +0.000 OA
ATOM     19  H   UNL     1      48.587   6.121  13.058  0.00  0.00    +0.000 HD
BRANCH  17  20
ATOM     20  C   UNL     1      48.932   8.657  12.936  0.00  0.00    +0.000 A 
ATOM     21  C   UNL     1      48.781   9.524  11.862  0.00  0.00    +0.000 A 
ATOM     22  S   UNL     1      50.252  10.189  11.311  0.00  0.00    +0.000 S 
ATOM     23  C   UNL     1      51.143   9.307  12.464  0.00  0.00    +0.000 A 
ATOM     24  N   UNL     1      52.502   9.360  12.491  0.00  0.00    +0.000 NA
ATOM     25  C   UNL     1      53.045   8.610  13.391  0.00  0.00    +0.000 A 
ATOM     26  N   UNL     1      52.353   7.837  14.288  0.00  0.00    +0.000 N 
ATOM     27  C   UNL     1      50.979   7.806  14.341  0.00  0.00    +0.000 A 
ATOM     28  O   UNL     1      50.382   7.202  15.224  0.00  0.00    +0.000 OA
ATOM     29  C   UNL     1      50.323   8.571  13.299  0.00  0.00    +0.000 A 
ATOM     30  H   UNL     1      52.837   7.308  14.998  0.00  0.00    +0.000 HD
ENDBRANCH  17  20
ENDBRANCH   1  16
BRANCH   1  31
ATOM     31  C   UNL     1      47.178   4.645  15.030  0.00  0.00    +0.000 C 
BRANCH  31  32
ATOM     32  N   UNL     1      48.261   5.038  15.945  0.00  0.00    +0.000 NA
ATOM     33  H   UNL     1      48.901   4.252  16.046  0.00  0.00    +0.000 HD
ATOM     34  H   UNL     1      47.875   5.216  16.873  0.00  0.00    +0.000 HD
ENDBRANCH  31  32
ENDBRANCH   1  31
TORSDOF 8
ENDMDL
MODEL 4
REMARK VINA RESULT:    -7.610      2.911      4.910
REMARK INTER + INTRA:         -12.067
REMARK INTER:                 -10.614
REMARK INTRA:                  -1.453
REMARK UNBOUND:                -1.120
REMARK  Name = 
REMARK  8 active torsions:
REMARK  status: ('A' for Active; 'I' for Inactive)
REMARK    1  A    between atoms: N_1  and  C_2
REMARK    2  A    between atoms: C_2  and  C_3
REMARK    3  A    between atoms: C_3  and  N_4
REMARK    4  A    between atoms: C_3  and  C_17
REMARK    5  A    between atoms: C_5  and  C_7
REMARK    6  A    between atoms: C_20  and  O_21
REMARK    7  A    between atoms: O_21  and  C_22
REMARK    8  A    between atoms: C_22  and  C_23
REMARK                            x       y       z     vdW  Elec       q    Type
REMARK                         _______ _______ _______ _____ _____    ______ ____
ROOT
ATOM      1  C   UNL     1      46.888   5.663  14.064  0.00  0.00    +0.000 C 
ENDROOT
BRANCH   1   2
ATOM      2  C   UNL     1      46.093   5.111  12.884  0.00  0.00    +0.000 A 
ATOM      3  C   UNL     1      45.965   5.839  11.692  0.00  0.00    +0.000 A 
ATOM      4  C   UNL     1      45.273   5.302  10.599  0.00  0.00    +0.000 A 
ATOM      5  C   UNL     1      44.709   4.028  10.676  0.00  0.00    +0.000 A 
ATOM      6  C   UNL     1      44.786   3.319  11.875  0.00  0.00    +0.000 A 
ATOM      7  C   UNL     1      45.486   3.848  12.962  0.00  0.00    +0.000 A 
BRANCH   5   8
ATOM      8  O   UNL     1      44.114   3.554   9.533  0.00  0.00    +0.000 OA
BRANCH   8   9
ATOM      9  C   UNL     1      44.510   2.223   9.173  0.00  0.00    +0.000 C 
BRANCH   9  10
ATOM     10  C   UNL     1      45.644   2.243   8.177  0.00  0.00    +0.000 A 
ATOM     11  C   UNL     1      45.826   3.330   7.328  0.00  0.00    +0.000 A 
ATOM     12  C   UNL     1      46.854   3.285   6.392  0.00  0.00    +0.000 A 
ATOM     13  C   UNL     1      47.673   2.162   6.329  0.00  0.00    +0.000 A 
ATOM     14  C   UNL     1      47.424   1.122   7.207  0.00  0.00    +0.000 A 
ATOM     15  N   UNL     1      46.431   1.135   8.119  0.00  0.00    +0.000 NA
ENDBRANCH   9  10
ENDBRANCH   8   9
ENDBRANCH   5   8
ENDBRANCH   1   2
BRANCH   1  16
ATOM     16  N   UNL     1      48.023   6.422  13.541  0.00  0.00    +0.000 N 
ATOM     17  C   UNL     1      48.686   7.371  14.280  0.00  0.00    +0.000 C 
ATOM     18  O   UNL     1      48.452   7.556  15.472  0.00  0.00    +0.000 OA
ATOM     19  H   UNL     1      48.090   6.480  12.528  0.00  0.00    +0.000 HD
BRANCH  17  20
ATOM     20  C   UNL     1      49.737   8.126  13.598  0.00  0.00    +0.000 A 
ATOM     21  C   UNL     1      51.057   7.998  14.010  0.00  0.00    +0.000 A 
ATOM     22  S   UNL     1      52.136   9.010  13.162  0.00  0.00    +0.000 S 
ATOM     23  C   UNL     1      50.868   9.680  12.244  0.00  0.00    +0.000 A 
ATOM     24  N   UNL     1      51.099  10.686  11.357  0.00  0.00    +0.000 NA
ATOM     25  C   UNL     1      50.040  11.123  10.762  0.00  0.00    +0.000 A 
ATOM     26  N   UNL     1      48.776  10.627  10.949  0.00  0.00    +0.000 N 
ATOM     27  C   UNL     1      48.507   9.568  11.783  0.00  0.00    +0.000 A 
ATOM     28  O   UNL     1      47.391   9.064  11.846  0.00  0.00    +0.000 OA
ATOM     29  C   UNL     1      49.651   9.092  12.534  0.00  0.00    +0.000 A 
ATOM     30  H   UNL     1      47.995  10.984  10.418  0.00  0.00    +0.000 HD
ENDBRANCH  17  20
ENDBRANCH   1  16
BRANCH   1  31
ATOM     31  C   UNL     1      47.331   4.521  15.036  0.00  0.00    +0.000 C 
BRANCH  31  32
ATOM     32  N   UNL     1      47.210   4.848  16.465  0.00  0.00    +0.000 NA
ATOM     33  H   UNL     1      47.806   4.214  16.995  0.00  0.00    +0.000 HD
ATOM     34  H   UNL     1      46.253   4.671  16.775  0.00  0.00    +0.000 HD
ENDBRANCH  31  32
ENDBRANCH   1  31
TORSDOF 8
ENDMDL
MODEL 5
REMARK VINA RESULT:    -7.264      2.462      3.914
REMARK INTER + INTRA:         -11.569
REMARK INTER:                 -10.295
REMARK INTRA:                  -1.274
REMARK UNBOUND:                -1.120
REMARK  Name = 
REMARK  8 active torsions:
REMARK  status: ('A' for Active; 'I' for Inactive)
REMARK    1  A    between atoms: N_1  and  C_2
REMARK    2  A    between atoms: C_2  and  C_3
REMARK    3  A    between atoms: C_3  and  N_4
REMARK    4  A    between atoms: C_3  and  C_17
REMARK    5  A    between atoms: C_5  and  C_7
REMARK    6  A    between atoms: C_20  and  O_21
REMARK    7  A    between atoms: O_21  and  C_22
REMARK    8  A    between atoms: C_22  and  C_23
REMARK                            x       y       z     vdW  Elec       q    Type
REMARK                         _______ _______ _______ _____ _____    ______ ____
ROOT
ATOM      1  C   UNL     1      46.993   4.942  15.089  0.00  0.00    +0.000 C 
ENDROOT
BRANCH   1   2
ATOM      2  C   UNL     1      46.360   4.809  13.706  0.00  0.00    +0.000 A 
ATOM      3  C   UNL     1      45.885   3.573  13.242  0.00  0.00    +0.000 A 
ATOM      4  C   UNL     1      45.263   3.473  11.991  0.00  0.00    +0.000 A 
ATOM      5  C   UNL     1      45.094   4.605  11.191  0.00  0.00    +0.000 A 
ATOM      6  C   UNL     1      45.610   5.827  11.623  0.00  0.00    +0.000 A 
ATOM      7  C   UNL     1      46.221   5.931  12.875  0.00  0.00    +0.000 A 
BRANCH   5   8
ATOM      8  O   UNL     1      44.409   4.425  10.016  0.00  0.00    +0.000 OA
BRANCH   8   9
ATOM      9  C   UNL     1      44.358   3.062   9.569  0.00  0.00    +0.000 C 
BRANCH   9  10
ATOM     10  C   UNL     1      45.384   2.802   8.493  0.00  0.00    +0.000 A 
ATOM     11  C   UNL     1      45.994   1.557   8.379  0.00  0.00    +0.000 A 
ATOM     12  C   UNL     1      46.970   1.376   7.403  0.00  0.00    +0.000 A 
ATOM     13  C   UNL     1      47.307   2.437   6.568  0.00  0.00    +0.000 A 
ATOM     14  C   UNL     1      46.655   3.643   6.749  0.00  0.00    +0.000 A 
ATOM     15  N   UNL     1      45.712   3.850   7.690  0.00  0.00    +0.000 NA
ENDBRANCH   9  10
ENDBRANCH   8   9
ENDBRANCH   5   8
ENDBRANCH   1   2
BRANCH   1  16
ATOM     16  N   UNL     1      48.106   5.886  14.997  0.00  0.00    +0.000 N 
ATOM     17  C   UNL     1      48.699   6.444  16.103  0.00  0.00    +0.000 C 
ATOM     18  O   UNL     1      48.421   6.090  17.246  0.00  0.00    +0.000 OA
ATOM     19  H   UNL     1      48.201   6.377  14.112  0.00  0.00    +0.000 HD
BRANCH  17  20
ATOM     20  C   UNL     1      49.733   7.450  15.862  0.00  0.00    +0.000 A 
ATOM     21  C   UNL     1      51.029   7.229  16.311  0.00  0.00    +0.000 A 
ATOM     22  S   UNL     1      52.083   8.538  16.019  0.00  0.00    +0.000 S 
ATOM     23  C   UNL     1      50.832   9.458  15.320  0.00  0.00    +0.000 A 
ATOM     24  N   UNL     1      51.045  10.739  14.915  0.00  0.00    +0.000 NA
ATOM     25  C   UNL     1      49.997  11.327  14.442  0.00  0.00    +0.000 A 
ATOM     26  N   UNL     1      48.764  10.743  14.308  0.00  0.00    +0.000 N 
ATOM     27  C   UNL     1      48.521   9.432  14.642  0.00  0.00    +0.000 A 
ATOM     28  O   UNL     1      47.445   8.895  14.404  0.00  0.00    +0.000 OA
ATOM     29  C   UNL     1      49.646   8.750  15.250  0.00  0.00    +0.000 A 
ATOM     30  H   UNL     1      47.996  11.245  13.888  0.00  0.00    +0.000 HD
ENDBRANCH  17  20
ENDBRANCH   1  16
BRANCH   1  31
ATOM     31  C   UNL     1      47.435   3.551  15.649  0.00  0.00    +0.000 C 
BRANCH  31  32
ATOM     32  N   UNL     1      46.946   3.250  17.003  0.00  0.00    +0.000 NA
ATOM     33  H   UNL     1      47.068   4.078  17.584  0.00  0.00    +0.000 HD
ATOM     34  H   UNL     1      47.522   2.518  17.419  0.00  0.00    +0.000 HD
ENDBRANCH  31  32
ENDBRANCH   1  31
TORSDOF 8
ENDMDL
MODEL 6
REMARK VINA RESULT:    -6.904      2.997      4.005
REMARK INTER + INTRA:         -11.051
REMARK INTER:                  -9.935
REMARK INTRA:                  -1.116
REMARK UNBOUND:                -1.120
REMARK  Name = 
REMARK  8 active torsions:
REMARK  status: ('A' for Active; 'I' for Inactive)
REMARK    1  A    between atoms: N_1  and  C_2
REMARK    2  A    between atoms: C_2  and  C_3
REMARK    3  A    between atoms: C_3  and  N_4
REMARK    4  A    between atoms: C_3  and  C_17
REMARK    5  A    between atoms: C_5  and  C_7
REMARK    6  A    between atoms: C_20  and  O_21
REMARK    7  A    between atoms: O_21  and  C_22
REMARK    8  A    between atoms: C_22  and  C_23
REMARK                            x       y       z     vdW  Elec       q    Type
REMARK                         _______ _______ _______ _____ _____    ______ ____
ROOT
ATOM      1  C   UNL     1      47.154   4.939  15.408  0.00  0.00    +0.000 C 
ENDROOT
BRANCH   1   2
ATOM      2  C   UNL     1      46.583   4.971  13.992  0.00  0.00    +0.000 A 
ATOM      3  C   UNL     1      45.919   3.859  13.453  0.00  0.00    +0.000 A 
ATOM      4  C   UNL     1      45.358   3.917  12.170  0.00  0.00    +0.000 A 
ATOM      5  C   UNL     1      45.441   5.087  11.414  0.00  0.00    +0.000 A 
ATOM      6  C   UNL     1      46.145   6.178  11.922  0.00  0.00    +0.000 A 
ATOM      7  C   UNL     1      46.696   6.127  13.205  0.00  0.00    +0.000 A 
BRANCH   5   8
ATOM      8  O   UNL     1      44.800   5.075  10.200  0.00  0.00    +0.000 OA
BRANCH   8   9
ATOM      9  C   UNL     1      44.364   3.774   9.780  0.00  0.00    +0.000 C 
BRANCH   9  10
ATOM     10  C   UNL     1      45.280   3.206   8.724  0.00  0.00    +0.000 A 
ATOM     11  C   UNL     1      45.644   1.863   8.747  0.00  0.00    +0.000 A 
ATOM     12  C   UNL     1      46.530   1.393   7.782  0.00  0.00    +0.000 A 
ATOM     13  C   UNL     1      47.026   2.270   6.823  0.00  0.00    +0.000 A 
ATOM     14  C   UNL     1      46.617   3.590   6.872  0.00  0.00    +0.000 A 
ATOM     15  N   UNL     1      45.766   4.076   7.798  0.00  0.00    +0.000 NA
ENDBRANCH   9  10
ENDBRANCH   8   9
ENDBRANCH   5   8
ENDBRANCH   1   2
BRANCH   1  16
ATOM     16  N   UNL     1      48.491   5.529  15.380  0.00  0.00    +0.000 N 
ATOM     17  C   UNL     1      49.053   6.146  16.470  0.00  0.00    +0.000 C 
ATOM     18  O   UNL     1      48.523   6.132  17.579  0.00  0.00    +0.000 OA
ATOM     19  H   UNL     1      48.849   5.775  14.461  0.00  0.00    +0.000 HD
BRANCH  17  20
ATOM     20  C   UNL     1      50.355   6.783  16.272  0.00  0.00    +0.000 A 
ATOM     21  C   UNL     1      50.435   7.998  15.603  0.00  0.00    +0.000 A 
ATOM     22  S   UNL     1      52.033   8.554  15.390  0.00  0.00    +0.000 S 
ATOM     23  C   UNL     1      52.672   7.169  16.148  0.00  0.00    +0.000 A 
ATOM     24  N   UNL     1      54.015   6.972  16.233  0.00  0.00    +0.000 NA
ATOM     25  C   UNL     1      54.354   5.862  16.798  0.00  0.00    +0.000 A 
ATOM     26  N   UNL     1      53.475   4.945  17.313  0.00  0.00    +0.000 N 
ATOM     27  C   UNL     1      52.113   5.134  17.309  0.00  0.00    +0.000 A 
ATOM     28  O   UNL     1      51.353   4.360  17.879  0.00  0.00    +0.000 OA
ATOM     29  C   UNL     1      51.678   6.330  16.617  0.00  0.00    +0.000 A 
ATOM     30  H   UNL     1      53.807   4.115  17.783  0.00  0.00    +0.000 HD
ENDBRANCH  17  20
ENDBRANCH   1  16
BRANCH   1  31
ATOM     31  C   UNL     1      47.155   3.488  15.989  0.00  0.00    +0.000 C 
BRANCH  31  32
ATOM     32  N   UNL     1      46.725   3.387  17.392  0.00  0.00    +0.000 NA
ATOM     33  H   UNL     1      46.349   2.454  17.550  0.00  0.00    +0.000 HD
ATOM     34  H   UNL     1      45.959   4.039  17.562  0.00  0.00    +0.000 HD
ENDBRANCH  31  32
ENDBRANCH   1  31
TORSDOF 8
ENDMDL
MODEL 7
REMARK VINA RESULT:    -6.705      4.436      8.979
REMARK INTER + INTRA:         -10.765
REMARK INTER:                  -9.851
REMARK INTRA:                  -0.914
REMARK UNBOUND:                -1.120
REMARK  Name = 
REMARK  8 active torsions:
REMARK  status: ('A' for Active; 'I' for Inactive)
REMARK    1  A    between atoms: N_1  and  C_2
REMARK    2  A    between atoms: C_2  and  C_3
REMARK    3  A    between atoms: C_3  and  N_4
REMARK    4  A    between atoms: C_3  and  C_17
REMARK    5  A    between atoms: C_5  and  C_7
REMARK    6  A    between atoms: C_20  and  O_21
REMARK    7  A    between atoms: O_21  and  C_22
REMARK    8  A    between atoms: C_22  and  C_23
REMARK                            x       y       z     vdW  Elec       q    Type
REMARK                         _______ _______ _______ _____ _____    ______ ____
ROOT
ATOM      1  C   UNL     1      47.574   4.260  17.346  0.00  0.00    +0.000 C 
ENDROOT
BRANCH   1   2
ATOM      2  C   UNL     1      49.074   3.979  17.373  0.00  0.00    +0.000 A 
ATOM      3  C   UNL     1      50.007   5.025  17.428  0.00  0.00    +0.000 A 
ATOM      4  C   UNL     1      51.379   4.754  17.501  0.00  0.00    +0.000 A 
ATOM      5  C   UNL     1      51.840   3.436  17.533  0.00  0.00    +0.000 A 
ATOM      6  C   UNL     1      50.922   2.391  17.426  0.00  0.00    +0.000 A 
ATOM      7  C   UNL     1      49.552   2.659  17.364  0.00  0.00    +0.000 A 
BRANCH   5   8
ATOM      8  O   UNL     1      53.193   3.267  17.679  0.00  0.00    +0.000 OA
BRANCH   8   9
ATOM      9  C   UNL     1      53.564   2.426  18.781  0.00  0.00    +0.000 C 
BRANCH   9  10
ATOM     10  C   UNL     1      54.156   1.124  18.299  0.00  0.00    +0.000 A 
ATOM     11  C   UNL     1      54.450   0.933  16.952  0.00  0.00    +0.000 A 
ATOM     12  C   UNL     1      54.949  -0.301  16.544  0.00  0.00    +0.000 A 
ATOM     13  C   UNL     1      55.143  -1.305  17.487  0.00  0.00    +0.000 A 
ATOM     14  C   UNL     1      54.824  -1.035  18.805  0.00  0.00    +0.000 A 
ATOM     15  N   UNL     1      54.332   0.147  19.228  0.00  0.00    +0.000 NA
ENDBRANCH   9  10
ENDBRANCH   8   9
ENDBRANCH   5   8
ENDBRANCH   1   2
BRANCH   1  16
ATOM     16  N   UNL     1      47.268   5.012  16.130  0.00  0.00    +0.000 N 
ATOM     17  C   UNL     1      47.264   4.437  14.883  0.00  0.00    +0.000 C 
ATOM     18  O   UNL     1      47.391   3.226  14.717  0.00  0.00    +0.000 OA
ATOM     19  H   UNL     1      47.396   6.019  16.186  0.00  0.00    +0.000 HD
BRANCH  17  20
ATOM     20  C   UNL     1      47.041   5.328  13.744  0.00  0.00    +0.000 A 
ATOM     21  C   UNL     1      48.049   6.193  13.337  0.00  0.00    +0.000 A 
ATOM     22  S   UNL     1      47.590   7.214  12.050  0.00  0.00    +0.000 S 
ATOM     23  C   UNL     1      46.018   6.562  12.023  0.00  0.00    +0.000 A 
ATOM     24  N   UNL     1      45.067   7.055  11.184  0.00  0.00    +0.000 NA
ATOM     25  C   UNL     1      43.912   6.492  11.300  0.00  0.00    +0.000 A 
ATOM     26  N   UNL     1      43.627   5.460  12.156  0.00  0.00    +0.000 N 
ATOM     27  C   UNL     1      44.572   4.886  12.973  0.00  0.00    +0.000 A 
ATOM     28  O   UNL     1      44.326   3.889  13.642  0.00  0.00    +0.000 OA
ATOM     29  C   UNL     1      45.868   5.534  12.936  0.00  0.00    +0.000 A 
ATOM     30  H   UNL     1      42.712   5.032  12.166  0.00  0.00    +0.000 HD
ENDBRANCH  17  20
ENDBRANCH   1  16
BRANCH   1  31
ATOM     31  C   UNL     1      47.110   5.004  18.640  0.00  0.00    +0.000 C 
BRANCH  31  32
ATOM     32  N   UNL     1      46.990   6.463  18.501  0.00  0.00    +0.000 NA
ATOM     33  H   UNL     1      47.911   6.878  18.631  0.00  0.00    +0.000 HD
ATOM     34  H   UNL     1      46.400   6.829  19.249  0.00  0.00    +0.000 HD
ENDBRANCH  31  32
ENDBRANCH   1  31
TORSDOF 8
ENDMDL
MODEL 8
REMARK VINA RESULT:    -6.675      4.127      6.460
REMARK INTER + INTRA:         -10.721
REMARK INTER:                  -9.445
REMARK INTRA:                  -1.276
REMARK UNBOUND:                -1.120
REMARK  Name = 
REMARK  8 active torsions:
REMARK  status: ('A' for Active; 'I' for Inactive)
REMARK    1  A    between atoms: N_1  and  C_2
REMARK    2  A    between atoms: C_2  and  C_3
REMARK    3  A    between atoms: C_3  and  N_4
REMARK    4  A    between atoms: C_3  and  C_17
REMARK    5  A    between atoms: C_5  and  C_7
REMARK    6  A    between atoms: C_20  and  O_21
REMARK    7  A    between atoms: O_21  and  C_22
REMARK    8  A    between atoms: C_22  and  C_23
REMARK                            x       y       z     vdW  Elec       q    Type
REMARK                         _______ _______ _______ _____ _____    ______ ____
ROOT
ATOM      1  C   UNL     1      49.537   4.951  19.596  0.00  0.00    +0.000 C 
ENDROOT
BRANCH   1   2
ATOM      2  C   UNL     1      48.756   4.602  18.332  0.00  0.00    +0.000 A 
ATOM      3  C   UNL     1      48.644   5.516  17.273  0.00  0.00    +0.000 A 
ATOM      4  C   UNL     1      47.965   5.167  16.099  0.00  0.00    +0.000 A 
ATOM      5  C   UNL     1      47.399   3.899  15.959  0.00  0.00    +0.000 A 
ATOM      6  C   UNL     1      47.461   3.003  17.026  0.00  0.00    +0.000 A 
ATOM      7  C   UNL     1      48.147   3.345  18.194  0.00  0.00    +0.000 A 
BRANCH   5   8
ATOM      8  O   UNL     1      46.818   3.621  14.747  0.00  0.00    +0.000 OA
BRANCH   8   9
ATOM      9  C   UNL     1      46.663   4.765  13.895  0.00  0.00    +0.000 C 
BRANCH   9  10
ATOM     10  C   UNL     1      45.549   4.555  12.898  0.00  0.00    +0.000 A 
ATOM     11  C   UNL     1      45.499   5.297  11.722  0.00  0.00    +0.000 A 
ATOM     12  C   UNL     1      44.427   5.106  10.855  0.00  0.00    +0.000 A 
ATOM     13  C   UNL     1      43.440   4.182  11.181  0.00  0.00    +0.000 A 
ATOM     14  C   UNL     1      43.563   3.487  12.371  0.00  0.00    +0.000 A 
ATOM     15  N   UNL     1      44.585   3.656  13.233  0.00  0.00    +0.000 NA
ENDBRANCH   9  10
ENDBRANCH   8   9
ENDBRANCH   5   8
ENDBRANCH   1   2
BRANCH   1  16
ATOM     16  N   UNL     1      50.736   4.115  19.642  0.00  0.00    +0.000 N 
ATOM     17  C   UNL     1      51.897   4.447  18.988  0.00  0.00    +0.000 C 
ATOM     18  O   UNL     1      52.049   5.528  18.425  0.00  0.00    +0.000 OA
ATOM     19  H   UNL     1      50.588   3.137  19.875  0.00  0.00    +0.000 HD
BRANCH  17  20
ATOM     20  C   UNL     1      52.985   3.470  19.035  0.00  0.00    +0.000 A 
ATOM     21  C   UNL     1      54.153   3.771  19.724  0.00  0.00    +0.000 A 
ATOM     22  S   UNL     1      55.345   2.556  19.607  0.00  0.00    +0.000 S 
ATOM     23  C   UNL     1      54.353   1.608  18.598  0.00  0.00    +0.000 A 
ATOM     24  N   UNL     1      54.807   0.442  18.063  0.00  0.00    +0.000 NA
ATOM     25  C   UNL     1      53.963  -0.150  17.287  0.00  0.00    +0.000 A 
ATOM     26  N   UNL     1      52.695   0.299  17.020  0.00  0.00    +0.000 N 
ATOM     27  C   UNL     1      52.172   1.435  17.591  0.00  0.00    +0.000 A 
ATOM     28  O   UNL     1      51.000   1.755  17.433  0.00  0.00    +0.000 OA
ATOM     29  C   UNL     1      53.109   2.179  18.411  0.00  0.00    +0.000 A 
ATOM     30  H   UNL     1      52.067  -0.236  16.439  0.00  0.00    +0.000 HD
ENDBRANCH  17  20
ENDBRANCH   1  16
BRANCH   1  31
ATOM     31  C   UNL     1      48.652   4.794  20.875  0.00  0.00    +0.000 C 
BRANCH  31  32
ATOM     32  N   UNL     1      47.397   5.560  20.851  0.00  0.00    +0.000 NA
ATOM     33  H   UNL     1      46.681   4.997  20.394  0.00  0.00    +0.000 HD
ATOM     34  H   UNL     1      47.517   6.395  20.276  0.00  0.00    +0.000 HD
ENDBRANCH  31  32
ENDBRANCH   1  31
TORSDOF 8
ENDMDL
MODEL 9
REMARK VINA RESULT:    -6.547      4.256      5.736
REMARK INTER + INTRA:         -10.537
REMARK INTER:                  -9.544
REMARK INTRA:                  -0.993
REMARK UNBOUND:                -1.120
REMARK  Name = 
REMARK  8 active torsions:
REMARK  status: ('A' for Active; 'I' for Inactive)
REMARK    1  A    between atoms: N_1  and  C_2
REMARK    2  A    between atoms: C_2  and  C_3
REMARK    3  A    between atoms: C_3  and  N_4
REMARK    4  A    between atoms: C_3  and  C_17
REMARK    5  A    between atoms: C_5  and  C_7
REMARK    6  A    between atoms: C_20  and  O_21
REMARK    7  A    between atoms: O_21  and  C_22
REMARK    8  A    between atoms: C_22  and  C_23
REMARK                            x       y       z     vdW  Elec       q    Type
REMARK                         _______ _______ _______ _____ _____    ______ ____
ROOT
ATOM      1  C   UNL     1      48.456   7.306  13.658  0.00  0.00    +0.000 C 
ENDROOT
BRANCH   1   2
ATOM      2  C   UNL     1      47.444   6.383  12.984  0.00  0.00    +0.000 A 
ATOM      3  C   UNL     1      47.059   5.172  13.578  0.00  0.00    +0.000 A 
ATOM      4  C   UNL     1      46.095   4.356  12.972  0.00  0.00    +0.000 A 
ATOM      5  C   UNL     1      45.493   4.742  11.774  0.00  0.00    +0.000 A 
ATOM      6  C   UNL     1      45.907   5.919  11.151  0.00  0.00    +0.000 A 
ATOM      7  C   UNL     1      46.861   6.740  11.758  0.00  0.00    +0.000 A 
BRANCH   5   8
ATOM      8  O   UNL     1      44.507   3.917  11.293  0.00  0.00    +0.000 OA
BRANCH   8   9
ATOM      9  C   UNL     1      44.165   4.149   9.919  0.00  0.00    +0.000 C 
BRANCH   9  10
ATOM     10  C   UNL     1      45.123   3.441   8.992  0.00  0.00    +0.000 A 
ATOM     11  C   UNL     1      45.797   4.143   7.997  0.00  0.00    +0.000 A 
ATOM     12  C   UNL     1      46.633   3.441   7.132  0.00  0.00    +0.000 A 
ATOM     13  C   UNL     1      46.775   2.065   7.285  0.00  0.00    +0.000 A 
ATOM     14  C   UNL     1      46.067   1.444   8.297  0.00  0.00    +0.000 A 
ATOM     15  N   UNL     1      45.245   2.095   9.144  0.00  0.00    +0.000 NA
ENDBRANCH   9  10
ENDBRANCH   8   9
ENDBRANCH   5   8
ENDBRANCH   1   2
BRANCH   1  16
ATOM     16  N   UNL     1      49.723   7.209  12.935  0.00  0.00    +0.000 N 
ATOM     17  C   UNL     1      50.357   8.302  12.398  0.00  0.00    +0.000 C 
ATOM     18  O   UNL     1      49.969   9.450  12.597  0.00  0.00    +0.000 OA
ATOM     19  H   UNL     1      49.944   6.296  12.547  0.00  0.00    +0.000 HD
BRANCH  17  20
ATOM     20  C   UNL     1      51.564   8.046  11.613  0.00  0.00    +0.000 A 
ATOM     21  C   UNL     1      51.467   7.406  10.385  0.00  0.00    +0.000 A 
ATOM     22  S   UNL     1      52.977   7.117   9.646  0.00  0.00    +0.000 S 
ATOM     23  C   UNL     1      53.811   7.801  10.962  0.00  0.00    +0.000 A 
ATOM     24  N   UNL     1      55.171   7.805  11.006  0.00  0.00    +0.000 NA
ATOM     25  C   UNL     1      55.667   8.320  12.081  0.00  0.00    +0.000 A 
ATOM     26  N   UNL     1      54.928   8.861  13.102  0.00  0.00    +0.000 N 
ATOM     27  C   UNL     1      53.557   8.940  13.070  0.00  0.00    +0.000 A 
ATOM     28  O   UNL     1      52.924   9.532  13.937  0.00  0.00    +0.000 OA
ATOM     29  C   UNL     1      52.948   8.304  11.918  0.00  0.00    +0.000 A 
ATOM     30  H   UNL     1      55.380   9.290  13.897  0.00  0.00    +0.000 HD
ENDBRANCH  17  20
ENDBRANCH   1  16
BRANCH   1  31
ATOM     31  C   UNL     1      48.608   6.972  15.178  0.00  0.00    +0.000 C 
BRANCH  31  32
ATOM     32  N   UNL     1      49.906   6.391  15.552  0.00  0.00    +0.000 NA
ATOM     33  H   UNL     1      50.580   6.599  14.816  0.00  0.00    +0.000 HD
ATOM     34  H   UNL     1      49.827   5.374  15.590  0.00  0.00    +0.000 HD
ENDBRANCH  31  32
ENDBRANCH   1  31
TORSDOF 8
ENDMDL
