MODEL 1
REMARK VINA RESULT:    -6.970      0.000      0.000
REMARK INTER + INTRA:         -10.747
REMARK INTER:                  -9.618
REMARK INTRA:                  -1.129
REMARK UNBOUND:                -1.129
REMARK  Name = 
REMARK  7 active torsions:
REMARK  status: ('A' for Active; 'I' for Inactive)
REMARK    1  A    between atoms: N_1  and  C_2
REMARK    2  A    between atoms: C_2  and  C_3
REMARK    3  A    between atoms: N_7  and  C_8
REMARK    4  A    between atoms: C_8  and  C_9
REMARK    5  A    between atoms: C_12  and  C_13
REMARK    6  A    between atoms: C_13  and  N_14
REMARK    7  A    between atoms: C_15  and  C_17
REMARK                            x       y       z     vdW  Elec       q    Type
REMARK                         _______ _______ _______ _____ _____    ______ ____
ROOT
ATOM      1  C   UNL     1      51.173   3.907  17.745  0.00  0.00    +0.000 A 
ATOM      2  C   UNL     1      50.644   2.652  17.406  0.00  0.00    +0.000 A 
ATOM      3  C   UNL     1      49.283   2.497  17.122  0.00  0.00    +0.000 A 
ATOM      4  C   UNL     1      48.411   3.589  17.201  0.00  0.00    +0.000 A 
ATOM      5  C   UNL     1      48.920   4.823  17.631  0.00  0.00    +0.000 A 
ATOM      6  C   UNL     1      50.289   4.985  17.882  0.00  0.00    +0.000 A 
ENDROOT
BRANCH   1   7
ATOM      7  C   UNL     1      52.673   4.088  17.913  0.00  0.00    +0.000 C 
BRANCH   7  12
ATOM      8  C   UNL     1      55.187   1.230  18.294  0.00  0.00    +0.000 C 
ATOM      9  C   UNL     1      55.775   1.636  19.654  0.00  0.00    +0.000 C 
ATOM     10  C   UNL     1      54.698   2.207  20.566  0.00  0.00    +0.000 C 
ATOM     11  C   UNL     1      53.915   3.333  19.886  0.00  0.00    +0.000 C 
ATOM     12  N   UNL     1      53.362   2.951  18.573  0.00  0.00    +0.000 NA
ATOM     13  C   UNL     1      54.438   2.443  17.695  0.00  0.00    +0.000 C 
BRANCH   8  14
ATOM     14  C   UNL     1      54.263  -0.005  18.366  0.00  0.00    +0.000 C 
BRANCH  14  15
ATOM     15  N   UNL     1      53.089   0.109  17.498  0.00  0.00    +0.000 NA
ATOM     16  H   UNL     1      53.369  -0.111  16.542  0.00  0.00    +0.000 HD
ATOM     17  H   UNL     1      52.761   1.072  17.469  0.00  0.00    +0.000 HD
ENDBRANCH  14  15
ENDBRANCH   8  14
ENDBRANCH   7  12
ENDBRANCH   1   7
BRANCH   4  18
ATOM     18  C   UNL     1      46.955   3.439  16.839  0.00  0.00    +0.000 C 
BRANCH  18  19
ATOM     19  N   UNL     1      46.554   4.400  15.846  0.00  0.00    +0.000 N 
ATOM     20  C   UNL     1      46.780   4.188  14.508  0.00  0.00    +0.000 C 
ATOM     21  O   UNL     1      47.300   3.161  14.087  0.00  0.00    +0.000 OA
ATOM     22  H   UNL     1      46.336   5.336  16.175  0.00  0.00    +0.000 HD
BRANCH  20  23
ATOM     23  C   UNL     1      46.298   5.237  13.596  0.00  0.00    +0.000 A 
ATOM     24  C   UNL     1      47.119   6.317  13.299  0.00  0.00    +0.000 A 
ATOM     25  S   UNL     1      46.432   7.413  12.186  0.00  0.00    +0.000 S 
ATOM     26  C   UNL     1      44.991   6.513  12.108  0.00  0.00    +0.000 A 
ATOM     27  N   UNL     1      43.949   6.930  11.338  0.00  0.00    +0.000 NA
ATOM     28  C   UNL     1      42.907   6.170  11.394  0.00  0.00    +0.000 A 
ATOM     29  N   UNL     1      42.814   5.028  12.144  0.00  0.00    +0.000 N 
ATOM     30  C   UNL     1      43.852   4.549  12.907  0.00  0.00    +0.000 A 
ATOM     31  O   UNL     1      43.756   3.487  13.518  0.00  0.00    +0.000 OA
ATOM     32  C   UNL     1      45.042   5.378  12.898  0.00  0.00    +0.000 A 
ATOM     33  H   UNL     1      41.974   4.467  12.134  0.00  0.00    +0.000 HD
ENDBRANCH  20  23
ENDBRANCH  18  19
ENDBRANCH   4  18
TORSDOF 7
ENDMDL
MODEL 2
REMARK VINA RESULT:    -6.716      3.906      5.558
REMARK INTER + INTRA:         -10.397
REMARK INTER:                  -9.016
REMARK INTRA:                  -1.381
REMARK UNBOUND:                -1.129
REMARK  Name = 
REMARK  7 active torsions:
REMARK  status: ('A' for Active; 'I' for Inactive)
REMARK    1  A    between atoms: N_1  and  C_2
REMARK    2  A    between atoms: C_2  and  C_3
REMARK    3  A    between atoms: N_7  and  C_8
REMARK    4  A    between atoms: C_8  and  C_9
REMARK    5  A    between atoms: C_12  and  C_13
REMARK    6  A    between atoms: C_13  and  N_14
REMARK    7  A    between atoms: C_15  and  C_17
REMARK                            x       y       z     vdW  Elec       q    Type
REMARK                         _______ _______ _______ _____ _____    ______ ____
ROOT
ATOM      1  C   UNL     1      48.955   7.974  15.909  0.00  0.00    +0.000 A 
ATOM      2  C   UNL     1      48.103   8.968  15.403  0.00  0.00    +0.000 A 
ATOM      3  C   UNL     1      47.641   8.918  14.085  0.00  0.00    +0.000 A 
ATOM      4  C   UNL     1      48.045   7.887  13.228  0.00  0.00    +0.000 A 
ATOM      5  C   UNL     1      48.970   6.946  13.703  0.00  0.00    +0.000 A 
ATOM      6  C   UNL     1      49.406   6.978  15.035  0.00  0.00    +0.000 A 
ENDROOT
BRANCH   1   7
ATOM      7  C   UNL     1      49.336   7.965  17.381  0.00  0.00    +0.000 C 
BRANCH   7  12
ATOM      8  C   UNL     1      49.618   4.723  19.393  0.00  0.00    +0.000 C 
ATOM      9  C   UNL     1      48.723   5.122  20.576  0.00  0.00    +0.000 C 
ATOM     10  C   UNL     1      47.542   5.960  20.109  0.00  0.00    +0.000 C 
ATOM     11  C   UNL     1      47.991   7.154  19.262  0.00  0.00    +0.000 C 
ATOM     12  N   UNL     1      48.863   6.776  18.135  0.00  0.00    +0.000 NA
ATOM     13  C   UNL     1      50.023   6.002  18.624  0.00  0.00    +0.000 C 
BRANCH   8  14
ATOM     14  C   UNL     1      48.963   3.696  18.444  0.00  0.00    +0.000 C 
BRANCH  14  15
ATOM     15  N   UNL     1      49.331   3.900  17.041  0.00  0.00    +0.000 NA
ATOM     16  H   UNL     1      49.050   4.839  16.763  0.00  0.00    +0.000 HD
ATOM     17  H   UNL     1      48.803   3.271  16.440  0.00  0.00    +0.000 HD
ENDBRANCH  14  15
ENDBRANCH   8  14
ENDBRANCH   7  12
ENDBRANCH   1   7
BRANCH   4  18
ATOM     18  C   UNL     1      47.503   7.796  11.824  0.00  0.00    +0.000 C 
BRANCH  18  19
ATOM     19  N   UNL     1      46.824   6.547  11.598  0.00  0.00    +0.000 N 
ATOM     20  C   UNL     1      45.464   6.432  11.749  0.00  0.00    +0.000 C 
ATOM     21  O   UNL     1      44.756   7.386  12.049  0.00  0.00    +0.000 OA
ATOM     22  H   UNL     1      47.399   5.710  11.574  0.00  0.00    +0.000 HD
BRANCH  20  23
ATOM     23  C   UNL     1      44.892   5.107  11.463  0.00  0.00    +0.000 A 
ATOM     24  C   UNL     1      44.163   4.448  12.444  0.00  0.00    +0.000 A 
ATOM     25  S   UNL     1      43.524   2.951  11.933  0.00  0.00    +0.000 S 
ATOM     26  C   UNL     1      44.248   3.104  10.402  0.00  0.00    +0.000 A 
ATOM     27  N   UNL     1      44.117   2.124   9.467  0.00  0.00    +0.000 NA
ATOM     28  C   UNL     1      44.742   2.355   8.360  0.00  0.00    +0.000 A 
ATOM     29  N   UNL     1      45.480   3.479   8.101  0.00  0.00    +0.000 N 
ATOM     30  C   UNL     1      45.610   4.510   9.001  0.00  0.00    +0.000 A 
ATOM     31  O   UNL     1      46.228   5.533   8.713  0.00  0.00    +0.000 OA
ATOM     32  C   UNL     1      44.945   4.292  10.271  0.00  0.00    +0.000 A 
ATOM     33  H   UNL     1      45.934   3.608   7.209  0.00  0.00    +0.000 HD
ENDBRANCH  20  23
ENDBRANCH  18  19
ENDBRANCH   4  18
TORSDOF 7
ENDMDL
MODEL 3
REMARK VINA RESULT:    -6.616      1.938      2.986
REMARK INTER + INTRA:         -10.259
REMARK INTER:                  -9.039
REMARK INTRA:                  -1.219
REMARK UNBOUND:                -1.129
REMARK  Name = 
REMARK  7 active torsions:
REMARK  status: ('A' for Active; 'I' for Inactive)
REMARK    1  A    between atoms: N_1  and  C_2
REMARK    2  A    between atoms: C_2  and  C_3
REMARK    3  A    between atoms: N_7  and  C_8
REMARK    4  A    between atoms: C_8  and  C_9
REMARK    5  A    between atoms: C_12  and  C_13
REMARK    6  A    between atoms: C_13  and  N_14
REMARK    7  A    between atoms: C_15  and  C_17
REMARK                            x       y       z     vdW  Elec       q    Type
REMARK                         _______ _______ _______ _____ _____    ______ ____
ROOT
ATOM      1  C   UNL     1      51.341   3.938  18.095  0.00  0.00    +0.000 A 
ATOM      2  C   UNL     1      50.951   2.734  17.489  0.00  0.00    +0.000 A 
ATOM      3  C   UNL     1      49.625   2.519  17.103  0.00  0.00    +0.000 A 
ATOM      4  C   UNL     1      48.647   3.492  17.343  0.00  0.00    +0.000 A 
ATOM      5  C   UNL     1      49.016   4.656  18.033  0.00  0.00    +0.000 A 
ATOM      6  C   UNL     1      50.352   4.885  18.389  0.00  0.00    +0.000 A 
ENDROOT
BRANCH   1   7
ATOM      7  C   UNL     1      52.809   4.215  18.381  0.00  0.00    +0.000 C 
BRANCH   7  12
ATOM      8  C   UNL     1      54.258   7.281  16.612  0.00  0.00    +0.000 C 
ATOM      9  C   UNL     1      55.680   6.748  16.381  0.00  0.00    +0.000 C 
ATOM     10  C   UNL     1      55.659   5.264  16.046  0.00  0.00    +0.000 C 
ATOM     11  C   UNL     1      54.873   4.457  17.083  0.00  0.00    +0.000 C 
ATOM     12  N   UNL     1      53.513   4.976  17.319  0.00  0.00    +0.000 NA
ATOM     13  C   UNL     1      53.569   6.407  17.685  0.00  0.00    +0.000 C 
BRANCH   8  14
ATOM     14  C   UNL     1      53.407   7.344  15.325  0.00  0.00    +0.000 C 
BRANCH  14  15
ATOM     15  N   UNL     1      52.006   6.978  15.549  0.00  0.00    +0.000 NA
ATOM     16  H   UNL     1      51.597   7.643  16.204  0.00  0.00    +0.000 HD
ATOM     17  H   UNL     1      51.945   6.072  16.009  0.00  0.00    +0.000 HD
ENDBRANCH  14  15
ENDBRANCH   8  14
ENDBRANCH   7  12
ENDBRANCH   1   7
BRANCH   4  18
ATOM     18  C   UNL     1      47.229   3.289  16.876  0.00  0.00    +0.000 C 
BRANCH  18  19
ATOM     19  N   UNL     1      46.831   4.300  15.931  0.00  0.00    +0.000 N 
ATOM     20  C   UNL     1      46.937   4.099  14.577  0.00  0.00    +0.000 C 
ATOM     21  O   UNL     1      47.339   3.044  14.102  0.00  0.00    +0.000 OA
ATOM     22  H   UNL     1      46.714   5.243  16.291  0.00  0.00    +0.000 HD
BRANCH  20  23
ATOM     23  C   UNL     1      46.473   5.202  13.721  0.00  0.00    +0.000 A 
ATOM     24  C   UNL     1      47.261   6.335  13.576  0.00  0.00    +0.000 A 
ATOM     25  S   UNL     1      46.605   7.493  12.509  0.00  0.00    +0.000 S 
ATOM     26  C   UNL     1      45.216   6.547  12.250  0.00  0.00    +0.000 A 
ATOM     27  N   UNL     1      44.213   6.985  11.441  0.00  0.00    +0.000 NA
ATOM     28  C   UNL     1      43.206   6.182  11.358  0.00  0.00    +0.000 A 
ATOM     29  N   UNL     1      43.113   4.977  12.002  0.00  0.00    +0.000 N 
ATOM     30  C   UNL     1      44.116   4.477  12.797  0.00  0.00    +0.000 A 
ATOM     31  O   UNL     1      44.026   3.365  13.311  0.00  0.00    +0.000 OA
ATOM     32  C   UNL     1      45.264   5.351  12.945  0.00  0.00    +0.000 A 
ATOM     33  H   UNL     1      42.303   4.387  11.883  0.00  0.00    +0.000 HD
ENDBRANCH  20  23
ENDBRANCH  18  19
ENDBRANCH   4  18
TORSDOF 7
ENDMDL
MODEL 4
REMARK VINA RESULT:    -6.491      6.902      7.990
REMARK INTER + INTRA:         -10.086
REMARK INTER:                  -9.155
REMARK INTRA:                  -0.931
REMARK UNBOUND:                -1.129
REMARK  Name = 
REMARK  7 active torsions:
REMARK  status: ('A' for Active; 'I' for Inactive)
REMARK    1  A    between atoms: N_1  and  C_2
REMARK    2  A    between atoms: C_2  and  C_3
REMARK    3  A    between atoms: N_7  and  C_8
REMARK    4  A    between atoms: C_8  and  C_9
REMARK    5  A    between atoms: C_12  and  C_13
REMARK    6  A    between atoms: C_13  and  N_14
REMARK    7  A    between atoms: C_15  and  C_17
REMARK                            x       y       z     vdW  Elec       q    Type
REMARK                         _______ _______ _______ _____ _____    ______ ____
ROOT
ATOM      1  C   UNL     1      50.473   8.868  11.353  0.00  0.00    +0.000 A 
ATOM      2  C   UNL     1      49.533   9.905  11.443  0.00  0.00    +0.000 A 
ATOM      3  C   UNL     1      48.233   9.662  11.895  0.00  0.00    +0.000 A 
ATOM      4  C   UNL     1      47.830   8.367  12.240  0.00  0.00    +0.000 A 
ATOM      5  C   UNL     1      48.738   7.313  12.062  0.00  0.00    +0.000 A 
ATOM      6  C   UNL     1      50.052   7.563  11.640  0.00  0.00    +0.000 A 
ENDROOT
BRANCH   1   7
ATOM      7  C   UNL     1      51.920   9.170  10.994  0.00  0.00    +0.000 C 
BRANCH   7  12
ATOM      8  C   UNL     1      53.444   7.760   7.781  0.00  0.00    +0.000 C 
ATOM      9  C   UNL     1      54.764   7.243   8.374  0.00  0.00    +0.000 C 
ATOM     10  C   UNL     1      54.548   6.667   9.766  0.00  0.00    +0.000 C 
ATOM     11  C   UNL     1      53.819   7.653  10.683  0.00  0.00    +0.000 C 
ATOM     12  N   UNL     1      52.560   8.163  10.110  0.00  0.00    +0.000 NA
ATOM     13  C   UNL     1      52.808   8.756   8.779  0.00  0.00    +0.000 C 
BRANCH   8  14
ATOM     14  C   UNL     1      52.450   6.636   7.418  0.00  0.00    +0.000 C 
BRANCH  14  15
ATOM     15  N   UNL     1      53.065   5.560   6.637  0.00  0.00    +0.000 NA
ATOM     16  H   UNL     1      53.084   5.839   5.657  0.00  0.00    +0.000 HD
ATOM     17  H   UNL     1      52.486   4.723   6.669  0.00  0.00    +0.000 HD
ENDBRANCH  14  15
ENDBRANCH   8  14
ENDBRANCH   7  12
ENDBRANCH   1   7
BRANCH   4  18
ATOM     18  C   UNL     1      46.448   8.110  12.784  0.00  0.00    +0.000 C 
BRANCH  18  19
ATOM     19  N   UNL     1      45.987   6.785  12.456  0.00  0.00    +0.000 N 
ATOM     20  C   UNL     1      44.867   6.585  11.687  0.00  0.00    +0.000 C 
ATOM     21  O   UNL     1      44.225   7.514  11.212  0.00  0.00    +0.000 OA
ATOM     22  H   UNL     1      46.357   6.021  13.013  0.00  0.00    +0.000 HD
BRANCH  20  23
ATOM     23  C   UNL     1      44.518   5.184  11.406  0.00  0.00    +0.000 A 
ATOM     24  C   UNL     1      43.759   4.469  12.322  0.00  0.00    +0.000 A 
ATOM     25  S   UNL     1      43.398   2.879  11.820  0.00  0.00    +0.000 S 
ATOM     26  C   UNL     1      44.292   3.072  10.386  0.00  0.00    +0.000 A 
ATOM     27  N   UNL     1      44.417   2.048   9.499  0.00  0.00    +0.000 NA
ATOM     28  C   UNL     1      45.148   2.320   8.469  0.00  0.00    +0.000 A 
ATOM     29  N   UNL     1      45.759   3.525   8.243  0.00  0.00    +0.000 N 
ATOM     30  C   UNL     1      45.630   4.598   9.092  0.00  0.00    +0.000 A 
ATOM     31  O   UNL     1      46.140   5.684   8.827  0.00  0.00    +0.000 OA
ATOM     32  C   UNL     1      44.837   4.339  10.278  0.00  0.00    +0.000 A 
ATOM     33  H   UNL     1      46.306   3.681   7.409  0.00  0.00    +0.000 HD
ENDBRANCH  20  23
ENDBRANCH  18  19
ENDBRANCH   4  18
TORSDOF 7
ENDMDL
MODEL 5
REMARK VINA RESULT:    -6.430      3.959      5.351
REMARK INTER + INTRA:         -10.002
REMARK INTER:                  -8.579
REMARK INTRA:                  -1.423
REMARK UNBOUND:                -1.129
REMARK  Name = 
REMARK  7 active torsions:
REMARK  status: ('A' for Active; 'I' for Inactive)
REMARK    1  A    between atoms: N_1  and  C_2
REMARK    2  A    between atoms: C_2  and  C_3
REMARK    3  A    between atoms: N_7  and  C_8
REMARK    4  A    between atoms: C_8  and  C_9
REMARK    5  A    between atoms: C_12  and  C_13
REMARK    6  A    between atoms: C_13  and  N_14
REMARK    7  A    between atoms: C_15  and  C_17
REMARK                            x       y       z     vdW  Elec       q    Type
REMARK                         _______ _______ _______ _____ _____    ______ ____
ROOT
ATOM      1  C   UNL     1      49.453   7.814  15.855  0.00  0.00    +0.000 A 
ATOM      2  C   UNL     1      48.270   8.507  15.558  0.00  0.00    +0.000 A 
ATOM      3  C   UNL     1      47.861   8.699  14.235  0.00  0.00    +0.000 A 
ATOM      4  C   UNL     1      48.642   8.229  13.173  0.00  0.00    +0.000 A 
ATOM      5  C   UNL     1      49.871   7.620  13.465  0.00  0.00    +0.000 A 
ATOM      6  C   UNL     1      50.264   7.398  14.792  0.00  0.00    +0.000 A 
ENDROOT
BRANCH   1   7
ATOM      7  C   UNL     1      49.813   7.492  17.297  0.00  0.00    +0.000 C 
BRANCH   7  12
ATOM      8  C   UNL     1      48.663   3.929  18.086  0.00  0.00    +0.000 C 
ATOM      9  C   UNL     1      48.658   4.036  19.619  0.00  0.00    +0.000 C 
ATOM     10  C   UNL     1      48.181   5.410  20.068  0.00  0.00    +0.000 C 
ATOM     11  C   UNL     1      48.964   6.536  19.388  0.00  0.00    +0.000 C 
ATOM     12  N   UNL     1      48.985   6.426  17.917  0.00  0.00    +0.000 NA
ATOM     13  C   UNL     1      49.494   5.099  17.511  0.00  0.00    +0.000 C 
BRANCH   8  14
ATOM     14  C   UNL     1      47.250   3.901  17.466  0.00  0.00    +0.000 C 
BRANCH  14  15
ATOM     15  N   UNL     1      47.143   4.716  16.254  0.00  0.00    +0.000 NA
ATOM     16  H   UNL     1      48.050   5.142  16.066  0.00  0.00    +0.000 HD
ATOM     17  H   UNL     1      46.505   5.495  16.405  0.00  0.00    +0.000 HD
ENDBRANCH  14  15
ENDBRANCH   8  14
ENDBRANCH   7  12
ENDBRANCH   1   7
BRANCH   4  18
ATOM     18  C   UNL     1      48.177   8.382  11.748  0.00  0.00    +0.000 C 
BRANCH  18  19
ATOM     19  N   UNL     1      47.504   7.198  11.279  0.00  0.00    +0.000 N 
ATOM     20  C   UNL     1      46.136   7.090  11.310  0.00  0.00    +0.000 C 
ATOM     21  O   UNL     1      45.416   8.002  11.701  0.00  0.00    +0.000 OA
ATOM     22  H   UNL     1      48.071   6.363  11.168  0.00  0.00    +0.000 HD
BRANCH  20  23
ATOM     23  C   UNL     1      45.574   5.839  10.779  0.00  0.00    +0.000 A 
ATOM     24  C   UNL     1      45.759   5.517   9.441  0.00  0.00    +0.000 A 
ATOM     25  S   UNL     1      45.093   4.009   9.001  0.00  0.00    +0.000 S 
ATOM     26  C   UNL     1      44.483   3.760  10.569  0.00  0.00    +0.000 A 
ATOM     27  N   UNL     1      43.765   2.645  10.869  0.00  0.00    +0.000 NA
ATOM     28  C   UNL     1      43.336   2.597  12.087  0.00  0.00    +0.000 A 
ATOM     29  N   UNL     1      43.568   3.560  13.033  0.00  0.00    +0.000 N 
ATOM     30  C   UNL     1      44.318   4.684  12.785  0.00  0.00    +0.000 A 
ATOM     31  O   UNL     1      44.559   5.498  13.674  0.00  0.00    +0.000 OA
ATOM     32  C   UNL     1      44.806   4.799  11.424  0.00  0.00    +0.000 A 
ATOM     33  H   UNL     1      43.217   3.457  13.974  0.00  0.00    +0.000 HD
ENDBRANCH  20  23
ENDBRANCH  18  19
ENDBRANCH   4  18
TORSDOF 7
ENDMDL
MODEL 6
REMARK VINA RESULT:    -6.339      6.897     10.494
REMARK INTER + INTRA:          -9.876
REMARK INTER:                  -9.065
REMARK INTRA:                  -0.811
REMARK UNBOUND:                -1.129
REMARK  Name = 
REMARK  7 active torsions:
REMARK  status: ('A' for Active; 'I' for Inactive)
REMARK    1  A    between atoms: N_1  and  C_2
REMARK    2  A    between atoms: C_2  and  C_3
REMARK    3  A    between atoms: N_7  and  C_8
REMARK    4  A    between atoms: C_8  and  C_9
REMARK    5  A    between atoms: C_12  and  C_13
REMARK    6  A    between atoms: C_13  and  N_14
REMARK    7  A    between atoms: C_15  and  C_17
REMARK                            x       y       z     vdW  Elec       q    Type
REMARK                         _______ _______ _______ _____ _____    ______ ____
ROOT
ATOM      1  C   UNL     1      47.039   7.592  12.507  0.00  0.00    +0.000 A 
ATOM      2  C   UNL     1      47.456   8.835  12.008  0.00  0.00    +0.000 A 
ATOM      3  C   UNL     1      48.811   9.112  11.806  0.00  0.00    +0.000 A 
ATOM      4  C   UNL     1      49.788   8.163  12.130  0.00  0.00    +0.000 A 
ATOM      5  C   UNL     1      49.380   6.957  12.717  0.00  0.00    +0.000 A 
ATOM      6  C   UNL     1      48.019   6.667  12.887  0.00  0.00    +0.000 A 
ENDROOT
BRANCH   1   7
ATOM      7  C   UNL     1      45.559   7.254  12.589  0.00  0.00    +0.000 C 
BRANCH   7  12
ATOM      8  C   UNL     1      43.225   4.522  11.275  0.00  0.00    +0.000 C 
ATOM      9  C   UNL     1      43.770   4.441   9.841  0.00  0.00    +0.000 C 
ATOM     10  C   UNL     1      45.281   4.621   9.820  0.00  0.00    +0.000 C 
ATOM     11  C   UNL     1      45.713   5.890  10.559  0.00  0.00    +0.000 C 
ATOM     12  N   UNL     1      45.179   5.979  11.931  0.00  0.00    +0.000 NA
ATOM     13  C   UNL     1      43.707   5.845  11.915  0.00  0.00    +0.000 C 
BRANCH   8  14
ATOM     14  C   UNL     1      43.617   3.313  12.153  0.00  0.00    +0.000 C 
BRANCH  14  15
ATOM     15  N   UNL     1      43.041   2.053  11.679  0.00  0.00    +0.000 NA
ATOM     16  H   UNL     1      43.765   1.337  11.697  0.00  0.00    +0.000 HD
ATOM     17  H   UNL     1      42.765   2.134  10.702  0.00  0.00    +0.000 HD
ENDBRANCH  14  15
ENDBRANCH   8  14
ENDBRANCH   7  12
ENDBRANCH   1   7
BRANCH   4  18
ATOM     18  C   UNL     1      51.245   8.435  11.860  0.00  0.00    +0.000 C 
BRANCH  18  19
ATOM     19  N   UNL     1      51.614   8.066  10.518  0.00  0.00    +0.000 N 
ATOM     20  C   UNL     1      52.692   8.637   9.887  0.00  0.00    +0.000 C 
ATOM     21  O   UNL     1      53.414   9.459  10.439  0.00  0.00    +0.000 OA
ATOM     22  H   UNL     1      50.917   7.571   9.970  0.00  0.00    +0.000 HD
BRANCH  20  23
ATOM     23  C   UNL     1      52.976   8.153   8.527  0.00  0.00    +0.000 A 
ATOM     24  C   UNL     1      52.884   9.029   7.454  0.00  0.00    +0.000 A 
ATOM     25  S   UNL     1      53.297   8.324   5.957  0.00  0.00    +0.000 S 
ATOM     26  C   UNL     1      53.557   6.808   6.682  0.00  0.00    +0.000 A 
ATOM     27  N   UNL     1      53.913   5.728   5.933  0.00  0.00    +0.000 NA
ATOM     28  C   UNL     1      54.048   4.634   6.606  0.00  0.00    +0.000 A 
ATOM     29  N   UNL     1      53.868   4.523   7.959  0.00  0.00    +0.000 N 
ATOM     30  C   UNL     1      53.545   5.592   8.759  0.00  0.00    +0.000 A 
ATOM     31  O   UNL     1      53.452   5.470   9.978  0.00  0.00    +0.000 OA
ATOM     32  C   UNL     1      53.358   6.844   8.050  0.00  0.00    +0.000 A 
ATOM     33  H   UNL     1      54.004   3.640   8.429  0.00  0.00    +0.000 HD
ENDBRANCH  20  23
ENDBRANCH  18  19
ENDBRANCH   4  18
TORSDOF 7
ENDMDL
MODEL 7
REMARK VINA RESULT:    -6.202      3.165      9.997
REMARK INTER + INTRA:          -9.688
REMARK INTER:                  -8.772
REMARK INTRA:                  -0.916
REMARK UNBOUND:                -1.129
REMARK  Name = 
REMARK  7 active torsions:
REMARK  status: ('A' for Active; 'I' for Inactive)
REMARK    1  A    between atoms: N_1  and  C_2
REMARK    2  A    between atoms: C_2  and  C_3
REMARK    3  A    between atoms: N_7  and  C_8
REMARK    4  A    between atoms: C_8  and  C_9
REMARK    5  A    between atoms: C_12  and  C_13
REMARK    6  A    between atoms: C_13  and  N_14
REMARK    7  A    between atoms: C_15  and  C_17
REMARK                            x       y       z     vdW  Elec       q    Type
REMARK                         _______ _______ _______ _____ _____    ______ ____
ROOT
ATOM      1  C   UNL     1      47.114   4.759  14.634  0.00  0.00    +0.000 A 
ATOM      2  C   UNL     1      47.815   5.945  14.371  0.00  0.00    +0.000 A 
ATOM      3  C   UNL     1      48.674   6.501  15.324  0.00  0.00    +0.000 A 
ATOM      4  C   UNL     1      48.829   5.901  16.579  0.00  0.00    +0.000 A 
ATOM      5  C   UNL     1      48.058   4.769  16.879  0.00  0.00    +0.000 A 
ATOM      6  C   UNL     1      47.223   4.193  15.911  0.00  0.00    +0.000 A 
ENDROOT
BRANCH   1   7
ATOM      7  C   UNL     1      46.295   4.091  13.541  0.00  0.00    +0.000 C 
BRANCH   7  12
ATOM      8  C   UNL     1      44.411   6.082  10.872  0.00  0.00    +0.000 C 
ATOM      9  C   UNL     1      43.029   5.437  11.053  0.00  0.00    +0.000 C 
ATOM     10  C   UNL     1      42.754   5.139  12.520  0.00  0.00    +0.000 C 
ATOM     11  C   UNL     1      43.886   4.330  13.159  0.00  0.00    +0.000 C 
ATOM     12  N   UNL     1      45.216   4.939  12.973  0.00  0.00    +0.000 NA
ATOM     13  C   UNL     1      45.473   5.175  11.536  0.00  0.00    +0.000 C 
BRANCH   8  14
ATOM     14  C   UNL     1      44.496   7.522  11.423  0.00  0.00    +0.000 C 
BRANCH  14  15
ATOM     15  N   UNL     1      43.354   8.351  11.032  0.00  0.00    +0.000 NA
ATOM     16  H   UNL     1      43.564   9.322  11.258  0.00  0.00    +0.000 HD
ATOM     17  H   UNL     1      42.536   8.115  11.590  0.00  0.00    +0.000 HD
ENDBRANCH  14  15
ENDBRANCH   8  14
ENDBRANCH   7  12
ENDBRANCH   1   7
BRANCH   4  18
ATOM     18  C   UNL     1      49.798   6.464  17.587  0.00  0.00    +0.000 C 
BRANCH  18  19
ATOM     19  N   UNL     1      50.940   5.605  17.763  0.00  0.00    +0.000 N 
ATOM     20  C   UNL     1      51.045   4.763  18.843  0.00  0.00    +0.000 C 
ATOM     21  O   UNL     1      50.165   4.671  19.690  0.00  0.00    +0.000 OA
ATOM     22  H   UNL     1      51.766   5.822  17.214  0.00  0.00    +0.000 HD
BRANCH  20  23
ATOM     23  C   UNL     1      52.250   3.920  18.890  0.00  0.00    +0.000 A 
ATOM     24  C   UNL     1      53.371   4.365  19.579  0.00  0.00    +0.000 A 
ATOM     25  S   UNL     1      54.660   3.248  19.582  0.00  0.00    +0.000 S 
ATOM     26  C   UNL     1      53.786   2.155  18.615  0.00  0.00    +0.000 A 
ATOM     27  N   UNL     1      54.341   0.978  18.217  0.00  0.00    +0.000 NA
ATOM     28  C   UNL     1      53.580   0.258  17.462  0.00  0.00    +0.000 A 
ATOM     29  N   UNL     1      52.313   0.604  17.075  0.00  0.00    +0.000 N 
ATOM     30  C   UNL     1      51.699   1.764  17.483  0.00  0.00    +0.000 A 
ATOM     31  O   UNL     1      50.538   2.015  17.168  0.00  0.00    +0.000 OA
ATOM     32  C   UNL     1      52.519   2.623  18.315  0.00  0.00    +0.000 A 
ATOM     33  H   UNL     1      51.761  -0.011  16.495  0.00  0.00    +0.000 HD
ENDBRANCH  20  23
ENDBRANCH  18  19
ENDBRANCH   4  18
TORSDOF 7
ENDMDL
MODEL 8
REMARK VINA RESULT:    -6.076      3.314      9.722
REMARK INTER + INTRA:          -9.514
REMARK INTER:                  -8.740
REMARK INTRA:                  -0.774
REMARK UNBOUND:                -1.129
REMARK  Name = 
REMARK  7 active torsions:
REMARK  status: ('A' for Active; 'I' for Inactive)
REMARK    1  A    between atoms: N_1  and  C_2
REMARK    2  A    between atoms: C_2  and  C_3
REMARK    3  A    between atoms: N_7  and  C_8
REMARK    4  A    between atoms: C_8  and  C_9
REMARK    5  A    between atoms: C_12  and  C_13
REMARK    6  A    between atoms: C_13  and  N_14
REMARK    7  A    between atoms: C_15  and  C_17
REMARK                            x       y       z     vdW  Elec       q    Type
REMARK                         _______ _______ _______ _____ _____    ______ ____
ROOT
ATOM      1  C   UNL     1      47.488   5.273  14.605  0.00  0.00    +0.000 A 
ATOM      2  C   UNL     1      48.170   5.971  15.613  0.00  0.00    +0.000 A 
ATOM      3  C   UNL     1      48.583   5.325  16.783  0.00  0.00    +0.000 A 
ATOM      4  C   UNL     1      48.295   3.971  16.988  0.00  0.00    +0.000 A 
ATOM      5  C   UNL     1      47.531   3.296  16.025  0.00  0.00    +0.000 A 
ATOM      6  C   UNL     1      47.147   3.934  14.838  0.00  0.00    +0.000 A 
ENDROOT
BRANCH   1   7
ATOM      7  C   UNL     1      47.170   5.950  13.281  0.00  0.00    +0.000 C 
BRANCH   7  12
ATOM      8  C   UNL     1      43.604   4.852  12.435  0.00  0.00    +0.000 C 
ATOM      9  C   UNL     1      43.548   5.385  10.996  0.00  0.00    +0.000 C 
ATOM     10  C   UNL     1      44.887   5.208  10.295  0.00  0.00    +0.000 C 
ATOM     11  C   UNL     1      46.039   5.799  11.113  0.00  0.00    +0.000 C 
ATOM     12  N   UNL     1      46.086   5.302  12.500  0.00  0.00    +0.000 NA
ATOM     13  C   UNL     1      44.787   5.527  13.168  0.00  0.00    +0.000 C 
BRANCH   8  14
ATOM     14  C   UNL     1      43.711   3.314  12.520  0.00  0.00    +0.000 C 
BRANCH  14  15
ATOM     15  N   UNL     1      42.895   2.629  11.515  0.00  0.00    +0.000 NA
ATOM     16  H   UNL     1      42.870   3.201  10.671  0.00  0.00    +0.000 HD
ATOM     17  H   UNL     1      41.929   2.564  11.826  0.00  0.00    +0.000 HD
ENDBRANCH  14  15
ENDBRANCH   8  14
ENDBRANCH   7  12
ENDBRANCH   1   7
BRANCH   4  18
ATOM     18  C   UNL     1      48.789   3.257  18.220  0.00  0.00    +0.000 C 
BRANCH  18  19
ATOM     19  N   UNL     1      50.224   3.304  18.321  0.00  0.00    +0.000 N 
ATOM     20  C   UNL     1      51.025   2.516  17.531  0.00  0.00    +0.000 C 
ATOM     21  O   UNL     1      50.567   1.764  16.680  0.00  0.00    +0.000 OA
ATOM     22  H   UNL     1      50.611   3.736  19.155  0.00  0.00    +0.000 HD
BRANCH  20  23
ATOM     23  C   UNL     1      52.475   2.678  17.717  0.00  0.00    +0.000 A 
ATOM     24  C   UNL     1      53.253   1.573  18.036  0.00  0.00    +0.000 A 
ATOM     25  S   UNL     1      54.918   1.922  18.162  0.00  0.00    +0.000 S 
ATOM     26  C   UNL     1      54.651   3.573  17.851  0.00  0.00    +0.000 A 
ATOM     27  N   UNL     1      55.684   4.458  17.847  0.00  0.00    +0.000 NA
ATOM     28  C   UNL     1      55.337   5.682  17.628  0.00  0.00    +0.000 A 
ATOM     29  N   UNL     1      54.052   6.101  17.406  0.00  0.00    +0.000 N 
ATOM     30  C   UNL     1      52.983   5.238  17.365  0.00  0.00    +0.000 A 
ATOM     31  O   UNL     1      51.851   5.638  17.102  0.00  0.00    +0.000 OA
ATOM     32  C   UNL     1      53.314   3.851  17.628  0.00  0.00    +0.000 A 
ATOM     33  H   UNL     1      53.846   7.072  17.226  0.00  0.00    +0.000 HD
ENDBRANCH  20  23
ENDBRANCH  18  19
ENDBRANCH   4  18
TORSDOF 7
ENDMDL
MODEL 9
REMARK VINA RESULT:    -6.007      6.869     10.463
REMARK INTER + INTRA:          -9.418
REMARK INTER:                  -8.786
REMARK INTRA:                  -0.632
REMARK UNBOUND:                -1.129
REMARK  Name = 
REMARK  7 active torsions:
REMARK  status: ('A' for Active; 'I' for Inactive)
REMARK    1  A    between atoms: N_1  and  C_2
REMARK    2  A    between atoms: C_2  and  C_3
REMARK    3  A    between atoms: N_7  and  C_8
REMARK    4  A    between atoms: C_8  and  C_9
REMARK    5  A    between atoms: C_12  and  C_13
REMARK    6  A    between atoms: C_13  and  N_14
REMARK    7  A    between atoms: C_15  and  C_17
REMARK                            x       y       z     vdW  Elec       q    Type
REMARK                         _______ _______ _______ _____ _____    ______ ____
ROOT
ATOM      1  C   UNL     1      47.198   7.515  12.352  0.00  0.00    +0.000 A 
ATOM      2  C   UNL     1      48.269   6.654  12.632  0.00  0.00    +0.000 A 
ATOM      3  C   UNL     1      49.593   7.072  12.462  0.00  0.00    +0.000 A 
ATOM      4  C   UNL     1      49.877   8.354  11.977  0.00  0.00    +0.000 A 
ATOM      5  C   UNL     1      48.808   9.182  11.607  0.00  0.00    +0.000 A 
ATOM      6  C   UNL     1      47.482   8.775  11.809  0.00  0.00    +0.000 A 
ENDROOT
BRANCH   1   7
ATOM      7  C   UNL     1      45.771   7.097  12.673  0.00  0.00    +0.000 C 
BRANCH   7  12
ATOM      8  C   UNL     1      43.281   4.500  11.373  0.00  0.00    +0.000 C 
ATOM      9  C   UNL     1      43.723   4.492   9.902  0.00  0.00    +0.000 C 
ATOM     10  C   UNL     1      45.233   4.639   9.785  0.00  0.00    +0.000 C 
ATOM     11  C   UNL     1      45.749   5.853  10.563  0.00  0.00    +0.000 C 
ATOM     12  N   UNL     1      45.313   5.872  11.972  0.00  0.00    +0.000 NA
ATOM     13  C   UNL     1      43.841   5.772  12.052  0.00  0.00    +0.000 C 
BRANCH   8  14
ATOM     14  C   UNL     1      43.701   3.234  12.150  0.00  0.00    +0.000 C 
BRANCH  14  15
ATOM     15  N   UNL     1      43.021   2.025  11.680  0.00  0.00    +0.000 NA
ATOM     16  H   UNL     1      42.799   2.139  10.692  0.00  0.00    +0.000 HD
ATOM     17  H   UNL     1      42.123   1.918  12.148  0.00  0.00    +0.000 HD
ENDBRANCH  14  15
ENDBRANCH   8  14
ENDBRANCH   7  12
ENDBRANCH   1   7
BRANCH   4  18
ATOM     18  C   UNL     1      51.302   8.829  11.847  0.00  0.00    +0.000 C 
BRANCH  18  19
ATOM     19  N   UNL     1      52.171   7.781  11.380  0.00  0.00    +0.000 N 
ATOM     20  C   UNL     1      52.778   7.847  10.150  0.00  0.00    +0.000 C 
ATOM     21  O   UNL     1      52.643   8.810   9.404  0.00  0.00    +0.000 OA
ATOM     22  H   UNL     1      52.118   6.891  11.866  0.00  0.00    +0.000 HD
BRANCH  20  23
ATOM     23  C   UNL     1      53.661   6.723   9.804  0.00  0.00    +0.000 A 
ATOM     24  C   UNL     1      54.657   6.335  10.689  0.00  0.00    +0.000 A 
ATOM     25  S   UNL     1      55.554   4.983  10.162  0.00  0.00    +0.000 S 
ATOM     26  C   UNL     1      54.681   4.905   8.705  0.00  0.00    +0.000 A 
ATOM     27  N   UNL     1      54.976   3.967   7.764  0.00  0.00    +0.000 NA
ATOM     28  C   UNL     1      54.256   4.040   6.694  0.00  0.00    +0.000 A 
ATOM     29  N   UNL     1      53.264   4.959   6.483  0.00  0.00    +0.000 N 
ATOM     30  C   UNL     1      52.907   5.900   7.418  0.00  0.00    +0.000 A 
ATOM     31  O   UNL     1      51.970   6.671   7.221  0.00  0.00    +0.000 OA
ATOM     32  C   UNL     1      53.700   5.878   8.632  0.00  0.00    +0.000 A 
ATOM     33  H   UNL     1      52.726   4.955   5.629  0.00  0.00    +0.000 HD
ENDBRANCH  20  23
ENDBRANCH  18  19
ENDBRANCH   4  18
TORSDOF 7
ENDMDL
