MODEL 1
REMARK VINA RESULT:    -7.751      0.000      0.000
REMARK INTER + INTRA:         -11.877
REMARK INTER:                 -10.923
REMARK INTRA:                  -0.954
REMARK UNBOUND:                -0.954
REMARK  Name = 
REMARK  7 active torsions:
REMARK  status: ('A' for Active; 'I' for Inactive)
REMARK    1  A    between atoms: C_2  and  C_19
REMARK    2  A    between atoms: N_3  and  C_4
REMARK    3  A    between atoms: C_4  and  C_5
REMARK    4  A    between atoms: C_8  and  C_9
REMARK    5  A    between atoms: C_9  and  O_10
REMARK    6  A    between atoms: O_10  and  C_11
REMARK    7  A    between atoms: C_11  and  C_12
REMARK                            x       y       z     vdW  Elec       q    Type
REMARK                         _______ _______ _______ _____ _____    ______ ____
ROOT
ATOM      1  C   UNL     1      46.707   7.229  12.907  0.00  0.00    +0.000 C 
ENDROOT
BRANCH   1   2
ATOM      2  C   UNL     1      46.018   6.079  12.219  0.00  0.00    +0.000 A 
ATOM      3  C   UNL     1      45.604   4.966  12.960  0.00  0.00    +0.000 A 
ATOM      4  C   UNL     1      44.972   3.891  12.336  0.00  0.00    +0.000 A 
ATOM      5  C   UNL     1      44.749   3.907  10.953  0.00  0.00    +0.000 A 
ATOM      6  C   UNL     1      45.172   5.015  10.208  0.00  0.00    +0.000 A 
ATOM      7  C   UNL     1      45.808   6.088  10.833  0.00  0.00    +0.000 A 
BRANCH   5   8
ATOM      8  C   UNL     1      44.022   2.767  10.285  0.00  0.00    +0.000 C 
BRANCH   8   9
ATOM      9  O   UNL     1      44.429   2.593   8.925  0.00  0.00    +0.000 OA
BRANCH   9  10
ATOM     10  C   UNL     1      45.589   1.757   8.817  0.00  0.00    +0.000 C 
BRANCH  10  11
ATOM     11  C   UNL     1      46.348   2.171   7.607  0.00  0.00    +0.000 A 
ATOM     12  N   UNL     1      46.075   3.188   6.814  0.00  0.00    +0.000 NA
ATOM     13  C   UNL     1      47.036   3.165   5.838  0.00  0.00    +0.000 A 
ATOM     14  C   UNL     1      47.914   2.127   6.042  0.00  0.00    +0.000 A 
ATOM     15  N   UNL     1      47.457   1.494   7.162  0.00  0.00    +0.000 N 
ATOM     16  H   UNL     1      47.838   0.672   7.613  0.00  0.00    +0.000 HD
ENDBRANCH  10  11
ENDBRANCH   9  10
ENDBRANCH   8   9
ENDBRANCH   5   8
ENDBRANCH   1   2
BRANCH   1  19
ATOM     17  O   UNL     1      49.372   6.697  13.676  0.00  0.00    +0.000 OA
ATOM     18  C   UNL     1      48.485   6.673  14.523  0.00  0.00    +0.000 C 
ATOM     19  N   UNL     1      47.160   6.857  14.222  0.00  0.00    +0.000 N 
ATOM     20  H   UNL     1      46.507   7.032  14.975  0.00  0.00    +0.000 HD
BRANCH  18  21
ATOM     21  C   UNL     1      48.777   6.378  15.929  0.00  0.00    +0.000 A 
ATOM     22  C   UNL     1      49.404   7.324  16.728  0.00  0.00    +0.000 A 
ATOM     23  S   UNL     1      49.691   6.782  18.321  0.00  0.00    +0.000 S 
ATOM     24  C   UNL     1      48.946   5.283  18.007  0.00  0.00    +0.000 A 
ATOM     25  N   UNL     1      48.839   4.334  18.975  0.00  0.00    +0.000 NA
ATOM     26  C   UNL     1      48.216   3.265  18.604  0.00  0.00    +0.000 A 
ATOM     27  N   UNL     1      47.695   3.053  17.357  0.00  0.00    +0.000 N 
ATOM     28  C   UNL     1      47.840   3.954  16.326  0.00  0.00    +0.000 A 
ATOM     29  O   UNL     1      47.477   3.676  15.189  0.00  0.00    +0.000 OA
ATOM     30  C   UNL     1      48.502   5.191  16.701  0.00  0.00    +0.000 A 
ATOM     31  H   UNL     1      47.244   2.185  17.120  0.00  0.00    +0.000 HD
ENDBRANCH  18  21
ENDBRANCH   1  19
TORSDOF 7
ENDMDL
MODEL 2
REMARK VINA RESULT:    -7.586      1.400      1.955
REMARK INTER + INTRA:         -11.644
REMARK INTER:                 -10.824
REMARK INTRA:                  -0.821
REMARK UNBOUND:                -0.954
REMARK  Name = 
REMARK  7 active torsions:
REMARK  status: ('A' for Active; 'I' for Inactive)
REMARK    1  A    between atoms: C_2  and  C_19
REMARK    2  A    between atoms: N_3  and  C_4
REMARK    3  A    between atoms: C_4  and  C_5
REMARK    4  A    between atoms: C_8  and  C_9
REMARK    5  A    between atoms: C_9  and  O_10
REMARK    6  A    between atoms: O_10  and  C_11
REMARK    7  A    between atoms: C_11  and  C_12
REMARK                            x       y       z     vdW  Elec       q    Type
REMARK                         _______ _______ _______ _____ _____    ______ ____
ROOT
ATOM      1  C   UNL     1      48.283   6.706  13.441  0.00  0.00    +0.000 C 
ENDROOT
BRANCH   1   2
ATOM      2  C   UNL     1      47.149   5.978  12.767  0.00  0.00    +0.000 A 
ATOM      3  C   UNL     1      46.637   6.452  11.553  0.00  0.00    +0.000 A 
ATOM      4  C   UNL     1      45.582   5.793  10.921  0.00  0.00    +0.000 A 
ATOM      5  C   UNL     1      45.015   4.650  11.497  0.00  0.00    +0.000 A 
ATOM      6  C   UNL     1      45.520   4.179  12.716  0.00  0.00    +0.000 A 
ATOM      7  C   UNL     1      46.572   4.841  13.350  0.00  0.00    +0.000 A 
BRANCH   5   8
ATOM      8  C   UNL     1      43.909   3.908  10.789  0.00  0.00    +0.000 C 
BRANCH   8   9
ATOM      9  O   UNL     1      44.254   3.587   9.439  0.00  0.00    +0.000 OA
BRANCH   9  10
ATOM     10  C   UNL     1      44.550   2.192   9.281  0.00  0.00    +0.000 C 
BRANCH  10  11
ATOM     11  C   UNL     1      45.723   2.067   8.374  0.00  0.00    +0.000 A 
ATOM     12  N   UNL     1      46.395   0.966   8.102  0.00  0.00    +0.000 NA
ATOM     13  C   UNL     1      47.386   1.343   7.234  0.00  0.00    +0.000 A 
ATOM     14  C   UNL     1      47.313   2.689   6.965  0.00  0.00    +0.000 A 
ATOM     15  N   UNL     1      46.259   3.140   7.706  0.00  0.00    +0.000 N 
ATOM     16  H   UNL     1      45.908   4.086   7.779  0.00  0.00    +0.000 HD
ENDBRANCH  10  11
ENDBRANCH   9  10
ENDBRANCH   8   9
ENDBRANCH   5   8
ENDBRANCH   1   2
BRANCH   1  19
ATOM     17  O   UNL     1      50.354   6.726  15.361  0.00  0.00    +0.000 OA
ATOM     18  C   UNL     1      49.187   6.782  15.735  0.00  0.00    +0.000 C 
ATOM     19  N   UNL     1      48.123   6.713  14.872  0.00  0.00    +0.000 N 
ATOM     20  H   UNL     1      47.204   6.970  15.208  0.00  0.00    +0.000 HD
BRANCH  18  21
ATOM     21  C   UNL     1      48.840   6.864  17.157  0.00  0.00    +0.000 A 
ATOM     22  C   UNL     1      48.403   8.061  17.704  0.00  0.00    +0.000 A 
ATOM     23  S   UNL     1      48.086   7.966  19.378  0.00  0.00    +0.000 S 
ATOM     24  C   UNL     1      48.479   6.309  19.416  0.00  0.00    +0.000 A 
ATOM     25  N   UNL     1      48.403   5.594  20.571  0.00  0.00    +0.000 NA
ATOM     26  C   UNL     1      48.693   4.342  20.440  0.00  0.00    +0.000 A 
ATOM     27  N   UNL     1      49.056   3.739  19.268  0.00  0.00    +0.000 N 
ATOM     28  C   UNL     1      49.215   4.434  18.090  0.00  0.00    +0.000 A 
ATOM     29  O   UNL     1      49.667   3.888  17.090  0.00  0.00    +0.000 OA
ATOM     30  C   UNL     1      48.865   5.842  18.174  0.00  0.00    +0.000 A 
ATOM     31  H   UNL     1      49.297   2.763  19.236  0.00  0.00    +0.000 HD
ENDBRANCH  18  21
ENDBRANCH   1  19
TORSDOF 7
ENDMDL
MODEL 3
REMARK VINA RESULT:    -7.277      2.012      2.686
REMARK INTER + INTRA:         -11.209
REMARK INTER:                 -10.398
REMARK INTRA:                  -0.811
REMARK UNBOUND:                -0.954
REMARK  Name = 
REMARK  7 active torsions:
REMARK  status: ('A' for Active; 'I' for Inactive)
REMARK    1  A    between atoms: C_2  and  C_19
REMARK    2  A    between atoms: N_3  and  C_4
REMARK    3  A    between atoms: C_4  and  C_5
REMARK    4  A    between atoms: C_8  and  C_9
REMARK    5  A    between atoms: C_9  and  O_10
REMARK    6  A    between atoms: O_10  and  C_11
REMARK    7  A    between atoms: C_11  and  C_12
REMARK                            x       y       z     vdW  Elec       q    Type
REMARK                         _______ _______ _______ _____ _____    ______ ____
ROOT
ATOM      1  C   UNL     1      48.189   6.596  13.660  0.00  0.00    +0.000 C 
ENDROOT
BRANCH   1   2
ATOM      2  C   UNL     1      47.062   6.006  12.851  0.00  0.00    +0.000 A 
ATOM      3  C   UNL     1      46.388   4.870  13.315  0.00  0.00    +0.000 A 
ATOM      4  C   UNL     1      45.348   4.309  12.575  0.00  0.00    +0.000 A 
ATOM      5  C   UNL     1      44.967   4.872  11.350  0.00  0.00    +0.000 A 
ATOM      6  C   UNL     1      45.646   6.002  10.879  0.00  0.00    +0.000 A 
ATOM      7  C   UNL     1      46.689   6.561  11.619  0.00  0.00    +0.000 A 
BRANCH   5   8
ATOM      8  C   UNL     1      43.810   4.295  10.573  0.00  0.00    +0.000 C 
BRANCH   8   9
ATOM      9  O   UNL     1      44.222   3.761   9.312  0.00  0.00    +0.000 OA
BRANCH   9  10
ATOM     10  C   UNL     1      44.564   2.372   9.406  0.00  0.00    +0.000 C 
BRANCH  10  11
ATOM     11  C   UNL     1      45.680   2.104   8.459  0.00  0.00    +0.000 A 
ATOM     12  N   UNL     1      46.266   0.944   8.239  0.00  0.00    +0.000 NA
ATOM     13  C   UNL     1      47.234   1.190   7.301  0.00  0.00    +0.000 A 
ATOM     14  C   UNL     1      47.233   2.516   6.936  0.00  0.00    +0.000 A 
ATOM     15  N   UNL     1      46.249   3.088   7.690  0.00  0.00    +0.000 N 
ATOM     16  H   UNL     1      45.963   4.058   7.708  0.00  0.00    +0.000 HD
ENDBRANCH  10  11
ENDBRANCH   9  10
ENDBRANCH   8   9
ENDBRANCH   5   8
ENDBRANCH   1   2
BRANCH   1  19
ATOM     17  O   UNL     1      50.267   6.657  15.572  0.00  0.00    +0.000 OA
ATOM     18  C   UNL     1      49.133   6.346  15.924  0.00  0.00    +0.000 C 
ATOM     19  N   UNL     1      48.085   6.230  15.048  0.00  0.00    +0.000 N 
ATOM     20  H   UNL     1      47.144   6.177  15.416  0.00  0.00    +0.000 HD
BRANCH  18  21
ATOM     21  C   UNL     1      48.830   6.008  17.318  0.00  0.00    +0.000 A 
ATOM     22  C   UNL     1      49.037   4.719  17.787  0.00  0.00    +0.000 A 
ATOM     23  S   UNL     1      48.592   4.513  19.422  0.00  0.00    +0.000 S 
ATOM     24  C   UNL     1      48.150   6.152  19.568  0.00  0.00    +0.000 A 
ATOM     25  N   UNL     1      47.687   6.654  20.743  0.00  0.00    +0.000 NA
ATOM     26  C   UNL     1      47.430   7.920  20.716  0.00  0.00    +0.000 A 
ATOM     27  N   UNL     1      47.586   8.729  19.625  0.00  0.00    +0.000 N 
ATOM     28  C   UNL     1      47.985   8.253  18.395  0.00  0.00    +0.000 A 
ATOM     29  O   UNL     1      47.989   8.979  17.408  0.00  0.00    +0.000 OA
ATOM     30  C   UNL     1      48.323   6.840  18.381  0.00  0.00    +0.000 A 
ATOM     31  H   UNL     1      47.341   9.704  19.658  0.00  0.00    +0.000 HD
ENDBRANCH  18  21
ENDBRANCH   1  19
TORSDOF 7
ENDMDL
MODEL 4
REMARK VINA RESULT:    -7.110      4.551      9.231
REMARK INTER + INTRA:         -10.973
REMARK INTER:                 -10.282
REMARK INTRA:                  -0.691
REMARK UNBOUND:                -0.954
REMARK  Name = 
REMARK  7 active torsions:
REMARK  status: ('A' for Active; 'I' for Inactive)
REMARK    1  A    between atoms: C_2  and  C_19
REMARK    2  A    between atoms: N_3  and  C_4
REMARK    3  A    between atoms: C_4  and  C_5
REMARK    4  A    between atoms: C_8  and  C_9
REMARK    5  A    between atoms: C_9  and  O_10
REMARK    6  A    between atoms: O_10  and  C_11
REMARK    7  A    between atoms: C_11  and  C_12
REMARK                            x       y       z     vdW  Elec       q    Type
REMARK                         _______ _______ _______ _____ _____    ______ ____
ROOT
ATOM      1  C   UNL     1      47.147   3.429  16.925  0.00  0.00    +0.000 C 
ENDROOT
BRANCH   1   2
ATOM      2  C   UNL     1      48.618   3.241  17.194  0.00  0.00    +0.000 A 
ATOM      3  C   UNL     1      49.343   4.242  17.849  0.00  0.00    +0.000 A 
ATOM      4  C   UNL     1      50.707   4.085  18.099  0.00  0.00    +0.000 A 
ATOM      5  C   UNL     1      51.372   2.923  17.689  0.00  0.00    +0.000 A 
ATOM      6  C   UNL     1      50.650   1.924  17.023  0.00  0.00    +0.000 A 
ATOM      7  C   UNL     1      49.287   2.083  16.771  0.00  0.00    +0.000 A 
BRANCH   5   8
ATOM      8  C   UNL     1      52.835   2.730  18.002  0.00  0.00    +0.000 C 
BRANCH   8   9
ATOM      9  O   UNL     1      53.108   1.422  18.509  0.00  0.00    +0.000 OA
BRANCH   9  10
ATOM     10  C   UNL     1      53.972   0.680  17.637  0.00  0.00    +0.000 C 
BRANCH  10  11
ATOM     11  C   UNL     1      54.100  -0.701  18.176  0.00  0.00    +0.000 A 
ATOM     12  N   UNL     1      55.105  -1.532  17.985  0.00  0.00    +0.000 NA
ATOM     13  C   UNL     1      54.773  -2.676  18.661  0.00  0.00    +0.000 A 
ATOM     14  C   UNL     1      53.554  -2.539  19.282  0.00  0.00    +0.000 A 
ATOM     15  N   UNL     1      53.131  -1.284  18.955  0.00  0.00    +0.000 N 
ATOM     16  H   UNL     1      52.265  -0.830  19.217  0.00  0.00    +0.000 HD
ENDBRANCH  10  11
ENDBRANCH   9  10
ENDBRANCH   8   9
ENDBRANCH   5   8
ENDBRANCH   1   2
BRANCH   1  19
ATOM     17  O   UNL     1      47.278   3.057  14.128  0.00  0.00    +0.000 OA
ATOM     18  C   UNL     1      46.949   4.152  14.575  0.00  0.00    +0.000 C 
ATOM     19  N   UNL     1      46.924   4.432  15.917  0.00  0.00    +0.000 N 
ATOM     20  H   UNL     1      46.453   5.271  16.232  0.00  0.00    +0.000 HD
BRANCH  18  21
ATOM     21  C   UNL     1      46.618   5.272  13.690  0.00  0.00    +0.000 A 
ATOM     22  C   UNL     1      47.538   6.289  13.473  0.00  0.00    +0.000 A 
ATOM     23  S   UNL     1      46.957   7.520  12.444  0.00  0.00    +0.000 S 
ATOM     24  C   UNL     1      45.474   6.712  12.220  0.00  0.00    +0.000 A 
ATOM     25  N   UNL     1      44.504   7.230  11.419  0.00  0.00    +0.000 NA
ATOM     26  C   UNL     1      43.451   6.489  11.312  0.00  0.00    +0.000 A 
ATOM     27  N   UNL     1      43.274   5.283  11.933  0.00  0.00    +0.000 N 
ATOM     28  C   UNL     1      44.197   4.752  12.807  0.00  0.00    +0.000 A 
ATOM     29  O   UNL     1      43.950   3.736  13.446  0.00  0.00    +0.000 OA
ATOM     30  C   UNL     1      45.417   5.530  12.935  0.00  0.00    +0.000 A 
ATOM     31  H   UNL     1      42.418   4.765  11.833  0.00  0.00    +0.000 HD
ENDBRANCH  18  21
ENDBRANCH   1  19
TORSDOF 7
ENDMDL
MODEL 5
REMARK VINA RESULT:    -6.975      2.034      3.590
REMARK INTER + INTRA:         -10.783
REMARK INTER:                  -9.735
REMARK INTRA:                  -1.048
REMARK UNBOUND:                -0.954
REMARK  Name = 
REMARK  7 active torsions:
REMARK  status: ('A' for Active; 'I' for Inactive)
REMARK    1  A    between atoms: C_2  and  C_19
REMARK    2  A    between atoms: N_3  and  C_4
REMARK    3  A    between atoms: C_4  and  C_5
REMARK    4  A    between atoms: C_8  and  C_9
REMARK    5  A    between atoms: C_9  and  O_10
REMARK    6  A    between atoms: O_10  and  C_11
REMARK    7  A    between atoms: C_11  and  C_12
REMARK                            x       y       z     vdW  Elec       q    Type
REMARK                         _______ _______ _______ _____ _____    ______ ____
ROOT
ATOM      1  C   UNL     1      46.962   4.452  14.894  0.00  0.00    +0.000 C 
ENDROOT
BRANCH   1   2
ATOM      2  C   UNL     1      46.157   4.473  13.620  0.00  0.00    +0.000 A 
ATOM      3  C   UNL     1      45.866   3.276  12.956  0.00  0.00    +0.000 A 
ATOM      4  C   UNL     1      45.129   3.281  11.772  0.00  0.00    +0.000 A 
ATOM      5  C   UNL     1      44.675   4.488  11.226  0.00  0.00    +0.000 A 
ATOM      6  C   UNL     1      44.973   5.688  11.883  0.00  0.00    +0.000 A 
ATOM      7  C   UNL     1      45.714   5.682  13.066  0.00  0.00    +0.000 A 
BRANCH   5   8
ATOM      8  C   UNL     1      43.835   4.490   9.973  0.00  0.00    +0.000 C 
BRANCH   8   9
ATOM      9  O   UNL     1      44.358   3.612   8.973  0.00  0.00    +0.000 OA
BRANCH   9  10
ATOM     10  C   UNL     1      45.443   4.210   8.250  0.00  0.00    +0.000 C 
BRANCH  10  11
ATOM     11  C   UNL     1      46.307   3.120   7.725  0.00  0.00    +0.000 A 
ATOM     12  N   UNL     1      46.243   1.841   8.040  0.00  0.00    +0.000 NA
ATOM     13  C   UNL     1      47.237   1.232   7.320  0.00  0.00    +0.000 A 
ATOM     14  C   UNL     1      47.911   2.148   6.547  0.00  0.00    +0.000 A 
ATOM     15  N   UNL     1      47.319   3.346   6.825  0.00  0.00    +0.000 N 
ATOM     16  H   UNL     1      47.555   4.258   6.456  0.00  0.00    +0.000 HD
ENDBRANCH  10  11
ENDBRANCH   9  10
ENDBRANCH   8   9
ENDBRANCH   5   8
ENDBRANCH   1   2
BRANCH   1  19
ATOM     17  O   UNL     1      49.114   4.937  16.657  0.00  0.00    +0.000 OA
ATOM     18  C   UNL     1      48.690   5.852  15.958  0.00  0.00    +0.000 C 
ATOM     19  N   UNL     1      47.609   5.716  15.126  0.00  0.00    +0.000 N 
ATOM     20  H   UNL     1      47.436   6.430  14.430  0.00  0.00    +0.000 HD
BRANCH  18  21
ATOM     21  C   UNL     1      49.277   7.194  16.015  0.00  0.00    +0.000 A 
ATOM     22  C   UNL     1      49.427   7.843  17.232  0.00  0.00    +0.000 A 
ATOM     23  S   UNL     1      50.094   9.408  17.089  0.00  0.00    +0.000 S 
ATOM     24  C   UNL     1      50.246   9.251  15.400  0.00  0.00    +0.000 A 
ATOM     25  N   UNL     1      50.773  10.251  14.645  0.00  0.00    +0.000 NA
ATOM     26  C   UNL     1      50.862   9.976  13.385  0.00  0.00    +0.000 A 
ATOM     27  N   UNL     1      50.470   8.799  12.810  0.00  0.00    +0.000 N 
ATOM     28  C   UNL     1      49.868   7.785  13.522  0.00  0.00    +0.000 A 
ATOM     29  O   UNL     1      49.411   6.800  12.954  0.00  0.00    +0.000 OA
ATOM     30  C   UNL     1      49.777   8.030  14.951  0.00  0.00    +0.000 A 
ATOM     31  H   UNL     1      50.540   8.655  11.817  0.00  0.00    +0.000 HD
ENDBRANCH  18  21
ENDBRANCH   1  19
TORSDOF 7
ENDMDL
MODEL 6
REMARK VINA RESULT:    -6.773      1.955      3.257
REMARK INTER + INTRA:         -10.498
REMARK INTER:                  -9.576
REMARK INTRA:                  -0.923
REMARK UNBOUND:                -0.954
REMARK  Name = 
REMARK  7 active torsions:
REMARK  status: ('A' for Active; 'I' for Inactive)
REMARK    1  A    between atoms: C_2  and  C_19
REMARK    2  A    between atoms: N_3  and  C_4
REMARK    3  A    between atoms: C_4  and  C_5
REMARK    4  A    between atoms: C_8  and  C_9
REMARK    5  A    between atoms: C_9  and  O_10
REMARK    6  A    between atoms: O_10  and  C_11
REMARK    7  A    between atoms: C_11  and  C_12
REMARK                            x       y       z     vdW  Elec       q    Type
REMARK                         _______ _______ _______ _____ _____    ______ ____
ROOT
ATOM      1  C   UNL     1      47.106   3.692  14.919  0.00  0.00    +0.000 C 
ENDROOT
BRANCH   1   2
ATOM      2  C   UNL     1      46.564   4.170  13.596  0.00  0.00    +0.000 A 
ATOM      3  C   UNL     1      46.872   5.456  13.137  0.00  0.00    +0.000 A 
ATOM      4  C   UNL     1      46.372   5.914  11.918  0.00  0.00    +0.000 A 
ATOM      5  C   UNL     1      45.548   5.094  11.138  0.00  0.00    +0.000 A 
ATOM      6  C   UNL     1      45.230   3.811  11.600  0.00  0.00    +0.000 A 
ATOM      7  C   UNL     1      45.728   3.354  12.821  0.00  0.00    +0.000 A 
BRANCH   5   8
ATOM      8  C   UNL     1      45.047   5.571   9.797  0.00  0.00    +0.000 C 
BRANCH   8   9
ATOM      9  O   UNL     1      45.835   5.062   8.718  0.00  0.00    +0.000 OA
BRANCH   9  10
ATOM     10  C   UNL     1      45.198   3.955   8.066  0.00  0.00    +0.000 C 
BRANCH  10  11
ATOM     11  C   UNL     1      46.256   3.018   7.602  0.00  0.00    +0.000 A 
ATOM     12  N   UNL     1      46.340   1.729   7.865  0.00  0.00    +0.000 NA
ATOM     13  C   UNL     1      47.478   1.296   7.237  0.00  0.00    +0.000 A 
ATOM     14  C   UNL     1      48.093   2.331   6.573  0.00  0.00    +0.000 A 
ATOM     15  N   UNL     1      47.313   3.423   6.824  0.00  0.00    +0.000 N 
ATOM     16  H   UNL     1      47.456   4.375   6.514  0.00  0.00    +0.000 HD
ENDBRANCH  10  11
ENDBRANCH   9  10
ENDBRANCH   8   9
ENDBRANCH   5   8
ENDBRANCH   1   2
BRANCH   1  19
ATOM     17  O   UNL     1      48.414   3.576  17.419  0.00  0.00    +0.000 OA
ATOM     18  C   UNL     1      48.020   4.658  16.996  0.00  0.00    +0.000 C 
ATOM     19  N   UNL     1      47.320   4.791  15.823  0.00  0.00    +0.000 N 
ATOM     20  H   UNL     1      47.205   5.714  15.426  0.00  0.00    +0.000 HD
BRANCH  18  21
ATOM     21  C   UNL     1      48.215   5.895  17.757  0.00  0.00    +0.000 A 
ATOM     22  C   UNL     1      47.657   6.038  19.019  0.00  0.00    +0.000 A 
ATOM     23  S   UNL     1      47.963   7.559  19.729  0.00  0.00    +0.000 S 
ATOM     24  C   UNL     1      48.891   8.060  18.391  0.00  0.00    +0.000 A 
ATOM     25  N   UNL     1      49.473   9.289  18.359  0.00  0.00    +0.000 NA
ATOM     26  C   UNL     1      50.178   9.516  17.300  0.00  0.00    +0.000 A 
ATOM     27  N   UNL     1      50.351   8.633  16.269  0.00  0.00    +0.000 N 
ATOM     28  C   UNL     1      49.725   7.407  16.224  0.00  0.00    +0.000 A 
ATOM     29  O   UNL     1      49.796   6.698  15.228  0.00  0.00    +0.000 OA
ATOM     30  C   UNL     1      48.949   7.088  17.410  0.00  0.00    +0.000 A 
ATOM     31  H   UNL     1      50.890   8.880  15.456  0.00  0.00    +0.000 HD
ENDBRANCH  18  21
ENDBRANCH   1  19
TORSDOF 7
ENDMDL
MODEL 7
REMARK VINA RESULT:    -6.706      3.430      8.205
REMARK INTER + INTRA:         -10.403
REMARK INTER:                  -9.174
REMARK INTRA:                  -1.230
REMARK UNBOUND:                -0.954
REMARK  Name = 
REMARK  7 active torsions:
REMARK  status: ('A' for Active; 'I' for Inactive)
REMARK    1  A    between atoms: C_2  and  C_19
REMARK    2  A    between atoms: N_3  and  C_4
REMARK    3  A    between atoms: C_4  and  C_5
REMARK    4  A    between atoms: C_8  and  C_9
REMARK    5  A    between atoms: C_9  and  O_10
REMARK    6  A    between atoms: O_10  and  C_11
REMARK    7  A    between atoms: C_11  and  C_12
REMARK                            x       y       z     vdW  Elec       q    Type
REMARK                         _______ _______ _______ _____ _____    ______ ____
ROOT
ATOM      1  C   UNL     1      48.224   8.130  12.193  0.00  0.00    +0.000 C 
ENDROOT
BRANCH   1   2
ATOM      2  C   UNL     1      48.403   8.013  13.685  0.00  0.00    +0.000 A 
ATOM      3  C   UNL     1      48.777   6.789  14.251  0.00  0.00    +0.000 A 
ATOM      4  C   UNL     1      48.940   6.664  15.631  0.00  0.00    +0.000 A 
ATOM      5  C   UNL     1      48.723   7.762  16.472  0.00  0.00    +0.000 A 
ATOM      6  C   UNL     1      48.339   8.986  15.908  0.00  0.00    +0.000 A 
ATOM      7  C   UNL     1      48.173   9.109  14.528  0.00  0.00    +0.000 A 
BRANCH   5   8
ATOM      8  C   UNL     1      48.947   7.640  17.958  0.00  0.00    +0.000 C 
BRANCH   8   9
ATOM      9  O   UNL     1      47.817   7.074  18.627  0.00  0.00    +0.000 OA
BRANCH   9  10
ATOM     10  C   UNL     1      48.191   5.979  19.474  0.00  0.00    +0.000 C 
BRANCH  10  11
ATOM     11  C   UNL     1      48.212   4.742  18.649  0.00  0.00    +0.000 A 
ATOM     12  N   UNL     1      49.263   3.992  18.379  0.00  0.00    +0.000 NA
ATOM     13  C   UNL     1      48.798   2.978  17.582  0.00  0.00    +0.000 A 
ATOM     14  C   UNL     1      47.445   3.103  17.372  0.00  0.00    +0.000 A 
ATOM     15  N   UNL     1      47.088   4.236  18.044  0.00  0.00    +0.000 N 
ATOM     16  H   UNL     1      46.171   4.660  18.107  0.00  0.00    +0.000 HD
ENDBRANCH  10  11
ENDBRANCH   9  10
ENDBRANCH   8   9
ENDBRANCH   5   8
ENDBRANCH   1   2
BRANCH   1  19
ATOM     17  O   UNL     1      45.440   7.958  11.747  0.00  0.00    +0.000 OA
ATOM     18  C   UNL     1      46.162   7.020  11.421  0.00  0.00    +0.000 C 
ATOM     19  N   UNL     1      47.512   6.998  11.661  0.00  0.00    +0.000 N 
ATOM     20  H   UNL     1      48.080   6.305  11.192  0.00  0.00    +0.000 HD
BRANCH  18  21
ATOM     21  C   UNL     1      45.612   5.811  10.800  0.00  0.00    +0.000 A 
ATOM     22  C   UNL     1      45.849   5.542   9.460  0.00  0.00    +0.000 A 
ATOM     23  S   UNL     1      45.097   4.111   8.912  0.00  0.00    +0.000 S 
ATOM     24  C   UNL     1      44.468   3.782  10.461  0.00  0.00    +0.000 A 
ATOM     25  N   UNL     1      43.720   2.670  10.694  0.00  0.00    +0.000 NA
ATOM     26  C   UNL     1      43.344   2.531  11.923  0.00  0.00    +0.000 A 
ATOM     27  N   UNL     1      43.640   3.400  12.937  0.00  0.00    +0.000 N 
ATOM     28  C   UNL     1      44.333   4.573  12.735  0.00  0.00    +0.000 A 
ATOM     29  O   UNL     1      44.467   5.391  13.638  0.00  0.00    +0.000 OA
ATOM     30  C   UNL     1      44.811   4.760  11.376  0.00  0.00    +0.000 A 
ATOM     31  H   UNL     1      43.294   3.251  13.869  0.00  0.00    +0.000 HD
ENDBRANCH  18  21
ENDBRANCH   1  19
TORSDOF 7
ENDMDL
MODEL 8
REMARK VINA RESULT:    -6.676      2.348      3.158
REMARK INTER + INTRA:         -10.361
REMARK INTER:                  -9.603
REMARK INTRA:                  -0.758
REMARK UNBOUND:                -0.954
REMARK  Name = 
REMARK  7 active torsions:
REMARK  status: ('A' for Active; 'I' for Inactive)
REMARK    1  A    between atoms: C_2  and  C_19
REMARK    2  A    between atoms: N_3  and  C_4
REMARK    3  A    between atoms: C_4  and  C_5
REMARK    4  A    between atoms: C_8  and  C_9
REMARK    5  A    between atoms: C_9  and  O_10
REMARK    6  A    between atoms: O_10  and  C_11
REMARK    7  A    between atoms: C_11  and  C_12
REMARK                            x       y       z     vdW  Elec       q    Type
REMARK                         _______ _______ _______ _____ _____    ______ ____
ROOT
ATOM      1  C   UNL     1      47.157   4.393  14.695  0.00  0.00    +0.000 C 
ENDROOT
BRANCH   1   2
ATOM      2  C   UNL     1      46.317   4.453  13.445  0.00  0.00    +0.000 A 
ATOM      3  C   UNL     1      45.768   3.280  12.914  0.00  0.00    +0.000 A 
ATOM      4  C   UNL     1      44.995   3.319  11.754  0.00  0.00    +0.000 A 
ATOM      5  C   UNL     1      44.762   4.534  11.099  0.00  0.00    +0.000 A 
ATOM      6  C   UNL     1      45.319   5.708  11.623  0.00  0.00    +0.000 A 
ATOM      7  C   UNL     1      46.095   5.668  12.782  0.00  0.00    +0.000 A 
BRANCH   5   8
ATOM      8  C   UNL     1      43.885   4.584   9.873  0.00  0.00    +0.000 C 
BRANCH   8   9
ATOM      9  O   UNL     1      44.405   3.784   8.807  0.00  0.00    +0.000 OA
BRANCH   9  10
ATOM     10  C   UNL     1      45.656   4.288   8.321  0.00  0.00    +0.000 C 
BRANCH  10  11
ATOM     11  C   UNL     1      46.407   3.156   7.715  0.00  0.00    +0.000 A 
ATOM     12  N   UNL     1      46.359   1.891   8.083  0.00  0.00    +0.000 NA
ATOM     13  C   UNL     1      47.221   1.230   7.247  0.00  0.00    +0.000 A 
ATOM     14  C   UNL     1      47.796   2.101   6.352  0.00  0.00    +0.000 A 
ATOM     15  N   UNL     1      47.281   3.324   6.669  0.00  0.00    +0.000 N 
ATOM     16  H   UNL     1      47.482   4.216   6.237  0.00  0.00    +0.000 HD
ENDBRANCH  10  11
ENDBRANCH   9  10
ENDBRANCH   8   9
ENDBRANCH   5   8
ENDBRANCH   1   2
BRANCH   1  19
ATOM     17  O   UNL     1      49.241   5.018  16.495  0.00  0.00    +0.000 OA
ATOM     18  C   UNL     1      48.615   5.928  15.960  0.00  0.00    +0.000 C 
ATOM     19  N   UNL     1      47.549   5.709  15.126  0.00  0.00    +0.000 N 
ATOM     20  H   UNL     1      47.207   6.475  14.559  0.00  0.00    +0.000 HD
BRANCH  18  21
ATOM     21  C   UNL     1      48.925   7.334  16.232  0.00  0.00    +0.000 A 
ATOM     22  C   UNL     1      49.616   8.092  15.297  0.00  0.00    +0.000 A 
ATOM     23  S   UNL     1      49.915   9.693  15.809  0.00  0.00    +0.000 S 
ATOM     24  C   UNL     1      49.091   9.438  17.277  0.00  0.00    +0.000 A 
ATOM     25  N   UNL     1      48.961  10.434  18.194  0.00  0.00    +0.000 NA
ATOM     26  C   UNL     1      48.278  10.107  19.241  0.00  0.00    +0.000 A 
ATOM     27  N   UNL     1      47.718   8.879  19.460  0.00  0.00    +0.000 N 
ATOM     28  C   UNL     1      47.882   7.820  18.596  0.00  0.00    +0.000 A 
ATOM     29  O   UNL     1      47.478   6.699  18.885  0.00  0.00    +0.000 OA
ATOM     30  C   UNL     1      48.612   8.144  17.383  0.00  0.00    +0.000 A 
ATOM     31  H   UNL     1      47.220   8.677  20.311  0.00  0.00    +0.000 HD
ENDBRANCH  18  21
ENDBRANCH   1  19
TORSDOF 7
ENDMDL
MODEL 9
REMARK VINA RESULT:    -6.633      2.836      8.423
REMARK INTER + INTRA:         -10.301
REMARK INTER:                  -9.154
REMARK INTRA:                  -1.146
REMARK UNBOUND:                -0.954
REMARK  Name = 
REMARK  7 active torsions:
REMARK  status: ('A' for Active; 'I' for Inactive)
REMARK    1  A    between atoms: C_2  and  C_19
REMARK    2  A    between atoms: N_3  and  C_4
REMARK    3  A    between atoms: C_4  and  C_5
REMARK    4  A    between atoms: C_8  and  C_9
REMARK    5  A    between atoms: C_9  and  O_10
REMARK    6  A    between atoms: O_10  and  C_11
REMARK    7  A    between atoms: C_11  and  C_12
REMARK                            x       y       z     vdW  Elec       q    Type
REMARK                         _______ _______ _______ _____ _____    ______ ____
ROOT
ATOM      1  C   UNL     1      47.638   7.839  11.887  0.00  0.00    +0.000 C 
ENDROOT
BRANCH   1   2
ATOM      2  C   UNL     1      48.289   7.962  13.241  0.00  0.00    +0.000 A 
ATOM      3  C   UNL     1      47.705   8.765  14.228  0.00  0.00    +0.000 A 
ATOM      4  C   UNL     1      48.300   8.894  15.483  0.00  0.00    +0.000 A 
ATOM      5  C   UNL     1      49.497   8.226  15.771  0.00  0.00    +0.000 A 
ATOM      6  C   UNL     1      50.088   7.430  14.781  0.00  0.00    +0.000 A 
ATOM      7  C   UNL     1      49.494   7.304  13.525  0.00  0.00    +0.000 A 
BRANCH   5   8
ATOM      8  C   UNL     1      50.114   8.325  17.143  0.00  0.00    +0.000 C 
BRANCH   8   9
ATOM      9  O   UNL     1      50.228   7.048  17.775  0.00  0.00    +0.000 OA
BRANCH   9  10
ATOM     10  C   UNL     1      48.992   6.635  18.374  0.00  0.00    +0.000 C 
BRANCH  10  11
ATOM     11  C   UNL     1      48.586   5.345  17.755  0.00  0.00    +0.000 A 
ATOM     12  N   UNL     1      49.189   4.180  17.890  0.00  0.00    +0.000 NA
ATOM     13  C   UNL     1      48.464   3.298  17.134  0.00  0.00    +0.000 A 
ATOM     14  C   UNL     1      47.398   3.928  16.537  0.00  0.00    +0.000 A 
ATOM     15  N   UNL     1      47.495   5.232  16.929  0.00  0.00    +0.000 N 
ATOM     16  H   UNL     1      46.893   6.005  16.676  0.00  0.00    +0.000 HD
ENDBRANCH  10  11
ENDBRANCH   9  10
ENDBRANCH   8   9
ENDBRANCH   5   8
ENDBRANCH   1   2
BRANCH   1  19
ATOM     17  O   UNL     1      44.836   7.659  11.575  0.00  0.00    +0.000 OA
ATOM     18  C   UNL     1      45.509   6.633  11.576  0.00  0.00    +0.000 C 
ATOM     19  N   UNL     1      46.864   6.630  11.786  0.00  0.00    +0.000 N 
ATOM     20  H   UNL     1      47.390   5.792  11.573  0.00  0.00    +0.000 HD
BRANCH  18  21
ATOM     21  C   UNL     1      44.893   5.313  11.415  0.00  0.00    +0.000 A 
ATOM     22  C   UNL     1      44.137   4.763  12.441  0.00  0.00    +0.000 A 
ATOM     23  S   UNL     1      43.534   3.208  12.080  0.00  0.00    +0.000 S 
ATOM     24  C   UNL     1      44.227   3.238  10.524  0.00  0.00    +0.000 A 
ATOM     25  N   UNL     1      44.075   2.194   9.666  0.00  0.00    +0.000 NA
ATOM     26  C   UNL     1      44.620   2.374   8.508  0.00  0.00    +0.000 A 
ATOM     27  N   UNL     1      45.307   3.495   8.131  0.00  0.00    +0.000 N 
ATOM     28  C   UNL     1      45.548   4.546   8.987  0.00  0.00    +0.000 A 
ATOM     29  O   UNL     1      46.277   5.474   8.659  0.00  0.00    +0.000 OA
ATOM     30  C   UNL     1      44.923   4.410  10.292  0.00  0.00    +0.000 A 
ATOM     31  H   UNL     1      45.735   3.564   7.223  0.00  0.00    +0.000 HD
ENDBRANCH  18  21
ENDBRANCH   1  19
TORSDOF 7
ENDMDL
