MODEL 1
REMARK VINA RESULT:    -7.793      0.000      0.000
REMARK INTER + INTRA:         -11.367
REMARK INTER:                 -10.527
REMARK INTRA:                  -0.840
REMARK UNBOUND:                -0.840
REMARK  Name = 
REMARK  7 active torsions:
REMARK  status: ('A' for Active; 'I' for Inactive)
REMARK    1  A    between atoms: N_1  and  C_2
REMARK    2  A    between atoms: C_2  and  C_3
REMARK    3  A    between atoms: C_6  and  O_7
REMARK    4  A    between atoms: O_7  and  C_8
REMARK    5  A    between atoms: C_8  and  C_9
REMARK    6  A    between atoms: C_12  and  C_13
REMARK    7  A    between atoms: C_13  and  O_15
REMARK                            x       y       z     vdW  Elec       q    Type
REMARK                         _______ _______ _______ _____ _____    ______ ____
ROOT
ATOM      1  C   UNL     1      43.532   4.108  11.235  0.00  0.00    +0.000 C 
ENDROOT
BRANCH   1   2
ATOM      2  C   UNL     1      44.754   4.603  11.977  0.00  0.00    +0.000 A 
ATOM      3  C   UNL     1      45.097   5.963  11.922  0.00  0.00    +0.000 A 
ATOM      4  C   UNL     1      46.186   6.454  12.651  0.00  0.00    +0.000 A 
ATOM      5  C   UNL     1      46.945   5.595  13.457  0.00  0.00    +0.000 A 
ATOM      6  C   UNL     1      46.597   4.247  13.511  0.00  0.00    +0.000 A 
ATOM      7  F   UNL     1      47.297   3.396  14.275  0.00  0.00    +0.000 F 
ATOM      8  C   UNL     1      45.513   3.750  12.790  0.00  0.00    +0.000 A 
BRANCH   5   9
ATOM      9  C   UNL     1      48.080   6.168  14.225  0.00  0.00    +0.000 C 
ATOM     10  O   UNL     1      49.087   6.584  13.673  0.00  0.00    +0.000 OA
BRANCH   9  11
ATOM     11  O   UNL     1      47.929   6.208  15.564  0.00  0.00    +0.000 OA
ATOM     12  H   UNL     1      48.757   6.249  16.083  0.00  0.00    +0.000 HD
ENDBRANCH   9  11
ENDBRANCH   5   9
ENDBRANCH   1   2
BRANCH   1  13
ATOM     13  O   UNL     1      43.658   4.367   9.836  0.00  0.00    +0.000 OA
BRANCH  13  17
ATOM     14  C   UNL     1      46.566   2.291   7.657  0.00  0.00    +0.000 A 
ATOM     15  C   UNL     1      45.719   1.576   8.514  0.00  0.00    +0.000 A 
ATOM     16  C   UNL     1      44.730   2.229   9.256  0.00  0.00    +0.000 A 
ATOM     17  C   UNL     1      44.576   3.611   9.158  0.00  0.00    +0.000 A 
ATOM     18  C   UNL     1      45.413   4.329   8.301  0.00  0.00    +0.000 A 
ATOM     19  C   UNL     1      46.402   3.678   7.557  0.00  0.00    +0.000 A 
BRANCH  14  20
ATOM     20  C   UNL     1      47.652   1.582   6.889  0.00  0.00    +0.000 C 
BRANCH  20  21
ATOM     21  N   UNL     1      48.622   2.519   6.335  0.00  0.00    +0.000 NA
ATOM     22  H   UNL     1      49.184   2.902   7.092  0.00  0.00    +0.000 HD
ATOM     23  H   UNL     1      48.119   3.305   5.924  0.00  0.00    +0.000 HD
ENDBRANCH  20  21
ENDBRANCH  14  20
ENDBRANCH  13  17
ENDBRANCH   1  13
TORSDOF 7
ENDMDL
MODEL 2
REMARK VINA RESULT:    -7.634      3.197      6.339
REMARK INTER + INTRA:         -11.152
REMARK INTER:                 -10.485
REMARK INTRA:                  -0.667
REMARK UNBOUND:                -0.840
REMARK  Name = 
REMARK  7 active torsions:
REMARK  status: ('A' for Active; 'I' for Inactive)
REMARK    1  A    between atoms: N_1  and  C_2
REMARK    2  A    between atoms: C_2  and  C_3
REMARK    3  A    between atoms: C_6  and  O_7
REMARK    4  A    between atoms: O_7  and  C_8
REMARK    5  A    between atoms: C_8  and  C_9
REMARK    6  A    between atoms: C_12  and  C_13
REMARK    7  A    between atoms: C_13  and  O_15
REMARK                            x       y       z     vdW  Elec       q    Type
REMARK                         _______ _______ _______ _____ _____    ______ ____
ROOT
ATOM      1  C   UNL     1      43.710   3.781  10.526  0.00  0.00    +0.000 C 
ENDROOT
BRANCH   1   2
ATOM      2  C   UNL     1      44.668   3.379   9.426  0.00  0.00    +0.000 A 
ATOM      3  C   UNL     1      45.266   4.369   8.630  0.00  0.00    +0.000 A 
ATOM      4  C   UNL     1      46.202   4.024   7.648  0.00  0.00    +0.000 A 
ATOM      5  C   UNL     1      46.565   2.685   7.452  0.00  0.00    +0.000 A 
ATOM      6  C   UNL     1      45.971   1.708   8.249  0.00  0.00    +0.000 A 
ATOM      7  F   UNL     1      46.297   0.416   8.094  0.00  0.00    +0.000 F 
ATOM      8  C   UNL     1      45.039   2.043   9.230  0.00  0.00    +0.000 A 
BRANCH   5   9
ATOM      9  C   UNL     1      47.576   2.373   6.410  0.00  0.00    +0.000 C 
ATOM     10  O   UNL     1      48.431   1.517   6.577  0.00  0.00    +0.000 OA
BRANCH   9  11
ATOM     11  O   UNL     1      47.489   3.086   5.269  0.00  0.00    +0.000 OA
ATOM     12  H   UNL     1      48.273   3.047   4.683  0.00  0.00    +0.000 HD
ENDBRANCH   9  11
ENDBRANCH   5   9
ENDBRANCH   1   2
BRANCH   1  13
ATOM     13  O   UNL     1      44.233   3.416  11.803  0.00  0.00    +0.000 OA
BRANCH  13  17
ATOM     14  C   UNL     1      47.130   5.845  13.599  0.00  0.00    +0.000 A 
ATOM     15  C   UNL     1      46.096   6.446  12.867  0.00  0.00    +0.000 A 
ATOM     16  C   UNL     1      45.105   5.673  12.255  0.00  0.00    +0.000 A 
ATOM     17  C   UNL     1      45.134   4.283  12.361  0.00  0.00    +0.000 A 
ATOM     18  C   UNL     1      46.157   3.678  13.095  0.00  0.00    +0.000 A 
ATOM     19  C   UNL     1      47.149   4.450  13.708  0.00  0.00    +0.000 A 
BRANCH  14  20
ATOM     20  C   UNL     1      48.213   6.687  14.223  0.00  0.00    +0.000 C 
BRANCH  20  21
ATOM     21  N   UNL     1      49.415   6.719  13.398  0.00  0.00    +0.000 NA
ATOM     22  H   UNL     1      49.145   6.835  12.424  0.00  0.00    +0.000 HD
ATOM     23  H   UNL     1      49.880   5.815  13.463  0.00  0.00    +0.000 HD
ENDBRANCH  20  21
ENDBRANCH  14  20
ENDBRANCH  13  17
ENDBRANCH   1  13
TORSDOF 7
ENDMDL
MODEL 3
REMARK VINA RESULT:    -7.480      1.234      2.076
REMARK INTER + INTRA:         -10.944
REMARK INTER:                 -10.193
REMARK INTRA:                  -0.751
REMARK UNBOUND:                -0.840
REMARK  Name = 
REMARK  7 active torsions:
REMARK  status: ('A' for Active; 'I' for Inactive)
REMARK    1  A    between atoms: N_1  and  C_2
REMARK    2  A    between atoms: C_2  and  C_3
REMARK    3  A    between atoms: C_6  and  O_7
REMARK    4  A    between atoms: O_7  and  C_8
REMARK    5  A    between atoms: C_8  and  C_9
REMARK    6  A    between atoms: C_12  and  C_13
REMARK    7  A    between atoms: C_13  and  O_15
REMARK                            x       y       z     vdW  Elec       q    Type
REMARK                         _______ _______ _______ _____ _____    ______ ____
ROOT
ATOM      1  C   UNL     1      43.603   4.415  11.211  0.00  0.00    +0.000 C 
ENDROOT
BRANCH   1   2
ATOM      2  C   UNL     1      44.837   4.945  11.909  0.00  0.00    +0.000 A 
ATOM      3  C   UNL     1      45.566   4.105  12.765  0.00  0.00    +0.000 A 
ATOM      4  C   UNL     1      46.744   4.554  13.372  0.00  0.00    +0.000 A 
ATOM      5  C   UNL     1      47.220   5.848  13.125  0.00  0.00    +0.000 A 
ATOM      6  C   UNL     1      46.495   6.675  12.269  0.00  0.00    +0.000 A 
ATOM      7  F   UNL     1      46.923   7.919  12.005  0.00  0.00    +0.000 F 
ATOM      8  C   UNL     1      45.321   6.235  11.660  0.00  0.00    +0.000 A 
BRANCH   5   9
ATOM      9  C   UNL     1      48.485   6.271  13.778  0.00  0.00    +0.000 C 
ATOM     10  O   UNL     1      48.610   6.283  14.993  0.00  0.00    +0.000 OA
BRANCH   9  11
ATOM     11  O   UNL     1      49.486   6.634  12.952  0.00  0.00    +0.000 OA
ATOM     12  H   UNL     1      50.157   5.945  12.769  0.00  0.00    +0.000 HD
ENDBRANCH   9  11
ENDBRANCH   5   9
ENDBRANCH   1   2
BRANCH   1  13
ATOM     13  O   UNL     1      43.692   4.631   9.803  0.00  0.00    +0.000 OA
BRANCH  13  17
ATOM     14  C   UNL     1      46.365   2.069   7.852  0.00  0.00    +0.000 A 
ATOM     15  C   UNL     1      46.428   3.444   7.591  0.00  0.00    +0.000 A 
ATOM     16  C   UNL     1      45.557   4.336   8.224  0.00  0.00    +0.000 A 
ATOM     17  C   UNL     1      44.604   3.866   9.127  0.00  0.00    +0.000 A 
ATOM     18  C   UNL     1      44.541   2.497   9.397  0.00  0.00    +0.000 A 
ATOM     19  C   UNL     1      45.411   1.603   8.765  0.00  0.00    +0.000 A 
BRANCH  14  20
ATOM     20  C   UNL     1      47.284   1.113   7.135  0.00  0.00    +0.000 C 
BRANCH  20  21
ATOM     21  N   UNL     1      48.328   1.817   6.399  0.00  0.00    +0.000 NA
ATOM     22  H   UNL     1      48.991   2.213   7.062  0.00  0.00    +0.000 HD
ATOM     23  H   UNL     1      47.906   2.604   5.907  0.00  0.00    +0.000 HD
ENDBRANCH  20  21
ENDBRANCH  14  20
ENDBRANCH  13  17
ENDBRANCH   1  13
TORSDOF 7
ENDMDL
MODEL 4
REMARK VINA RESULT:    -7.474      3.207      6.383
REMARK INTER + INTRA:         -10.936
REMARK INTER:                 -10.387
REMARK INTRA:                  -0.549
REMARK UNBOUND:                -0.840
REMARK  Name = 
REMARK  7 active torsions:
REMARK  status: ('A' for Active; 'I' for Inactive)
REMARK    1  A    between atoms: N_1  and  C_2
REMARK    2  A    between atoms: C_2  and  C_3
REMARK    3  A    between atoms: C_6  and  O_7
REMARK    4  A    between atoms: O_7  and  C_8
REMARK    5  A    between atoms: C_8  and  C_9
REMARK    6  A    between atoms: C_12  and  C_13
REMARK    7  A    between atoms: C_13  and  O_15
REMARK                            x       y       z     vdW  Elec       q    Type
REMARK                         _______ _______ _______ _____ _____    ______ ____
ROOT
ATOM      1  C   UNL     1      43.686   4.816   9.985  0.00  0.00    +0.000 C 
ENDROOT
BRANCH   1   2
ATOM      2  C   UNL     1      44.637   3.856   9.305  0.00  0.00    +0.000 A 
ATOM      3  C   UNL     1      44.483   2.474   9.497  0.00  0.00    +0.000 A 
ATOM      4  C   UNL     1      45.311   1.565   8.830  0.00  0.00    +0.000 A 
ATOM      5  C   UNL     1      46.302   2.021   7.951  0.00  0.00    +0.000 A 
ATOM      6  C   UNL     1      46.447   3.394   7.761  0.00  0.00    +0.000 A 
ATOM      7  F   UNL     1      47.380   3.869   6.923  0.00  0.00    +0.000 F 
ATOM      8  C   UNL     1      45.624   4.306   8.420  0.00  0.00    +0.000 A 
BRANCH   5   9
ATOM      9  C   UNL     1      47.144   1.016   7.253  0.00  0.00    +0.000 C 
ATOM     10  O   UNL     1      47.884   1.323   6.331  0.00  0.00    +0.000 OA
BRANCH   9  11
ATOM     11  O   UNL     1      47.047  -0.252   7.702  0.00  0.00    +0.000 OA
ATOM     12  H   UNL     1      47.662  -0.494   8.423  0.00  0.00    +0.000 HD
ENDBRANCH   9  11
ENDBRANCH   5   9
ENDBRANCH   1   2
BRANCH   1  13
ATOM     13  O   UNL     1      43.755   4.670  11.403  0.00  0.00    +0.000 OA
BRANCH  13  17
ATOM     14  C   UNL     1      47.160   6.028  13.422  0.00  0.00    +0.000 A 
ATOM     15  C   UNL     1      46.610   6.821  12.406  0.00  0.00    +0.000 A 
ATOM     16  C   UNL     1      45.470   6.408  11.710  0.00  0.00    +0.000 A 
ATOM     17  C   UNL     1      44.864   5.190  12.015  0.00  0.00    +0.000 A 
ATOM     18  C   UNL     1      45.403   4.398  13.031  0.00  0.00    +0.000 A 
ATOM     19  C   UNL     1      46.543   4.809  13.729  0.00  0.00    +0.000 A 
BRANCH  14  20
ATOM     20  C   UNL     1      48.411   6.467  14.141  0.00  0.00    +0.000 C 
BRANCH  20  21
ATOM     21  N   UNL     1      49.496   6.753  13.209  0.00  0.00    +0.000 NA
ATOM     22  H   UNL     1      49.513   6.034  12.489  0.00  0.00    +0.000 HD
ATOM     23  H   UNL     1      50.382   6.683  13.708  0.00  0.00    +0.000 HD
ENDBRANCH  20  21
ENDBRANCH  14  20
ENDBRANCH  13  17
ENDBRANCH   1  13
TORSDOF 7
ENDMDL
MODEL 5
REMARK VINA RESULT:    -6.732      1.727      2.434
REMARK INTER + INTRA:          -9.934
REMARK INTER:                  -9.494
REMARK INTRA:                  -0.441
REMARK UNBOUND:                -0.840
REMARK  Name = 
REMARK  7 active torsions:
REMARK  status: ('A' for Active; 'I' for Inactive)
REMARK    1  A    between atoms: N_1  and  C_2
REMARK    2  A    between atoms: C_2  and  C_3
REMARK    3  A    between atoms: C_6  and  O_7
REMARK    4  A    between atoms: O_7  and  C_8
REMARK    5  A    between atoms: C_8  and  C_9
REMARK    6  A    between atoms: C_12  and  C_13
REMARK    7  A    between atoms: C_13  and  O_15
REMARK                            x       y       z     vdW  Elec       q    Type
REMARK                         _______ _______ _______ _____ _____    ______ ____
ROOT
ATOM      1  C   UNL     1      45.364   6.100  10.641  0.00  0.00    +0.000 C 
ENDROOT
BRANCH   1   2
ATOM      2  C   UNL     1      45.891   5.614  11.973  0.00  0.00    +0.000 A 
ATOM      3  C   UNL     1      45.324   4.479  12.573  0.00  0.00    +0.000 A 
ATOM      4  C   UNL     1      45.836   3.976  13.774  0.00  0.00    +0.000 A 
ATOM      5  C   UNL     1      46.932   4.592  14.392  0.00  0.00    +0.000 A 
ATOM      6  C   UNL     1      47.494   5.716  13.789  0.00  0.00    +0.000 A 
ATOM      7  F   UNL     1      48.547   6.331  14.348  0.00  0.00    +0.000 F 
ATOM      8  C   UNL     1      46.991   6.223  12.592  0.00  0.00    +0.000 A 
BRANCH   5   9
ATOM      9  C   UNL     1      47.450   4.009  15.655  0.00  0.00    +0.000 C 
ATOM     10  O   UNL     1      47.199   4.503  16.744  0.00  0.00    +0.000 OA
BRANCH   9  11
ATOM     11  O   UNL     1      48.207   2.901  15.529  0.00  0.00    +0.000 OA
ATOM     12  H   UNL     1      49.174   3.037  15.596  0.00  0.00    +0.000 HD
ENDBRANCH   9  11
ENDBRANCH   5   9
ENDBRANCH   1   2
BRANCH   1  13
ATOM     13  O   UNL     1      44.532   5.107  10.040  0.00  0.00    +0.000 OA
BRANCH  13  17
ATOM     14  C   UNL     1      46.336   2.061   7.807  0.00  0.00    +0.000 A 
ATOM     15  C   UNL     1      46.584   3.396   7.461  0.00  0.00    +0.000 A 
ATOM     16  C   UNL     1      46.006   4.445   8.183  0.00  0.00    +0.000 A 
ATOM     17  C   UNL     1      45.165   4.175   9.262  0.00  0.00    +0.000 A 
ATOM     18  C   UNL     1      44.919   2.846   9.617  0.00  0.00    +0.000 A 
ATOM     19  C   UNL     1      45.497   1.796   8.896  0.00  0.00    +0.000 A 
BRANCH  14  20
ATOM     20  C   UNL     1      46.935   0.938   6.999  0.00  0.00    +0.000 C 
BRANCH  20  21
ATOM     21  N   UNL     1      46.869  -0.333   7.710  0.00  0.00    +0.000 NA
ATOM     22  H   UNL     1      45.952  -0.426   8.140  0.00  0.00    +0.000 HD
ATOM     23  H   UNL     1      47.546  -0.317   8.472  0.00  0.00    +0.000 HD
ENDBRANCH  20  21
ENDBRANCH  14  20
ENDBRANCH  13  17
ENDBRANCH   1  13
TORSDOF 7
ENDMDL
MODEL 6
REMARK VINA RESULT:    -5.650      4.119      7.885
REMARK INTER + INTRA:          -8.472
REMARK INTER:                  -7.946
REMARK INTRA:                  -0.526
REMARK UNBOUND:                -0.840
REMARK  Name = 
REMARK  7 active torsions:
REMARK  status: ('A' for Active; 'I' for Inactive)
REMARK    1  A    between atoms: N_1  and  C_2
REMARK    2  A    between atoms: C_2  and  C_3
REMARK    3  A    between atoms: C_6  and  O_7
REMARK    4  A    between atoms: O_7  and  C_8
REMARK    5  A    between atoms: C_8  and  C_9
REMARK    6  A    between atoms: C_12  and  C_13
REMARK    7  A    between atoms: C_13  and  O_15
REMARK                            x       y       z     vdW  Elec       q    Type
REMARK                         _______ _______ _______ _____ _____    ______ ____
ROOT
ATOM      1  C   UNL     1      47.536   6.754  13.978  0.00  0.00    +0.000 C 
ENDROOT
BRANCH   1   2
ATOM      2  C   UNL     1      46.680   6.072  12.934  0.00  0.00    +0.000 A 
ATOM      3  C   UNL     1      46.714   6.522  11.605  0.00  0.00    +0.000 A 
ATOM      4  C   UNL     1      45.978   5.868  10.611  0.00  0.00    +0.000 A 
ATOM      5  C   UNL     1      45.203   4.744  10.926  0.00  0.00    +0.000 A 
ATOM      6  C   UNL     1      45.178   4.298  12.247  0.00  0.00    +0.000 A 
ATOM      7  F   UNL     1      44.451   3.223  12.586  0.00  0.00    +0.000 F 
ATOM      8  C   UNL     1      45.909   4.944  13.242  0.00  0.00    +0.000 A 
BRANCH   5   9
ATOM      9  C   UNL     1      44.455   4.073   9.833  0.00  0.00    +0.000 C 
ATOM     10  O   UNL     1      44.672   2.913   9.520  0.00  0.00    +0.000 OA
BRANCH   9  11
ATOM     11  O   UNL     1      43.519   4.819   9.212  0.00  0.00    +0.000 OA
ATOM     12  H   UNL     1      42.812   4.319   8.756  0.00  0.00    +0.000 HD
ENDBRANCH   9  11
ENDBRANCH   5   9
ENDBRANCH   1   2
BRANCH   1  13
ATOM     13  O   UNL     1      48.474   5.834  14.537  0.00  0.00    +0.000 OA
BRANCH  13  17
ATOM     14  C   UNL     1      48.302   5.391  18.695  0.00  0.00    +0.000 A 
ATOM     15  C   UNL     1      47.708   4.416  17.882  0.00  0.00    +0.000 A 
ATOM     16  C   UNL     1      47.746   4.522  16.488  0.00  0.00    +0.000 A 
ATOM     17  C   UNL     1      48.376   5.610  15.884  0.00  0.00    +0.000 A 
ATOM     18  C   UNL     1      48.976   6.581  16.688  0.00  0.00    +0.000 A 
ATOM     19  C   UNL     1      48.940   6.476  18.082  0.00  0.00    +0.000 A 
BRANCH  14  20
ATOM     20  C   UNL     1      48.222   5.284  20.197  0.00  0.00    +0.000 C 
BRANCH  20  21
ATOM     21  N   UNL     1      48.420   3.913  20.651  0.00  0.00    +0.000 NA
ATOM     22  H   UNL     1      47.519   3.517  20.913  0.00  0.00    +0.000 HD
ATOM     23  H   UNL     1      48.986   3.928  21.499  0.00  0.00    +0.000 HD
ENDBRANCH  20  21
ENDBRANCH  14  20
ENDBRANCH  13  17
ENDBRANCH   1  13
TORSDOF 7
ENDMDL
MODEL 7
REMARK VINA RESULT:    -5.488      4.122      7.487
REMARK INTER + INTRA:          -8.253
REMARK INTER:                  -7.714
REMARK INTRA:                  -0.540
REMARK UNBOUND:                -0.840
REMARK  Name = 
REMARK  7 active torsions:
REMARK  status: ('A' for Active; 'I' for Inactive)
REMARK    1  A    between atoms: N_1  and  C_2
REMARK    2  A    between atoms: C_2  and  C_3
REMARK    3  A    between atoms: C_6  and  O_7
REMARK    4  A    between atoms: O_7  and  C_8
REMARK    5  A    between atoms: C_8  and  C_9
REMARK    6  A    between atoms: C_12  and  C_13
REMARK    7  A    between atoms: C_13  and  O_15
REMARK                            x       y       z     vdW  Elec       q    Type
REMARK                         _______ _______ _______ _____ _____    ______ ____
ROOT
ATOM      1  C   UNL     1      47.915   5.874  15.061  0.00  0.00    +0.000 C 
ENDROOT
BRANCH   1   2
ATOM      2  C   UNL     1      47.016   5.621  13.871  0.00  0.00    +0.000 A 
ATOM      3  C   UNL     1      46.799   6.643  12.934  0.00  0.00    +0.000 A 
ATOM      4  C   UNL     1      46.022   6.412  11.794  0.00  0.00    +0.000 A 
ATOM      5  C   UNL     1      45.455   5.151  11.565  0.00  0.00    +0.000 A 
ATOM      6  C   UNL     1      45.678   4.139  12.497  0.00  0.00    +0.000 A 
ATOM      7  F   UNL     1      45.156   2.918  12.309  0.00  0.00    +0.000 F 
ATOM      8  C   UNL     1      46.452   4.361  13.634  0.00  0.00    +0.000 A 
BRANCH   5   9
ATOM      9  C   UNL     1      44.653   4.951  10.331  0.00  0.00    +0.000 C 
ATOM     10  O   UNL     1      43.447   4.763  10.370  0.00  0.00    +0.000 OA
BRANCH   9  11
ATOM     11  O   UNL     1      45.334   4.997   9.168  0.00  0.00    +0.000 OA
ATOM     12  H   UNL     1      46.309   5.012   9.248  0.00  0.00    +0.000 HD
ENDBRANCH   9  11
ENDBRANCH   5   9
ENDBRANCH   1   2
BRANCH   1  13
ATOM     13  O   UNL     1      47.662   4.920  16.092  0.00  0.00    +0.000 OA
BRANCH  13  17
ATOM     14  C   UNL     1      50.869   2.618  17.485  0.00  0.00    +0.000 A 
ATOM     15  C   UNL     1      50.943   4.015  17.577  0.00  0.00    +0.000 A 
ATOM     16  C   UNL     1      49.893   4.821  17.129  0.00  0.00    +0.000 A 
ATOM     17  C   UNL     1      48.751   4.244  16.575  0.00  0.00    +0.000 A 
ATOM     18  C   UNL     1      48.667   2.853  16.487  0.00  0.00    +0.000 A 
ATOM     19  C   UNL     1      49.716   2.044  16.936  0.00  0.00    +0.000 A 
BRANCH  14  20
ATOM     20  C   UNL     1      52.022   1.760  17.938  0.00  0.00    +0.000 C 
BRANCH  20  21
ATOM     21  N   UNL     1      51.649   0.353  18.019  0.00  0.00    +0.000 NA
ATOM     22  H   UNL     1      52.377  -0.209  17.583  0.00  0.00    +0.000 HD
ATOM     23  H   UNL     1      50.803   0.207  17.469  0.00  0.00    +0.000 HD
ENDBRANCH  20  21
ENDBRANCH  14  20
ENDBRANCH  13  17
ENDBRANCH   1  13
TORSDOF 7
ENDMDL
MODEL 8
REMARK VINA RESULT:    -5.480      3.504      7.000
REMARK INTER + INTRA:          -8.243
REMARK INTER:                  -7.772
REMARK INTRA:                  -0.471
REMARK UNBOUND:                -0.840
REMARK  Name = 
REMARK  7 active torsions:
REMARK  status: ('A' for Active; 'I' for Inactive)
REMARK    1  A    between atoms: N_1  and  C_2
REMARK    2  A    between atoms: C_2  and  C_3
REMARK    3  A    between atoms: C_6  and  O_7
REMARK    4  A    between atoms: O_7  and  C_8
REMARK    5  A    between atoms: C_8  and  C_9
REMARK    6  A    between atoms: C_12  and  C_13
REMARK    7  A    between atoms: C_13  and  O_15
REMARK                            x       y       z     vdW  Elec       q    Type
REMARK                         _______ _______ _______ _____ _____    ______ ____
ROOT
ATOM      1  C   UNL     1      44.944   4.887  13.233  0.00  0.00    +0.000 C 
ENDROOT
BRANCH   1   2
ATOM      2  C   UNL     1      45.095   4.579  11.760  0.00  0.00    +0.000 A 
ATOM      3  C   UNL     1      45.513   5.588  10.878  0.00  0.00    +0.000 A 
ATOM      4  C   UNL     1      45.720   5.310   9.522  0.00  0.00    +0.000 A 
ATOM      5  C   UNL     1      45.522   4.016   9.025  0.00  0.00    +0.000 A 
ATOM      6  C   UNL     1      45.112   3.017   9.906  0.00  0.00    +0.000 A 
ATOM      7  F   UNL     1      44.917   1.764   9.468  0.00  0.00    +0.000 F 
ATOM      8  C   UNL     1      44.905   3.285  11.258  0.00  0.00    +0.000 A 
BRANCH   5   9
ATOM      9  C   UNL     1      45.772   3.768   7.582  0.00  0.00    +0.000 C 
ATOM     10  O   UNL     1      45.025   3.075   6.908  0.00  0.00    +0.000 OA
BRANCH   9  11
ATOM     11  O   UNL     1      46.867   4.358   7.061  0.00  0.00    +0.000 OA
ATOM     12  H   UNL     1      46.794   4.636   6.126  0.00  0.00    +0.000 HD
ENDBRANCH   9  11
ENDBRANCH   5   9
ENDBRANCH   1   2
BRANCH   1  13
ATOM     13  O   UNL     1      45.854   4.103  14.004  0.00  0.00    +0.000 OA
BRANCH  13  17
ATOM     14  C   UNL     1      48.910   6.003  16.142  0.00  0.00    +0.000 A 
ATOM     15  C   UNL     1      48.563   6.489  14.873  0.00  0.00    +0.000 A 
ATOM     16  C   UNL     1      47.544   5.887  14.128  0.00  0.00    +0.000 A 
ATOM     17  C   UNL     1      46.859   4.785  14.636  0.00  0.00    +0.000 A 
ATOM     18  C   UNL     1      47.195   4.300  15.903  0.00  0.00    +0.000 A 
ATOM     19  C   UNL     1      48.212   4.901  16.651  0.00  0.00    +0.000 A 
BRANCH  14  20
ATOM     20  C   UNL     1      50.034   6.637  16.921  0.00  0.00    +0.000 C 
BRANCH  20  21
ATOM     21  N   UNL     1      50.536   7.838  16.263  0.00  0.00    +0.000 NA
ATOM     22  H   UNL     1      51.458   7.645  15.880  0.00  0.00    +0.000 HD
ATOM     23  H   UNL     1      50.661   8.567  16.964  0.00  0.00    +0.000 HD
ENDBRANCH  20  21
ENDBRANCH  14  20
ENDBRANCH  13  17
ENDBRANCH   1  13
TORSDOF 7
ENDMDL
MODEL 9
REMARK VINA RESULT:    -5.424      4.272      8.139
REMARK INTER + INTRA:          -8.167
REMARK INTER:                  -7.685
REMARK INTRA:                  -0.482
REMARK UNBOUND:                -0.840
REMARK  Name = 
REMARK  7 active torsions:
REMARK  status: ('A' for Active; 'I' for Inactive)
REMARK    1  A    between atoms: N_1  and  C_2
REMARK    2  A    between atoms: C_2  and  C_3
REMARK    3  A    between atoms: C_6  and  O_7
REMARK    4  A    between atoms: O_7  and  C_8
REMARK    5  A    between atoms: C_8  and  C_9
REMARK    6  A    between atoms: C_12  and  C_13
REMARK    7  A    between atoms: C_13  and  O_15
REMARK                            x       y       z     vdW  Elec       q    Type
REMARK                         _______ _______ _______ _____ _____    ______ ____
ROOT
ATOM      1  C   UNL     1      47.628   6.704  14.023  0.00  0.00    +0.000 C 
ENDROOT
BRANCH   1   2
ATOM      2  C   UNL     1      46.703   5.877  13.158  0.00  0.00    +0.000 A 
ATOM      3  C   UNL     1      45.963   4.831  13.734  0.00  0.00    +0.000 A 
ATOM      4  C   UNL     1      45.055   4.093  12.967  0.00  0.00    +0.000 A 
ATOM      5  C   UNL     1      44.861   4.394  11.613  0.00  0.00    +0.000 A 
ATOM      6  C   UNL     1      45.594   5.436  11.048  0.00  0.00    +0.000 A 
ATOM      7  F   UNL     1      45.432   5.757   9.755  0.00  0.00    +0.000 F 
ATOM      8  C   UNL     1      46.500   6.177  11.805  0.00  0.00    +0.000 A 
BRANCH   5   9
ATOM      9  C   UNL     1      43.873   3.593  10.846  0.00  0.00    +0.000 C 
ATOM     10  O   UNL     1      44.145   3.099   9.763  0.00  0.00    +0.000 OA
BRANCH   9  11
ATOM     11  O   UNL     1      42.662   3.441  11.420  0.00  0.00    +0.000 OA
ATOM     12  H   UNL     1      42.661   3.008  12.298  0.00  0.00    +0.000 HD
ENDBRANCH   9  11
ENDBRANCH   5   9
ENDBRANCH   1   2
BRANCH   1  13
ATOM     13  O   UNL     1      48.589   5.869  14.669  0.00  0.00    +0.000 OA
BRANCH  13  17
ATOM     14  C   UNL     1      48.437   5.527  18.838  0.00  0.00    +0.000 A 
ATOM     15  C   UNL     1      48.691   6.782  18.267  0.00  0.00    +0.000 A 
ATOM     16  C   UNL     1      48.745   6.942  16.879  0.00  0.00    +0.000 A 
ATOM     17  C   UNL     1      48.551   5.846  16.038  0.00  0.00    +0.000 A 
ATOM     18  C   UNL     1      48.291   4.595  16.600  0.00  0.00    +0.000 A 
ATOM     19  C   UNL     1      48.235   4.433  17.988  0.00  0.00    +0.000 A 
BRANCH  14  20
ATOM     20  C   UNL     1      48.417   5.359  20.336  0.00  0.00    +0.000 C 
BRANCH  20  21
ATOM     21  N   UNL     1      48.356   3.954  20.721  0.00  0.00    +0.000 NA
ATOM     22  H   UNL     1      49.165   3.470  20.337  0.00  0.00    +0.000 HD
ATOM     23  H   UNL     1      47.535   3.532  20.289  0.00  0.00    +0.000 HD
ENDBRANCH  20  21
ENDBRANCH  14  20
ENDBRANCH  13  17
ENDBRANCH   1  13
TORSDOF 7
ENDMDL
