MODEL 1
REMARK VINA RESULT:    -8.851      0.000      0.000
REMARK INTER + INTRA:         -12.086
REMARK INTER:                 -11.438
REMARK INTRA:                  -0.648
REMARK UNBOUND:                -0.648
REMARK  Name = 
REMARK  5 active torsions:
REMARK  status: ('A' for Active; 'I' for Inactive)
REMARK    1  A    between atoms: C_2  and  C_4
REMARK    2  A    between atoms: C_7  and  O_8
REMARK    3  A    between atoms: O_8  and  C_9
REMARK    4  A    between atoms: C_9  and  C_10
REMARK    5  A    between atoms: C_14  and  C_15
REMARK                            x       y       z     vdW  Elec       q    Type
REMARK                         _______ _______ _______ _____ _____    ______ ____
ROOT
ATOM      1  C   UNL     1      43.519   4.312  11.132  0.00  0.00    +0.000 C 
ENDROOT
BRANCH   1   2
ATOM      2  C   UNL     1      44.758   4.701  11.895  0.00  0.00    +0.000 A 
ATOM      3  C   UNL     1      45.303   3.845  12.842  0.00  0.00    +0.000 A 
ATOM      4  N   UNL     1      46.421   4.116  13.549  0.00  0.00    +0.000 NA
ATOM      5  C   UNL     1      47.026   5.301  13.292  0.00  0.00    +0.000 A 
ATOM      6  C   UNL     1      46.602   6.235  12.343  0.00  0.00    +0.000 A 
ATOM      7  C   UNL     1      45.445   5.890  11.632  0.00  0.00    +0.000 A 
BRANCH   6   8
ATOM      8  C   UNL     1      47.308   7.512  12.115  0.00  0.00    +0.000 A 
ATOM      9  C   UNL     1      48.680   7.549  11.801  0.00  0.00    +0.000 A 
ATOM     10  C   UNL     1      49.357   8.758  11.622  0.00  0.00    +0.000 A 
ATOM     11  C   UNL     1      48.671   9.961  11.733  0.00  0.00    +0.000 A 
ATOM     12  C   UNL     1      47.313   9.944  12.020  0.00  0.00    +0.000 A 
ATOM     13  F   UNL     1      46.647  11.101  12.121  0.00  0.00    +0.000 F 
ATOM     14  C   UNL     1      46.636   8.744  12.210  0.00  0.00    +0.000 A 
ENDBRANCH   6   8
ENDBRANCH   1   2
BRANCH   1  15
ATOM     15  O   UNL     1      43.639   4.691   9.753  0.00  0.00    +0.000 OA
BRANCH  15  19
ATOM     16  C   UNL     1      46.335   2.299   7.770  0.00  0.00    +0.000 A 
ATOM     17  C   UNL     1      45.428   1.719   8.660  0.00  0.00    +0.000 A 
ATOM     18  C   UNL     1      44.517   2.537   9.330  0.00  0.00    +0.000 A 
ATOM     19  C   UNL     1      44.549   3.904   9.082  0.00  0.00    +0.000 A 
ATOM     20  N   UNL     1      45.420   4.488   8.233  0.00  0.00    +0.000 NA
ATOM     21  C   UNL     1      46.300   3.675   7.603  0.00  0.00    +0.000 A 
BRANCH  16  23
ATOM     22  N   UNL     1      48.437   2.198   6.562  0.00  0.00    +0.000 N 
ATOM     23  C   UNL     1      47.338   1.523   7.014  0.00  0.00    +0.000 C 
ATOM     24  O   UNL     1      47.209   0.320   6.836  0.00  0.00    +0.000 OA
ATOM     25  H   UNL     1      49.165   1.636   6.137  0.00  0.00    +0.000 HD
ATOM     26  H   UNL     1      48.690   3.116   6.897  0.00  0.00    +0.000 HD
ENDBRANCH  16  23
ENDBRANCH  15  19
ENDBRANCH   1  15
TORSDOF 5
ENDMDL
MODEL 2
REMARK VINA RESULT:    -8.782      1.635      1.826
REMARK INTER + INTRA:         -11.998
REMARK INTER:                 -11.183
REMARK INTRA:                  -0.815
REMARK UNBOUND:                -0.648
REMARK  Name = 
REMARK  5 active torsions:
REMARK  status: ('A' for Active; 'I' for Inactive)
REMARK    1  A    between atoms: C_2  and  C_4
REMARK    2  A    between atoms: C_7  and  O_8
REMARK    3  A    between atoms: O_8  and  C_9
REMARK    4  A    between atoms: C_9  and  C_10
REMARK    5  A    between atoms: C_14  and  C_15
REMARK                            x       y       z     vdW  Elec       q    Type
REMARK                         _______ _______ _______ _____ _____    ______ ____
ROOT
ATOM      1  C   UNL     1      43.776   5.182  10.660  0.00  0.00    +0.000 C 
ENDROOT
BRANCH   1   2
ATOM      2  C   UNL     1      44.830   5.145  11.734  0.00  0.00    +0.000 A 
ATOM      3  C   UNL     1      44.751   4.226  12.771  0.00  0.00    +0.000 A 
ATOM      4  N   UNL     1      45.668   4.120  13.756  0.00  0.00    +0.000 NA
ATOM      5  C   UNL     1      46.719   4.972  13.698  0.00  0.00    +0.000 A 
ATOM      6  C   UNL     1      46.936   5.919  12.693  0.00  0.00    +0.000 A 
ATOM      7  C   UNL     1      45.958   5.971  11.692  0.00  0.00    +0.000 A 
BRANCH   6   8
ATOM      8  C   UNL     1      48.104   6.823  12.692  0.00  0.00    +0.000 A 
ATOM      9  C   UNL     1      48.473   7.548  11.543  0.00  0.00    +0.000 A 
ATOM     10  C   UNL     1      49.600   8.373  11.530  0.00  0.00    +0.000 A 
ATOM     11  C   UNL     1      50.376   8.509  12.674  0.00  0.00    +0.000 A 
ATOM     12  C   UNL     1      50.016   7.818  13.823  0.00  0.00    +0.000 A 
ATOM     13  F   UNL     1      50.756   7.950  14.930  0.00  0.00    +0.000 F 
ATOM     14  C   UNL     1      48.900   6.986  13.840  0.00  0.00    +0.000 A 
ENDBRANCH   6   8
ENDBRANCH   1   2
BRANCH   1  15
ATOM     15  O   UNL     1      43.528   3.863  10.152  0.00  0.00    +0.000 OA
BRANCH  15  19
ATOM     16  C   UNL     1      46.441   2.618   7.527  0.00  0.00    +0.000 A 
ATOM     17  C   UNL     1      45.893   1.702   8.429  0.00  0.00    +0.000 A 
ATOM     18  C   UNL     1      44.905   2.133   9.317  0.00  0.00    +0.000 A 
ATOM     19  C   UNL     1      44.506   3.462   9.267  0.00  0.00    +0.000 A 
ATOM     20  N   UNL     1      45.025   4.366   8.412  0.00  0.00    +0.000 NA
ATOM     21  C   UNL     1      45.988   3.928   7.567  0.00  0.00    +0.000 A 
BRANCH  16  23
ATOM     22  N   UNL     1      47.499   2.954   5.370  0.00  0.00    +0.000 N 
ATOM     23  C   UNL     1      47.490   2.265   6.550  0.00  0.00    +0.000 C 
ATOM     24  O   UNL     1      48.337   1.420   6.803  0.00  0.00    +0.000 OA
ATOM     25  H   UNL     1      48.282   2.776   4.753  0.00  0.00    +0.000 HD
ATOM     26  H   UNL     1      46.980   3.809   5.232  0.00  0.00    +0.000 HD
ENDBRANCH  16  23
ENDBRANCH  15  19
ENDBRANCH   1  15
TORSDOF 5
ENDMDL
MODEL 3
REMARK VINA RESULT:    -8.440      1.771      2.244
REMARK INTER + INTRA:         -11.555
REMARK INTER:                 -10.774
REMARK INTRA:                  -0.781
REMARK UNBOUND:                -0.648
REMARK  Name = 
REMARK  5 active torsions:
REMARK  status: ('A' for Active; 'I' for Inactive)
REMARK    1  A    between atoms: C_2  and  C_4
REMARK    2  A    between atoms: C_7  and  O_8
REMARK    3  A    between atoms: O_8  and  C_9
REMARK    4  A    between atoms: C_9  and  C_10
REMARK    5  A    between atoms: C_14  and  C_15
REMARK                            x       y       z     vdW  Elec       q    Type
REMARK                         _______ _______ _______ _____ _____    ______ ____
ROOT
ATOM      1  C   UNL     1      43.851   3.155  11.526  0.00  0.00    +0.000 C 
ENDROOT
BRANCH   1   2
ATOM      2  C   UNL     1      44.739   4.240  12.073  0.00  0.00    +0.000 A 
ATOM      3  C   UNL     1      45.815   3.928  12.894  0.00  0.00    +0.000 A 
ATOM      4  N   UNL     1      46.665   4.844  13.404  0.00  0.00    +0.000 NA
ATOM      5  C   UNL     1      46.431   6.137  13.073  0.00  0.00    +0.000 A 
ATOM      6  C   UNL     1      45.407   6.582  12.232  0.00  0.00    +0.000 A 
ATOM      7  C   UNL     1      44.568   5.583  11.722  0.00  0.00    +0.000 A 
BRANCH   6   8
ATOM      8  C   UNL     1      45.205   8.010  11.914  0.00  0.00    +0.000 A 
ATOM      9  C   UNL     1      46.062   9.006  12.421  0.00  0.00    +0.000 A 
ATOM     10  C   UNL     1      45.849  10.360  12.151  0.00  0.00    +0.000 A 
ATOM     11  C   UNL     1      44.784  10.750  11.349  0.00  0.00    +0.000 A 
ATOM     12  C   UNL     1      43.941   9.780  10.822  0.00  0.00    +0.000 A 
ATOM     13  F   UNL     1      42.918  10.150  10.043  0.00  0.00    +0.000 F 
ATOM     14  C   UNL     1      44.142   8.431  11.096  0.00  0.00    +0.000 A 
ENDBRANCH   6   8
ENDBRANCH   1   2
BRANCH   1  15
ATOM     15  O   UNL     1      43.480   3.445  10.170  0.00  0.00    +0.000 OA
BRANCH  15  19
ATOM     16  C   UNL     1      46.504   2.588   7.515  0.00  0.00    +0.000 A 
ATOM     17  C   UNL     1      45.992   3.887   7.577  0.00  0.00    +0.000 A 
ATOM     18  C   UNL     1      44.966   4.170   8.480  0.00  0.00    +0.000 A 
ATOM     19  C   UNL     1      44.492   3.142   9.285  0.00  0.00    +0.000 A 
ATOM     20  N   UNL     1      44.964   1.879   9.238  0.00  0.00    +0.000 NA
ATOM     21  C   UNL     1      45.952   1.627   8.348  0.00  0.00    +0.000 A 
BRANCH  16  23
ATOM     22  N   UNL     1      47.813   2.986   5.512  0.00  0.00    +0.000 N 
ATOM     23  C   UNL     1      47.586   2.186   6.596  0.00  0.00    +0.000 C 
ATOM     24  O   UNL     1      48.276   1.200   6.817  0.00  0.00    +0.000 OA
ATOM     25  H   UNL     1      48.622   2.758   4.947  0.00  0.00    +0.000 HD
ATOM     26  H   UNL     1      47.436   3.919   5.434  0.00  0.00    +0.000 HD
ENDBRANCH  16  23
ENDBRANCH  15  19
ENDBRANCH   1  15
TORSDOF 5
ENDMDL
MODEL 4
REMARK VINA RESULT:    -8.354      3.884      6.924
REMARK INTER + INTRA:         -11.444
REMARK INTER:                 -10.578
REMARK INTRA:                  -0.867
REMARK UNBOUND:                -0.648
REMARK  Name = 
REMARK  5 active torsions:
REMARK  status: ('A' for Active; 'I' for Inactive)
REMARK    1  A    between atoms: C_2  and  C_4
REMARK    2  A    between atoms: C_7  and  O_8
REMARK    3  A    between atoms: O_8  and  C_9
REMARK    4  A    between atoms: C_9  and  C_10
REMARK    5  A    between atoms: C_14  and  C_15
REMARK                            x       y       z     vdW  Elec       q    Type
REMARK                         _______ _______ _______ _____ _____    ______ ____
ROOT
ATOM      1  C   UNL     1      44.083   6.644  11.420  0.00  0.00    +0.000 C 
ENDROOT
BRANCH   1   2
ATOM      2  C   UNL     1      44.066   5.193  11.020  0.00  0.00    +0.000 A 
ATOM      3  C   UNL     1      43.216   4.294  11.650  0.00  0.00    +0.000 A 
ATOM      4  N   UNL     1      43.131   2.985  11.331  0.00  0.00    +0.000 NA
ATOM      5  C   UNL     1      43.934   2.554  10.328  0.00  0.00    +0.000 A 
ATOM      6  C   UNL     1      44.809   3.358   9.592  0.00  0.00    +0.000 A 
ATOM      7  C   UNL     1      44.841   4.709   9.960  0.00  0.00    +0.000 A 
BRANCH   6   8
ATOM      8  C   UNL     1      45.661   2.822   8.511  0.00  0.00    +0.000 A 
ATOM      9  C   UNL     1      46.181   3.655   7.502  0.00  0.00    +0.000 A 
ATOM     10  C   UNL     1      46.956   3.142   6.459  0.00  0.00    +0.000 A 
ATOM     11  C   UNL     1      47.246   1.784   6.410  0.00  0.00    +0.000 A 
ATOM     12  C   UNL     1      46.759   0.951   7.408  0.00  0.00    +0.000 A 
ATOM     13  F   UNL     1      47.041  -0.357   7.369  0.00  0.00    +0.000 F 
ATOM     14  C   UNL     1      45.979   1.454   8.444  0.00  0.00    +0.000 A 
ENDBRANCH   6   8
ENDBRANCH   1   2
BRANCH   1  15
ATOM     15  O   UNL     1      44.686   6.801  12.713  0.00  0.00    +0.000 OA
BRANCH  15  19
ATOM     16  C   UNL     1      48.718   7.573  12.451  0.00  0.00    +0.000 A 
ATOM     17  C   UNL     1      48.286   6.324  12.905  0.00  0.00    +0.000 A 
ATOM     18  C   UNL     1      46.916   6.070  12.992  0.00  0.00    +0.000 A 
ATOM     19  C   UNL     1      46.033   7.076  12.621  0.00  0.00    +0.000 A 
ATOM     20  N   UNL     1      46.425   8.292  12.188  0.00  0.00    +0.000 NA
ATOM     21  C   UNL     1      47.758   8.518  12.122  0.00  0.00    +0.000 A 
BRANCH  16  23
ATOM     22  N   UNL     1      50.906   7.875  13.455  0.00  0.00    +0.000 N 
ATOM     23  C   UNL     1      50.142   7.942  12.325  0.00  0.00    +0.000 C 
ATOM     24  O   UNL     1      50.624   8.255  11.245  0.00  0.00    +0.000 OA
ATOM     25  H   UNL     1      51.899   8.030  13.335  0.00  0.00    +0.000 HD
ATOM     26  H   UNL     1      50.605   7.394  14.290  0.00  0.00    +0.000 HD
ENDBRANCH  16  23
ENDBRANCH  15  19
ENDBRANCH   1  15
TORSDOF 5
ENDMDL
MODEL 5
REMARK VINA RESULT:    -8.092      2.880      3.947
REMARK INTER + INTRA:         -11.105
REMARK INTER:                 -10.611
REMARK INTRA:                  -0.494
REMARK UNBOUND:                -0.648
REMARK  Name = 
REMARK  5 active torsions:
REMARK  status: ('A' for Active; 'I' for Inactive)
REMARK    1  A    between atoms: C_2  and  C_4
REMARK    2  A    between atoms: C_7  and  O_8
REMARK    3  A    between atoms: O_8  and  C_9
REMARK    4  A    between atoms: C_9  and  C_10
REMARK    5  A    between atoms: C_14  and  C_15
REMARK                            x       y       z     vdW  Elec       q    Type
REMARK                         _______ _______ _______ _____ _____    ______ ____
ROOT
ATOM      1  C   UNL     1      44.089   3.464  11.519  0.00  0.00    +0.000 C 
ENDROOT
BRANCH   1   2
ATOM      2  C   UNL     1      44.954   4.552  12.099  0.00  0.00    +0.000 A 
ATOM      3  C   UNL     1      44.958   5.825  11.545  0.00  0.00    +0.000 A 
ATOM      4  N   UNL     1      45.690   6.853  12.023  0.00  0.00    +0.000 NA
ATOM      5  C   UNL     1      46.453   6.597  13.113  0.00  0.00    +0.000 A 
ATOM      6  C   UNL     1      46.514   5.374  13.787  0.00  0.00    +0.000 A 
ATOM      7  C   UNL     1      45.721   4.350  13.252  0.00  0.00    +0.000 A 
BRANCH   6   8
ATOM      8  C   UNL     1      47.370   5.160  14.971  0.00  0.00    +0.000 A 
ATOM      9  C   UNL     1      48.326   6.115  15.370  0.00  0.00    +0.000 A 
ATOM     10  C   UNL     1      49.162   5.896  16.467  0.00  0.00    +0.000 A 
ATOM     11  C   UNL     1      49.050   4.725  17.206  0.00  0.00    +0.000 A 
ATOM     12  C   UNL     1      48.099   3.782  16.840  0.00  0.00    +0.000 A 
ATOM     13  F   UNL     1      47.982   2.654  17.551  0.00  0.00    +0.000 F 
ATOM     14  C   UNL     1      47.270   3.988  15.741  0.00  0.00    +0.000 A 
ENDBRANCH   6   8
ENDBRANCH   1   2
BRANCH   1  15
ATOM     15  O   UNL     1      43.722   3.782  10.168  0.00  0.00    +0.000 OA
BRANCH  15  19
ATOM     16  C   UNL     1      46.590   2.611   7.460  0.00  0.00    +0.000 A 
ATOM     17  C   UNL     1      46.168   3.943   7.480  0.00  0.00    +0.000 A 
ATOM     18  C   UNL     1      45.193   4.333   8.401  0.00  0.00    +0.000 A 
ATOM     19  C   UNL     1      44.681   3.374   9.266  0.00  0.00    +0.000 A 
ATOM     20  N   UNL     1      45.066   2.081   9.261  0.00  0.00    +0.000 NA
ATOM     21  C   UNL     1      46.004   1.725   8.352  0.00  0.00    +0.000 A 
BRANCH  16  23
ATOM     22  N   UNL     1      47.864   2.843   5.409  0.00  0.00    +0.000 N 
ATOM     23  C   UNL     1      47.611   2.098   6.526  0.00  0.00    +0.000 C 
ATOM     24  O   UNL     1      48.231   1.071   6.763  0.00  0.00    +0.000 OA
ATOM     25  H   UNL     1      48.636   2.536   4.830  0.00  0.00    +0.000 HD
ATOM     26  H   UNL     1      47.555   3.799   5.309  0.00  0.00    +0.000 HD
ENDBRANCH  16  23
ENDBRANCH  15  19
ENDBRANCH   1  15
TORSDOF 5
ENDMDL
MODEL 6
REMARK VINA RESULT:    -8.005      3.839      7.331
REMARK INTER + INTRA:         -10.993
REMARK INTER:                 -10.366
REMARK INTRA:                  -0.627
REMARK UNBOUND:                -0.648
REMARK  Name = 
REMARK  5 active torsions:
REMARK  status: ('A' for Active; 'I' for Inactive)
REMARK    1  A    between atoms: C_2  and  C_4
REMARK    2  A    between atoms: C_7  and  O_8
REMARK    3  A    between atoms: O_8  and  C_9
REMARK    4  A    between atoms: C_9  and  C_10
REMARK    5  A    between atoms: C_14  and  C_15
REMARK                            x       y       z     vdW  Elec       q    Type
REMARK                         _______ _______ _______ _____ _____    ______ ____
ROOT
ATOM      1  C   UNL     1      44.050   6.580  11.441  0.00  0.00    +0.000 C 
ENDROOT
BRANCH   1   2
ATOM      2  C   UNL     1      44.051   5.128  11.043  0.00  0.00    +0.000 A 
ATOM      3  C   UNL     1      43.238   4.214  11.699  0.00  0.00    +0.000 A 
ATOM      4  N   UNL     1      43.170   2.903  11.385  0.00  0.00    +0.000 NA
ATOM      5  C   UNL     1      43.951   2.486  10.360  0.00  0.00    +0.000 A 
ATOM      6  C   UNL     1      44.787   3.306   9.596  0.00  0.00    +0.000 A 
ATOM      7  C   UNL     1      44.803   4.659   9.962  0.00  0.00    +0.000 A 
BRANCH   6   8
ATOM      8  C   UNL     1      45.618   2.786   8.491  0.00  0.00    +0.000 A 
ATOM      9  C   UNL     1      46.058   3.619   7.445  0.00  0.00    +0.000 A 
ATOM     10  C   UNL     1      46.811   3.119   6.380  0.00  0.00    +0.000 A 
ATOM     11  C   UNL     1      47.160   1.774   6.346  0.00  0.00    +0.000 A 
ATOM     12  C   UNL     1      46.753   0.942   7.380  0.00  0.00    +0.000 A 
ATOM     13  F   UNL     1      47.092  -0.353   7.355  0.00  0.00    +0.000 F 
ATOM     14  C   UNL     1      45.993   1.432   8.438  0.00  0.00    +0.000 A 
ENDBRANCH   6   8
ENDBRANCH   1   2
BRANCH   1  15
ATOM     15  O   UNL     1      45.266   7.217  11.021  0.00  0.00    +0.000 OA
BRANCH  15  19
ATOM     16  C   UNL     1      48.020   7.420  14.070  0.00  0.00    +0.000 A 
ATOM     17  C   UNL     1      47.138   8.485  13.869  0.00  0.00    +0.000 A 
ATOM     18  C   UNL     1      46.207   8.409  12.832  0.00  0.00    +0.000 A 
ATOM     19  C   UNL     1      46.195   7.270  12.037  0.00  0.00    +0.000 A 
ATOM     20  N   UNL     1      47.041   6.233  12.206  0.00  0.00    +0.000 NA
ATOM     21  C   UNL     1      47.941   6.335  13.211  0.00  0.00    +0.000 A 
BRANCH  16  23
ATOM     22  N   UNL     1      48.619   7.099  16.399  0.00  0.00    +0.000 N 
ATOM     23  C   UNL     1      49.041   7.403  15.136  0.00  0.00    +0.000 C 
ATOM     24  O   UNL     1      50.221   7.613  14.890  0.00  0.00    +0.000 OA
ATOM     25  H   UNL     1      49.342   6.989  17.099  0.00  0.00    +0.000 HD
ATOM     26  H   UNL     1      47.717   6.688  16.589  0.00  0.00    +0.000 HD
ENDBRANCH  16  23
ENDBRANCH  15  19
ENDBRANCH   1  15
TORSDOF 5
ENDMDL
MODEL 7
REMARK VINA RESULT:    -7.523      3.914      7.571
REMARK INTER + INTRA:         -10.370
REMARK INTER:                  -9.701
REMARK INTRA:                  -0.668
REMARK UNBOUND:                -0.648
REMARK  Name = 
REMARK  5 active torsions:
REMARK  status: ('A' for Active; 'I' for Inactive)
REMARK    1  A    between atoms: C_2  and  C_4
REMARK    2  A    between atoms: C_7  and  O_8
REMARK    3  A    between atoms: O_8  and  C_9
REMARK    4  A    between atoms: C_9  and  C_10
REMARK    5  A    between atoms: C_14  and  C_15
REMARK                            x       y       z     vdW  Elec       q    Type
REMARK                         _______ _______ _______ _____ _____    ______ ____
ROOT
ATOM      1  C   UNL     1      45.905   6.682  12.962  0.00  0.00    +0.000 C 
ENDROOT
BRANCH   1   2
ATOM      2  C   UNL     1      45.058   5.872  12.018  0.00  0.00    +0.000 A 
ATOM      3  C   UNL     1      43.673   5.904  12.105  0.00  0.00    +0.000 A 
ATOM      4  N   UNL     1      42.849   5.221  11.281  0.00  0.00    +0.000 NA
ATOM      5  C   UNL     1      43.441   4.472  10.319  0.00  0.00    +0.000 A 
ATOM      6  C   UNL     1      44.818   4.379  10.102  0.00  0.00    +0.000 A 
ATOM      7  C   UNL     1      45.619   5.122  10.979  0.00  0.00    +0.000 A 
BRANCH   6   8
ATOM      8  C   UNL     1      45.399   3.540   9.034  0.00  0.00    +0.000 A 
ATOM      9  C   UNL     1      45.499   2.142   9.169  0.00  0.00    +0.000 A 
ATOM     10  C   UNL     1      46.083   1.352   8.175  0.00  0.00    +0.000 A 
ATOM     11  C   UNL     1      46.563   1.940   7.012  0.00  0.00    +0.000 A 
ATOM     12  C   UNL     1      46.454   3.315   6.852  0.00  0.00    +0.000 A 
ATOM     13  F   UNL     1      46.909   3.886   5.730  0.00  0.00    +0.000 F 
ATOM     14  C   UNL     1      45.883   4.109   7.842  0.00  0.00    +0.000 A 
ENDBRANCH   6   8
ENDBRANCH   1   2
BRANCH   1  15
ATOM     15  O   UNL     1      47.249   6.177  12.990  0.00  0.00    +0.000 OA
BRANCH  15  19
ATOM     16  C   UNL     1      48.280   4.817  16.733  0.00  0.00    +0.000 A 
ATOM     17  C   UNL     1      47.313   4.130  15.996  0.00  0.00    +0.000 A 
ATOM     18  C   UNL     1      46.968   4.598  14.726  0.00  0.00    +0.000 A 
ATOM     19  C   UNL     1      47.604   5.735  14.246  0.00  0.00    +0.000 A 
ATOM     20  N   UNL     1      48.535   6.420  14.942  0.00  0.00    +0.000 NA
ATOM     21  C   UNL     1      48.845   5.953  16.174  0.00  0.00    +0.000 A 
BRANCH  16  23
ATOM     22  N   UNL     1      47.738   4.219  19.021  0.00  0.00    +0.000 N 
ATOM     23  C   UNL     1      48.714   4.406  18.083  0.00  0.00    +0.000 C 
ATOM     24  O   UNL     1      49.893   4.203  18.338  0.00  0.00    +0.000 OA
ATOM     25  H   UNL     1      48.038   3.838  19.910  0.00  0.00    +0.000 HD
ATOM     26  H   UNL     1      46.760   4.138  18.784  0.00  0.00    +0.000 HD
ENDBRANCH  16  23
ENDBRANCH  15  19
ENDBRANCH   1  15
TORSDOF 5
ENDMDL
MODEL 8
REMARK VINA RESULT:    -6.984      4.405      8.115
REMARK INTER + INTRA:          -9.673
REMARK INTER:                  -8.967
REMARK INTRA:                  -0.706
REMARK UNBOUND:                -0.648
REMARK  Name = 
REMARK  5 active torsions:
REMARK  status: ('A' for Active; 'I' for Inactive)
REMARK    1  A    between atoms: C_2  and  C_4
REMARK    2  A    between atoms: C_7  and  O_8
REMARK    3  A    between atoms: O_8  and  C_9
REMARK    4  A    between atoms: C_9  and  C_10
REMARK    5  A    between atoms: C_14  and  C_15
REMARK                            x       y       z     vdW  Elec       q    Type
REMARK                         _______ _______ _______ _____ _____    ______ ____
ROOT
ATOM      1  C   UNL     1      48.203   7.567  13.709  0.00  0.00    +0.000 C 
ENDROOT
BRANCH   1   2
ATOM      2  C   UNL     1      46.957   7.469  12.870  0.00  0.00    +0.000 A 
ATOM      3  C   UNL     1      46.060   8.528  12.809  0.00  0.00    +0.000 A 
ATOM      4  N   UNL     1      44.935   8.520  12.063  0.00  0.00    +0.000 NA
ATOM      5  C   UNL     1      44.696   7.400  11.340  0.00  0.00    +0.000 A 
ATOM      6  C   UNL     1      45.531   6.280  11.286  0.00  0.00    +0.000 A 
ATOM      7  C   UNL     1      46.690   6.354  12.069  0.00  0.00    +0.000 A 
BRANCH   6   8
ATOM      8  C   UNL     1      45.209   5.087  10.477  0.00  0.00    +0.000 A 
ATOM      9  C   UNL     1      44.476   4.011  11.012  0.00  0.00    +0.000 A 
ATOM     10  C   UNL     1      44.204   2.866  10.258  0.00  0.00    +0.000 A 
ATOM     11  C   UNL     1      44.643   2.778   8.943  0.00  0.00    +0.000 A 
ATOM     12  C   UNL     1      45.349   3.839   8.392  0.00  0.00    +0.000 A 
ATOM     13  F   UNL     1      45.768   3.763   7.123  0.00  0.00    +0.000 F 
ATOM     14  C   UNL     1      45.632   4.978   9.140  0.00  0.00    +0.000 A 
ENDBRANCH   6   8
ENDBRANCH   1   2
BRANCH   1  15
ATOM     15  O   UNL     1      48.730   6.260  13.980  0.00  0.00    +0.000 OA
BRANCH  15  19
ATOM     16  C   UNL     1      48.375   5.284  17.960  0.00  0.00    +0.000 A 
ATOM     17  C   UNL     1      49.197   6.350  17.586  0.00  0.00    +0.000 A 
ATOM     18  C   UNL     1      49.313   6.674  16.232  0.00  0.00    +0.000 A 
ATOM     19  C   UNL     1      48.602   5.919  15.308  0.00  0.00    +0.000 A 
ATOM     20  N   UNL     1      47.808   4.882  15.645  0.00  0.00    +0.000 NA
ATOM     21  C   UNL     1      47.720   4.580  16.962  0.00  0.00    +0.000 A 
BRANCH  16  23
ATOM     22  N   UNL     1      48.513   3.571  19.672  0.00  0.00    +0.000 N 
ATOM     23  C   UNL     1      48.186   4.860  19.362  0.00  0.00    +0.000 C 
ATOM     24  O   UNL     1      47.791   5.642  20.215  0.00  0.00    +0.000 OA
ATOM     25  H   UNL     1      48.477   3.322  20.653  0.00  0.00    +0.000 HD
ATOM     26  H   UNL     1      49.063   2.984  19.061  0.00  0.00    +0.000 HD
ENDBRANCH  16  23
ENDBRANCH  15  19
ENDBRANCH   1  15
TORSDOF 5
ENDMDL
MODEL 9
REMARK VINA RESULT:    -6.827      5.135      8.027
REMARK INTER + INTRA:          -9.471
REMARK INTER:                  -8.762
REMARK INTRA:                  -0.709
REMARK UNBOUND:                -0.648
REMARK  Name = 
REMARK  5 active torsions:
REMARK  status: ('A' for Active; 'I' for Inactive)
REMARK    1  A    between atoms: C_2  and  C_4
REMARK    2  A    between atoms: C_7  and  O_8
REMARK    3  A    between atoms: O_8  and  C_9
REMARK    4  A    between atoms: C_9  and  C_10
REMARK    5  A    between atoms: C_14  and  C_15
REMARK                            x       y       z     vdW  Elec       q    Type
REMARK                         _______ _______ _______ _____ _____    ______ ____
ROOT
ATOM      1  C   UNL     1      48.948   6.433  15.967  0.00  0.00    +0.000 C 
ENDROOT
BRANCH   1   2
ATOM      2  C   UNL     1      48.301   6.535  14.611  0.00  0.00    +0.000 A 
ATOM      3  C   UNL     1      48.830   7.369  13.636  0.00  0.00    +0.000 A 
ATOM      4  N   UNL     1      48.317   7.496  12.394  0.00  0.00    +0.000 NA
ATOM      5  C   UNL     1      47.223   6.749  12.111  0.00  0.00    +0.000 A 
ATOM      6  C   UNL     1      46.613   5.847  12.988  0.00  0.00    +0.000 A 
ATOM      7  C   UNL     1      47.200   5.748  14.256  0.00  0.00    +0.000 A 
BRANCH   6   8
ATOM      8  C   UNL     1      45.418   5.063  12.617  0.00  0.00    +0.000 A 
ATOM      9  C   UNL     1      45.466   3.662  12.492  0.00  0.00    +0.000 A 
ATOM     10  C   UNL     1      44.345   2.924  12.105  0.00  0.00    +0.000 A 
ATOM     11  C   UNL     1      43.141   3.569  11.851  0.00  0.00    +0.000 A 
ATOM     12  C   UNL     1      43.069   4.948  11.990  0.00  0.00    +0.000 A 
ATOM     13  F   UNL     1      41.910   5.574  11.753  0.00  0.00    +0.000 F 
ATOM     14  C   UNL     1      44.185   5.690  12.365  0.00  0.00    +0.000 A 
ENDBRANCH   6   8
ENDBRANCH   1   2
BRANCH   1  15
ATOM     15  O   UNL     1      48.385   5.342  16.711  0.00  0.00    +0.000 OA
BRANCH  15  19
ATOM     16  C   UNL     1      51.193   2.432  17.467  0.00  0.00    +0.000 A 
ATOM     17  C   UNL     1      51.501   3.768  17.734  0.00  0.00    +0.000 A 
ATOM     18  C   UNL     1      50.543   4.750  17.474  0.00  0.00    +0.000 A 
ATOM     19  C   UNL     1      49.315   4.355  16.958  0.00  0.00    +0.000 A 
ATOM     20  N   UNL     1      48.998   3.073  16.685  0.00  0.00    +0.000 NA
ATOM     21  C   UNL     1      49.946   2.140  16.936  0.00  0.00    +0.000 A 
BRANCH  16  23
ATOM     22  N   UNL     1      51.605   0.137  18.139  0.00  0.00    +0.000 N 
ATOM     23  C   UNL     1      52.134   1.320  17.705  0.00  0.00    +0.000 C 
ATOM     24  O   UNL     1      53.331   1.442  17.485  0.00  0.00    +0.000 OA
ATOM     25  H   UNL     1      52.245  -0.646  18.198  0.00  0.00    +0.000 HD
ATOM     26  H   UNL     1      50.618  -0.069  18.094  0.00  0.00    +0.000 HD
ENDBRANCH  16  23
ENDBRANCH  15  19
ENDBRANCH   1  15
TORSDOF 5
ENDMDL
