MODEL 1
REMARK VINA RESULT:    -7.928      0.000      0.000
REMARK INTER + INTRA:         -11.304
REMARK INTER:                 -10.477
REMARK INTRA:                  -0.828
REMARK UNBOUND:                -0.828
REMARK  Name = 
REMARK  7 active torsions:
REMARK  status: ('A' for Active; 'I' for Inactive)
REMARK    1  A    between atoms: C_1  and  O_2
REMARK    2  A    between atoms: O_2  and  C_3
REMARK    3  A    between atoms: C_6  and  O_7
REMARK    4  A    between atoms: O_7  and  C_8
REMARK    5  A    between atoms: C_8  and  C_9
REMARK    6  A    between atoms: C_12  and  C_13
REMARK    7  A    between atoms: C_17  and  O_18
REMARK                            x       y       z     vdW  Elec       q    Type
REMARK                         _______ _______ _______ _____ _____    ______ ____
ROOT
ATOM      1  C   UNL     1      44.724   3.940   9.303  0.00  0.00    +0.000 A 
ATOM      2  N   UNL     1      45.469   4.618   8.385  0.00  0.00    +0.000 NA
ATOM      3  C   UNL     1      46.317   3.904   7.606  0.00  0.00    +0.000 A 
ATOM      4  C   UNL     1      46.474   2.530   7.692  0.00  0.00    +0.000 A 
ATOM      5  C   UNL     1      45.683   1.844   8.620  0.00  0.00    +0.000 A 
ATOM      6  C   UNL     1      44.792   2.551   9.422  0.00  0.00    +0.000 A 
ENDROOT
BRANCH   4   7
ATOM      7  C   UNL     1      47.423   1.762   6.854  0.00  0.00    +0.000 C 
ATOM      8  N   UNL     1      48.563   2.371   6.401  0.00  0.00    +0.000 N 
ATOM      9  O   UNL     1      47.209   0.592   6.569  0.00  0.00    +0.000 OA
ATOM     10  H   UNL     1      48.855   3.315   6.604  0.00  0.00    +0.000 HD
ATOM     11  H   UNL     1      49.193   1.799   5.852  0.00  0.00    +0.000 HD
ENDBRANCH   4   7
BRANCH   6  12
ATOM     12  O   UNL     1      43.977   1.891  10.294  0.00  0.00    +0.000 OA
ATOM     13  H   UNL     1      43.426   2.537  10.771  0.00  0.00    +0.000 HD
ENDBRANCH   6  12
BRANCH   1  14
ATOM     14  C   UNL     1      43.777   4.770  10.138  0.00  0.00    +0.000 C 
BRANCH  14  15
ATOM     15  O   UNL     1      43.869   4.446  11.529  0.00  0.00    +0.000 OA
BRANCH  15  19
ATOM     16  C   UNL     1      47.314   5.668  13.564  0.00  0.00    +0.000 A 
ATOM     17  C   UNL     1      46.599   6.608  12.825  0.00  0.00    +0.000 A 
ATOM     18  C   UNL     1      45.442   6.237  12.135  0.00  0.00    +0.000 A 
ATOM     19  C   UNL     1      44.983   4.919  12.176  0.00  0.00    +0.000 A 
ATOM     20  C   UNL     1      45.694   3.979  12.923  0.00  0.00    +0.000 A 
ATOM     21  C   UNL     1      46.853   4.353  13.614  0.00  0.00    +0.000 A 
BRANCH  16  23
ATOM     22  C   UNL     1      49.055   7.202  14.053  0.00  0.00    +0.000 C 
ATOM     23  O   UNL     1      48.462   5.923  14.264  0.00  0.00    +0.000 OA
ENDBRANCH  16  23
ENDBRANCH  15  19
ENDBRANCH  14  15
ENDBRANCH   1  14
TORSDOF 6
ENDMDL
MODEL 2
REMARK VINA RESULT:    -7.398      2.256      6.375
REMARK INTER + INTRA:         -10.605
REMARK INTER:                  -9.812
REMARK INTRA:                  -0.792
REMARK UNBOUND:                -0.828
REMARK  Name = 
REMARK  7 active torsions:
REMARK  status: ('A' for Active; 'I' for Inactive)
REMARK    1  A    between atoms: C_1  and  O_2
REMARK    2  A    between atoms: O_2  and  C_3
REMARK    3  A    between atoms: C_6  and  O_7
REMARK    4  A    between atoms: O_7  and  C_8
REMARK    5  A    between atoms: C_8  and  C_9
REMARK    6  A    between atoms: C_12  and  C_13
REMARK    7  A    between atoms: C_17  and  O_18
REMARK                            x       y       z     vdW  Elec       q    Type
REMARK                         _______ _______ _______ _____ _____    ______ ____
ROOT
ATOM      1  C   UNL     1      44.837   4.245  11.905  0.00  0.00    +0.000 A 
ATOM      2  N   UNL     1      45.482   3.508  12.853  0.00  0.00    +0.000 NA
ATOM      3  C   UNL     1      46.481   4.106  13.546  0.00  0.00    +0.000 A 
ATOM      4  C   UNL     1      46.887   5.415  13.345  0.00  0.00    +0.000 A 
ATOM      5  C   UNL     1      46.196   6.167  12.388  0.00  0.00    +0.000 A 
ATOM      6  C   UNL     1      45.155   5.583  11.672  0.00  0.00    +0.000 A 
ENDROOT
BRANCH   4   7
ATOM      7  C   UNL     1      47.996   6.050  14.090  0.00  0.00    +0.000 C 
ATOM      8  N   UNL     1      47.938   6.111  15.457  0.00  0.00    +0.000 N 
ATOM      9  O   UNL     1      48.967   6.511  13.506  0.00  0.00    +0.000 OA
ATOM     10  H   UNL     1      47.207   5.734  16.040  0.00  0.00    +0.000 HD
ATOM     11  H   UNL     1      48.732   6.533  15.925  0.00  0.00    +0.000 HD
ENDBRANCH   4   7
BRANCH   6  12
ATOM     12  O   UNL     1      44.439   6.319  10.773  0.00  0.00    +0.000 OA
ATOM     13  H   UNL     1      45.045   6.900  10.281  0.00  0.00    +0.000 HD
ENDBRANCH   6  12
BRANCH   1  14
ATOM     14  C   UNL     1      43.717   3.548  11.168  0.00  0.00    +0.000 C 
BRANCH  14  15
ATOM     15  O   UNL     1      43.732   3.849   9.768  0.00  0.00    +0.000 OA
BRANCH  15  19
ATOM     16  C   UNL     1      46.720   2.067   7.445  0.00  0.00    +0.000 A 
ATOM     17  C   UNL     1      45.957   1.266   8.291  0.00  0.00    +0.000 A 
ATOM     18  C   UNL     1      44.948   1.825   9.079  0.00  0.00    +0.000 A 
ATOM     19  C   UNL     1      44.687   3.197   9.032  0.00  0.00    +0.000 A 
ATOM     20  C   UNL     1      45.447   3.998   8.178  0.00  0.00    +0.000 A 
ATOM     21  C   UNL     1      46.457   3.436   7.389  0.00  0.00    +0.000 A 
BRANCH  16  23
ATOM     22  C   UNL     1      47.914   2.318   5.412  0.00  0.00    +0.000 C 
ATOM     23  O   UNL     1      47.737   1.623   6.644  0.00  0.00    +0.000 OA
ENDBRANCH  16  23
ENDBRANCH  15  19
ENDBRANCH  14  15
ENDBRANCH   1  14
TORSDOF 6
ENDMDL
MODEL 3
REMARK VINA RESULT:    -7.283      2.011      6.175
REMARK INTER + INTRA:         -10.453
REMARK INTER:                  -9.832
REMARK INTRA:                  -0.620
REMARK UNBOUND:                -0.828
REMARK  Name = 
REMARK  7 active torsions:
REMARK  status: ('A' for Active; 'I' for Inactive)
REMARK    1  A    between atoms: C_1  and  O_2
REMARK    2  A    between atoms: O_2  and  C_3
REMARK    3  A    between atoms: C_6  and  O_7
REMARK    4  A    between atoms: O_7  and  C_8
REMARK    5  A    between atoms: C_8  and  C_9
REMARK    6  A    between atoms: C_12  and  C_13
REMARK    7  A    between atoms: C_17  and  O_18
REMARK                            x       y       z     vdW  Elec       q    Type
REMARK                         _______ _______ _______ _____ _____    ______ ____
ROOT
ATOM      1  C   UNL     1      44.736   4.877  11.363  0.00  0.00    +0.000 A 
ATOM      2  N   UNL     1      45.401   6.054  11.195  0.00  0.00    +0.000 NA
ATOM      3  C   UNL     1      46.323   6.398  12.127  0.00  0.00    +0.000 A 
ATOM      4  C   UNL     1      46.623   5.627  13.239  0.00  0.00    +0.000 A 
ATOM      5  C   UNL     1      45.952   4.408  13.383  0.00  0.00    +0.000 A 
ATOM      6  C   UNL     1      45.011   4.023  12.432  0.00  0.00    +0.000 A 
ENDROOT
BRANCH   4   7
ATOM      7  C   UNL     1      47.614   6.025  14.264  0.00  0.00    +0.000 C 
ATOM      8  N   UNL     1      47.871   7.354  14.469  0.00  0.00    +0.000 N 
ATOM      9  O   UNL     1      48.197   5.186  14.937  0.00  0.00    +0.000 OA
ATOM     10  H   UNL     1      47.425   8.127  13.999  0.00  0.00    +0.000 HD
ATOM     11  H   UNL     1      48.539   7.577  15.198  0.00  0.00    +0.000 HD
ENDBRANCH   4   7
BRANCH   6  12
ATOM     12  O   UNL     1      44.386   2.814  12.531  0.00  0.00    +0.000 OA
ATOM     13  H   UNL     1      43.790   2.825  13.300  0.00  0.00    +0.000 HD
ENDBRANCH   6  12
BRANCH   1  14
ATOM     14  C   UNL     1      43.730   4.520  10.293  0.00  0.00    +0.000 C 
BRANCH  14  15
ATOM     15  O   UNL     1      43.895   3.174   9.833  0.00  0.00    +0.000 OA
BRANCH  15  19
ATOM     16  C   UNL     1      47.042   2.315   7.215  0.00  0.00    +0.000 A 
ATOM     17  C   UNL     1      46.590   3.628   7.317  0.00  0.00    +0.000 A 
ATOM     18  C   UNL     1      45.544   3.954   8.184  0.00  0.00    +0.000 A 
ATOM     19  C   UNL     1      44.933   2.968   8.962  0.00  0.00    +0.000 A 
ATOM     20  C   UNL     1      45.391   1.653   8.866  0.00  0.00    +0.000 A 
ATOM     21  C   UNL     1      46.440   1.329   7.997  0.00  0.00    +0.000 A 
BRANCH  16  23
ATOM     22  C   UNL     1      47.959   2.296   5.029  0.00  0.00    +0.000 C 
ATOM     23  O   UNL     1      48.048   1.888   6.391  0.00  0.00    +0.000 OA
ENDBRANCH  16  23
ENDBRANCH  15  19
ENDBRANCH  14  15
ENDBRANCH   1  14
TORSDOF 6
ENDMDL
MODEL 4
REMARK VINA RESULT:    -7.156      1.701      2.268
REMARK INTER + INTRA:         -10.285
REMARK INTER:                  -9.544
REMARK INTRA:                  -0.742
REMARK UNBOUND:                -0.828
REMARK  Name = 
REMARK  7 active torsions:
REMARK  status: ('A' for Active; 'I' for Inactive)
REMARK    1  A    between atoms: C_1  and  O_2
REMARK    2  A    between atoms: O_2  and  C_3
REMARK    3  A    between atoms: C_6  and  O_7
REMARK    4  A    between atoms: O_7  and  C_8
REMARK    5  A    between atoms: C_8  and  C_9
REMARK    6  A    between atoms: C_12  and  C_13
REMARK    7  A    between atoms: C_17  and  O_18
REMARK                            x       y       z     vdW  Elec       q    Type
REMARK                         _______ _______ _______ _____ _____    ______ ____
ROOT
ATOM      1  C   UNL     1      44.651   3.733   9.443  0.00  0.00    +0.000 A 
ATOM      2  N   UNL     1      44.393   2.415   9.678  0.00  0.00    +0.000 NA
ATOM      3  C   UNL     1      45.138   1.498   9.015  0.00  0.00    +0.000 A 
ATOM      4  C   UNL     1      46.139   1.820   8.112  0.00  0.00    +0.000 A 
ATOM      5  C   UNL     1      46.410   3.176   7.903  0.00  0.00    +0.000 A 
ATOM      6  C   UNL     1      45.671   4.140   8.583  0.00  0.00    +0.000 A 
ENDROOT
BRANCH   4   7
ATOM      7  C   UNL     1      46.929   0.809   7.374  0.00  0.00    +0.000 C 
ATOM      8  N   UNL     1      46.716  -0.521   7.622  0.00  0.00    +0.000 N 
ATOM      9  O   UNL     1      47.761   1.143   6.542  0.00  0.00    +0.000 OA
ATOM     10  H   UNL     1      46.035  -0.907   8.257  0.00  0.00    +0.000 HD
ATOM     11  H   UNL     1      47.263  -1.175   7.074  0.00  0.00    +0.000 HD
ENDBRANCH   4   7
BRANCH   6  12
ATOM     12  O   UNL     1      45.959   5.465   8.428  0.00  0.00    +0.000 OA
ATOM     13  H   UNL     1      46.068   5.873   9.304  0.00  0.00    +0.000 HD
ENDBRANCH   6  12
BRANCH   1  14
ATOM     14  C   UNL     1      43.812   4.724  10.216  0.00  0.00    +0.000 C 
BRANCH  14  15
ATOM     15  O   UNL     1      44.601   5.799  10.736  0.00  0.00    +0.000 OA
BRANCH  15  19
ATOM     16  C   UNL     1      46.952   5.074  14.120  0.00  0.00    +0.000 A 
ATOM     17  C   UNL     1      45.670   4.532  14.062  0.00  0.00    +0.000 A 
ATOM     18  C   UNL     1      44.857   4.750  12.946  0.00  0.00    +0.000 A 
ATOM     19  C   UNL     1      45.317   5.515  11.871  0.00  0.00    +0.000 A 
ATOM     20  C   UNL     1      46.604   6.051  11.926  0.00  0.00    +0.000 A 
ATOM     21  C   UNL     1      47.417   5.830  13.045  0.00  0.00    +0.000 A 
BRANCH  16  23
ATOM     22  C   UNL     1      47.617   3.795  16.003  0.00  0.00    +0.000 C 
ATOM     23  O   UNL     1      47.821   4.931  15.168  0.00  0.00    +0.000 OA
ENDBRANCH  16  23
ENDBRANCH  15  19
ENDBRANCH  14  15
ENDBRANCH   1  14
TORSDOF 6
ENDMDL
MODEL 5
REMARK VINA RESULT:    -6.514      2.359      6.323
REMARK INTER + INTRA:          -9.436
REMARK INTER:                  -8.621
REMARK INTRA:                  -0.815
REMARK UNBOUND:                -0.828
REMARK  Name = 
REMARK  7 active torsions:
REMARK  status: ('A' for Active; 'I' for Inactive)
REMARK    1  A    between atoms: C_1  and  O_2
REMARK    2  A    between atoms: O_2  and  C_3
REMARK    3  A    between atoms: C_6  and  O_7
REMARK    4  A    between atoms: O_7  and  C_8
REMARK    5  A    between atoms: C_8  and  C_9
REMARK    6  A    between atoms: C_12  and  C_13
REMARK    7  A    between atoms: C_17  and  O_18
REMARK                            x       y       z     vdW  Elec       q    Type
REMARK                         _______ _______ _______ _____ _____    ______ ____
ROOT
ATOM      1  C   UNL     1      45.155   5.666  12.046  0.00  0.00    +0.000 A 
ATOM      2  N   UNL     1      46.084   5.033  12.816  0.00  0.00    +0.000 NA
ATOM      3  C   UNL     1      47.212   5.715  13.133  0.00  0.00    +0.000 A 
ATOM      4  C   UNL     1      47.476   7.010  12.718  0.00  0.00    +0.000 A 
ATOM      5  C   UNL     1      46.500   7.656  11.951  0.00  0.00    +0.000 A 
ATOM      6  C   UNL     1      45.325   6.985  11.624  0.00  0.00    +0.000 A 
ENDROOT
BRANCH   4   7
ATOM      7  C   UNL     1      48.722   7.736  13.049  0.00  0.00    +0.000 C 
ATOM      8  N   UNL     1      49.656   7.135  13.850  0.00  0.00    +0.000 N 
ATOM      9  O   UNL     1      48.935   8.858  12.611  0.00  0.00    +0.000 OA
ATOM     10  H   UNL     1      49.601   6.204  14.236  0.00  0.00    +0.000 HD
ATOM     11  H   UNL     1      50.504   7.661  14.029  0.00  0.00    +0.000 HD
ENDBRANCH   4   7
BRANCH   6  12
ATOM     12  O   UNL     1      44.342   7.619  10.920  0.00  0.00    +0.000 OA
ATOM     13  H   UNL     1      44.237   7.186  10.055  0.00  0.00    +0.000 HD
ENDBRANCH   6  12
BRANCH   1  14
ATOM     14  C   UNL     1      43.904   4.880  11.730  0.00  0.00    +0.000 C 
BRANCH  14  15
ATOM     15  O   UNL     1      43.634   4.848  10.324  0.00  0.00    +0.000 OA
BRANCH  15  19
ATOM     16  C   UNL     1      46.017   2.303   8.012  0.00  0.00    +0.000 A 
ATOM     17  C   UNL     1      45.154   1.747   8.953  0.00  0.00    +0.000 A 
ATOM     18  C   UNL     1      44.340   2.565   9.741  0.00  0.00    +0.000 A 
ATOM     19  C   UNL     1      44.379   3.954   9.598  0.00  0.00    +0.000 A 
ATOM     20  C   UNL     1      45.237   4.511   8.650  0.00  0.00    +0.000 A 
ATOM     21  C   UNL     1      46.052   3.689   7.861  0.00  0.00    +0.000 A 
BRANCH  16  23
ATOM     22  C   UNL     1      47.961   2.318   6.655  0.00  0.00    +0.000 C 
ATOM     23  O   UNL     1      46.862   1.594   7.202  0.00  0.00    +0.000 OA
ENDBRANCH  16  23
ENDBRANCH  15  19
ENDBRANCH  14  15
ENDBRANCH   1  14
TORSDOF 6
ENDMDL
MODEL 6
REMARK VINA RESULT:    -5.687      3.366      5.204
REMARK INTER + INTRA:          -8.343
REMARK INTER:                  -7.958
REMARK INTRA:                  -0.385
REMARK UNBOUND:                -0.828
REMARK  Name = 
REMARK  7 active torsions:
REMARK  status: ('A' for Active; 'I' for Inactive)
REMARK    1  A    between atoms: C_1  and  O_2
REMARK    2  A    between atoms: O_2  and  C_3
REMARK    3  A    between atoms: C_6  and  O_7
REMARK    4  A    between atoms: O_7  and  C_8
REMARK    5  A    between atoms: C_8  and  C_9
REMARK    6  A    between atoms: C_12  and  C_13
REMARK    7  A    between atoms: C_17  and  O_18
REMARK                            x       y       z     vdW  Elec       q    Type
REMARK                         _______ _______ _______ _____ _____    ______ ____
ROOT
ATOM      1  C   UNL     1      46.147   4.701  13.339  0.00  0.00    +0.000 A 
ATOM      2  N   UNL     1      45.759   3.401  13.207  0.00  0.00    +0.000 NA
ATOM      3  C   UNL     1      45.186   3.029  12.037  0.00  0.00    +0.000 A 
ATOM      4  C   UNL     1      44.969   3.889  10.973  0.00  0.00    +0.000 A 
ATOM      5  C   UNL     1      45.397   5.214  11.113  0.00  0.00    +0.000 A 
ATOM      6  C   UNL     1      46.003   5.620  12.299  0.00  0.00    +0.000 A 
ENDROOT
BRANCH   4   7
ATOM      7  C   UNL     1      44.319   3.477   9.709  0.00  0.00    +0.000 C 
ATOM      8  N   UNL     1      44.005   4.428   8.774  0.00  0.00    +0.000 N 
ATOM      9  O   UNL     1      44.067   2.302   9.483  0.00  0.00    +0.000 OA
ATOM     10  H   UNL     1      44.198   5.416   8.841  0.00  0.00    +0.000 HD
ATOM     11  H   UNL     1      43.584   4.094   7.915  0.00  0.00    +0.000 HD
ENDBRANCH   4   7
BRANCH   6  12
ATOM     12  O   UNL     1      46.472   6.895  12.431  0.00  0.00    +0.000 OA
ATOM     13  H   UNL     1      47.277   6.997  11.893  0.00  0.00    +0.000 HD
ENDBRANCH   6  12
BRANCH   1  14
ATOM     14  C   UNL     1      46.799   5.073  14.651  0.00  0.00    +0.000 C 
BRANCH  14  15
ATOM     15  O   UNL     1      46.801   3.979  15.574  0.00  0.00    +0.000 OA
BRANCH  15  19
ATOM     16  C   UNL     1      50.368   3.640  17.732  0.00  0.00    +0.000 A 
ATOM     17  C   UNL     1      49.727   2.480  17.306  0.00  0.00    +0.000 A 
ATOM     18  C   UNL     1      48.535   2.554  16.579  0.00  0.00    +0.000 A 
ATOM     19  C   UNL     1      47.968   3.792  16.269  0.00  0.00    +0.000 A 
ATOM     20  C   UNL     1      48.615   4.955  16.690  0.00  0.00    +0.000 A 
ATOM     21  C   UNL     1      49.809   4.878  17.417  0.00  0.00    +0.000 A 
BRANCH  16  23
ATOM     22  C   UNL     1      52.549   4.540  17.963  0.00  0.00    +0.000 C 
ATOM     23  O   UNL     1      51.528   3.678  18.457  0.00  0.00    +0.000 OA
ENDBRANCH  16  23
ENDBRANCH  15  19
ENDBRANCH  14  15
ENDBRANCH   1  14
TORSDOF 6
ENDMDL
MODEL 7
REMARK VINA RESULT:    -5.552      4.339      8.270
REMARK INTER + INTRA:          -8.165
REMARK INTER:                  -7.697
REMARK INTRA:                  -0.468
REMARK UNBOUND:                -0.828
REMARK  Name = 
REMARK  7 active torsions:
REMARK  status: ('A' for Active; 'I' for Inactive)
REMARK    1  A    between atoms: C_1  and  O_2
REMARK    2  A    between atoms: O_2  and  C_3
REMARK    3  A    between atoms: C_6  and  O_7
REMARK    4  A    between atoms: O_7  and  C_8
REMARK    5  A    between atoms: C_8  and  C_9
REMARK    6  A    between atoms: C_12  and  C_13
REMARK    7  A    between atoms: C_17  and  O_18
REMARK                            x       y       z     vdW  Elec       q    Type
REMARK                         _______ _______ _______ _____ _____    ______ ____
ROOT
ATOM      1  C   UNL     1      47.619   4.705  15.696  0.00  0.00    +0.000 A 
ATOM      2  N   UNL     1      48.492   5.736  15.512  0.00  0.00    +0.000 NA
ATOM      3  C   UNL     1      48.967   6.366  16.613  0.00  0.00    +0.000 A 
ATOM      4  C   UNL     1      48.616   6.028  17.910  0.00  0.00    +0.000 A 
ATOM      5  C   UNL     1      47.742   4.950  18.085  0.00  0.00    +0.000 A 
ATOM      6  C   UNL     1      47.250   4.274  16.971  0.00  0.00    +0.000 A 
ENDROOT
BRANCH   4   7
ATOM      7  C   UNL     1      49.122   6.740  19.105  0.00  0.00    +0.000 C 
ATOM      8  N   UNL     1      48.230   7.256  20.006  0.00  0.00    +0.000 N 
ATOM      9  O   UNL     1      50.322   6.864  19.304  0.00  0.00    +0.000 OA
ATOM     10  H   UNL     1      47.225   7.182  19.960  0.00  0.00    +0.000 HD
ATOM     11  H   UNL     1      48.624   7.714  20.821  0.00  0.00    +0.000 HD
ENDBRANCH   4   7
BRANCH   6  12
ATOM     12  O   UNL     1      46.438   3.189  17.127  0.00  0.00    +0.000 OA
ATOM     13  H   UNL     1      46.102   3.169  18.040  0.00  0.00    +0.000 HD
ENDBRANCH   6  12
BRANCH   1  14
ATOM     14  C   UNL     1      47.127   4.016  14.445  0.00  0.00    +0.000 C 
BRANCH  14  15
ATOM     15  O   UNL     1      45.749   4.304  14.185  0.00  0.00    +0.000 OA
BRANCH  15  19
ATOM     16  C   UNL     1      44.701   4.261  10.135  0.00  0.00    +0.000 A 
ATOM     17  C   UNL     1      44.312   3.195  10.943  0.00  0.00    +0.000 A 
ATOM     18  C   UNL     1      44.640   3.177  12.301  0.00  0.00    +0.000 A 
ATOM     19  C   UNL     1      45.365   4.226  12.871  0.00  0.00    +0.000 A 
ATOM     20  C   UNL     1      45.748   5.298  12.064  0.00  0.00    +0.000 A 
ATOM     21  C   UNL     1      45.417   5.315  10.703  0.00  0.00    +0.000 A 
BRANCH  16  23
ATOM     22  C   UNL     1      45.318   3.659   7.927  0.00  0.00    +0.000 C 
ATOM     23  O   UNL     1      44.442   4.372   8.796  0.00  0.00    +0.000 OA
ENDBRANCH  16  23
ENDBRANCH  15  19
ENDBRANCH  14  15
ENDBRANCH   1  14
TORSDOF 6
ENDMDL
MODEL 8
REMARK VINA RESULT:    -5.414      4.493      8.329
REMARK INTER + INTRA:          -7.982
REMARK INTER:                  -7.646
REMARK INTRA:                  -0.336
REMARK UNBOUND:                -0.828
REMARK  Name = 
REMARK  7 active torsions:
REMARK  status: ('A' for Active; 'I' for Inactive)
REMARK    1  A    between atoms: C_1  and  O_2
REMARK    2  A    between atoms: O_2  and  C_3
REMARK    3  A    between atoms: C_6  and  O_7
REMARK    4  A    between atoms: O_7  and  C_8
REMARK    5  A    between atoms: C_8  and  C_9
REMARK    6  A    between atoms: C_12  and  C_13
REMARK    7  A    between atoms: C_17  and  O_18
REMARK                            x       y       z     vdW  Elec       q    Type
REMARK                         _______ _______ _______ _____ _____    ______ ____
ROOT
ATOM      1  C   UNL     1      47.401   4.237  15.761  0.00  0.00    +0.000 A 
ATOM      2  N   UNL     1      46.816   3.507  16.752  0.00  0.00    +0.000 NA
ATOM      3  C   UNL     1      47.099   3.841  18.034  0.00  0.00    +0.000 A 
ATOM      4  C   UNL     1      47.948   4.874  18.396  0.00  0.00    +0.000 A 
ATOM      5  C   UNL     1      48.520   5.632  17.368  0.00  0.00    +0.000 A 
ATOM      6  C   UNL     1      48.234   5.321  16.041  0.00  0.00    +0.000 A 
ENDROOT
BRANCH   4   7
ATOM      7  C   UNL     1      48.270   5.213  19.800  0.00  0.00    +0.000 C 
ATOM      8  N   UNL     1      47.309   5.789  20.588  0.00  0.00    +0.000 N 
ATOM      9  O   UNL     1      49.375   4.979  20.269  0.00  0.00    +0.000 OA
ATOM     10  H   UNL     1      46.359   5.993  20.317  0.00  0.00    +0.000 HD
ATOM     11  H   UNL     1      47.569   5.980  21.549  0.00  0.00    +0.000 HD
ENDBRANCH   4   7
BRANCH   6  12
ATOM     12  O   UNL     1      48.743   6.084  15.030  0.00  0.00    +0.000 OA
ATOM     13  H   UNL     1      48.020   6.352  14.437  0.00  0.00    +0.000 HD
ENDBRANCH   6  12
BRANCH   1  14
ATOM     14  C   UNL     1      47.046   3.847  14.345  0.00  0.00    +0.000 C 
BRANCH  14  15
ATOM     15  O   UNL     1      45.767   4.359  13.955  0.00  0.00    +0.000 OA
BRANCH  15  19
ATOM     16  C   UNL     1      45.064   4.568   9.837  0.00  0.00    +0.000 A 
ATOM     17  C   UNL     1      45.601   5.678  10.486  0.00  0.00    +0.000 A 
ATOM     18  C   UNL     1      45.853   5.643  11.860  0.00  0.00    +0.000 A 
ATOM     19  C   UNL     1      45.570   4.497  12.605  0.00  0.00    +0.000 A 
ATOM     20  C   UNL     1      45.040   3.382  11.954  0.00  0.00    +0.000 A 
ATOM     21  C   UNL     1      44.789   3.419  10.577  0.00  0.00    +0.000 A 
BRANCH  16  23
ATOM     22  C   UNL     1      45.038   3.258   7.861  0.00  0.00    +0.000 C 
ATOM     23  O   UNL     1      44.769   4.502   8.502  0.00  0.00    +0.000 OA
ENDBRANCH  16  23
ENDBRANCH  15  19
ENDBRANCH  14  15
ENDBRANCH   1  14
TORSDOF 6
ENDMDL
MODEL 9
REMARK VINA RESULT:    -5.234      3.049      5.201
REMARK INTER + INTRA:          -7.745
REMARK INTER:                  -7.180
REMARK INTRA:                  -0.565
REMARK UNBOUND:                -0.828
REMARK  Name = 
REMARK  7 active torsions:
REMARK  status: ('A' for Active; 'I' for Inactive)
REMARK    1  A    between atoms: C_1  and  O_2
REMARK    2  A    between atoms: O_2  and  C_3
REMARK    3  A    between atoms: C_6  and  O_7
REMARK    4  A    between atoms: O_7  and  C_8
REMARK    5  A    between atoms: C_8  and  C_9
REMARK    6  A    between atoms: C_12  and  C_13
REMARK    7  A    between atoms: C_17  and  O_18
REMARK                            x       y       z     vdW  Elec       q    Type
REMARK                         _______ _______ _______ _____ _____    ______ ____
ROOT
ATOM      1  C   UNL     1      46.703   6.066  12.808  0.00  0.00    +0.000 A 
ATOM      2  N   UNL     1      46.592   6.534  11.533  0.00  0.00    +0.000 NA
ATOM      3  C   UNL     1      45.767   5.872  10.686  0.00  0.00    +0.000 A 
ATOM      4  C   UNL     1      45.036   4.748  11.038  0.00  0.00    +0.000 A 
ATOM      5  C   UNL     1      45.140   4.296  12.358  0.00  0.00    +0.000 A 
ATOM      6  C   UNL     1      45.968   4.967  13.254  0.00  0.00    +0.000 A 
ENDROOT
BRANCH   4   7
ATOM      7  C   UNL     1      44.157   4.018  10.098  0.00  0.00    +0.000 C 
ATOM      8  N   UNL     1      44.164   4.358   8.771  0.00  0.00    +0.000 N 
ATOM      9  O   UNL     1      43.434   3.110  10.485  0.00  0.00    +0.000 OA
ATOM     10  H   UNL     1      44.743   5.062   8.339  0.00  0.00    +0.000 HD
ATOM     11  H   UNL     1      43.564   3.813   8.163  0.00  0.00    +0.000 HD
ENDBRANCH   4   7
BRANCH   6  12
ATOM     12  O   UNL     1      46.039   4.569  14.557  0.00  0.00    +0.000 OA
ATOM     13  H   UNL     1      45.739   3.646  14.627  0.00  0.00    +0.000 HD
ENDBRANCH   6  12
BRANCH   1  14
ATOM     14  C   UNL     1      47.618   6.842  13.726  0.00  0.00    +0.000 C 
BRANCH  14  15
ATOM     15  O   UNL     1      48.507   5.982  14.447  0.00  0.00    +0.000 OA
BRANCH  15  19
ATOM     16  C   UNL     1      49.036   6.681  18.537  0.00  0.00    +0.000 A 
ATOM     17  C   UNL     1      49.089   7.759  17.657  0.00  0.00    +0.000 A 
ATOM     18  C   UNL     1      48.913   7.564  16.285  0.00  0.00    +0.000 A 
ATOM     19  C   UNL     1      48.681   6.286  15.772  0.00  0.00    +0.000 A 
ATOM     20  C   UNL     1      48.620   5.206  16.655  0.00  0.00    +0.000 A 
ATOM     21  C   UNL     1      48.797   5.404  18.029  0.00  0.00    +0.000 A 
BRANCH  16  23
ATOM     22  C   UNL     1      48.702   5.667  20.654  0.00  0.00    +0.000 C 
ATOM     23  O   UNL     1      49.207   6.760  19.892  0.00  0.00    +0.000 OA
ENDBRANCH  16  23
ENDBRANCH  15  19
ENDBRANCH  14  15
ENDBRANCH   1  14
TORSDOF 6
ENDMDL
