MODEL 1
REMARK VINA RESULT:    -8.824      0.000      0.000
REMARK INTER + INTRA:         -12.226
REMARK INTER:                 -11.403
REMARK INTRA:                  -0.823
REMARK UNBOUND:                -0.823
REMARK  Name = 
REMARK  5 active torsions:
REMARK  status: ('A' for Active; 'I' for Inactive)
REMARK    1  A    between atoms: C_2  and  C_4
REMARK    2  A    between atoms: C_7  and  C_8
REMARK    3  A    between atoms: C_8  and  N_9
REMARK    4  A    between atoms: N_9  and  C_10
REMARK    5  A    between atoms: C_12  and  C_13
REMARK                            x       y       z     vdW  Elec       q    Type
REMARK                         _______ _______ _______ _____ _____    ______ ____
ROOT
ATOM      1  N   UNL     1      44.143   5.698  10.959  0.00  0.00    +0.000 N 
ATOM      2  H   UNL     1      43.448   6.387  11.231  0.00  0.00    +0.000 HD
ENDROOT
BRANCH   1   3
ATOM      3  C   UNL     1      45.332   5.761  11.677  0.00  0.00    +0.000 A 
ATOM      4  C   UNL     1      46.372   6.645  11.367  0.00  0.00    +0.000 A 
ATOM      5  C   UNL     1      47.503   6.819  12.196  0.00  0.00    +0.000 A 
ATOM      6  C   UNL     1      47.581   6.034  13.359  0.00  0.00    +0.000 A 
ATOM      7  C   UNL     1      46.576   5.123  13.680  0.00  0.00    +0.000 A 
ATOM      8  C   UNL     1      45.467   5.004  12.851  0.00  0.00    +0.000 A 
ATOM      9  F   UNL     1      44.496   4.145  13.198  0.00  0.00    +0.000 F 
BRANCH   5  10
ATOM     10  C   UNL     1      48.541   7.823  11.866  0.00  0.00    +0.000 A 
ATOM     11  C   UNL     1      48.231   9.189  11.771  0.00  0.00    +0.000 A 
ATOM     12  C   UNL     1      49.233  10.100  11.479  0.00  0.00    +0.000 A 
ATOM     13  N   UNL     1      50.520   9.760  11.283  0.00  0.00    +0.000 NA
ATOM     14  C   UNL     1      50.813   8.448  11.377  0.00  0.00    +0.000 A 
ATOM     15  C   UNL     1      49.877   7.462  11.654  0.00  0.00    +0.000 A 
ENDBRANCH   5  10
ENDBRANCH   1   3
BRANCH   1  16
ATOM     16  C   UNL     1      43.636   4.515  10.291  0.00  0.00    +0.000 C 
BRANCH  16  20
ATOM     17  C   UNL     1      46.474   2.492   7.721  0.00  0.00    +0.000 A 
ATOM     18  C   UNL     1      46.310   3.874   7.603  0.00  0.00    +0.000 A 
ATOM     19  C   UNL     1      45.398   4.542   8.425  0.00  0.00    +0.000 A 
ATOM     20  C   UNL     1      44.633   3.845   9.372  0.00  0.00    +0.000 A 
ATOM     21  C   UNL     1      44.804   2.454   9.473  0.00  0.00    +0.000 A 
ATOM     22  C   UNL     1      45.712   1.780   8.652  0.00  0.00    +0.000 A 
BRANCH  17  24
ATOM     23  N   UNL     1      48.530   2.415   6.420  0.00  0.00    +0.000 N 
ATOM     24  C   UNL     1      47.419   1.744   6.850  0.00  0.00    +0.000 C 
ATOM     25  O   UNL     1      47.231   0.573   6.557  0.00  0.00    +0.000 OA
ATOM     26  H   UNL     1      49.210   1.870   5.906  0.00  0.00    +0.000 HD
ATOM     27  H   UNL     1      48.838   3.281   6.836  0.00  0.00    +0.000 HD
ENDBRANCH  17  24
ENDBRANCH  16  20
ENDBRANCH   1  16
TORSDOF 5
ENDMDL
MODEL 2
REMARK VINA RESULT:    -8.456      1.767      2.459
REMARK INTER + INTRA:         -11.752
REMARK INTER:                 -10.861
REMARK INTRA:                  -0.891
REMARK UNBOUND:                -0.823
REMARK  Name = 
REMARK  5 active torsions:
REMARK  status: ('A' for Active; 'I' for Inactive)
REMARK    1  A    between atoms: C_2  and  C_4
REMARK    2  A    between atoms: C_7  and  C_8
REMARK    3  A    between atoms: C_8  and  N_9
REMARK    4  A    between atoms: N_9  and  C_10
REMARK    5  A    between atoms: C_12  and  C_13
REMARK                            x       y       z     vdW  Elec       q    Type
REMARK                         _______ _______ _______ _____ _____    ______ ____
ROOT
ATOM      1  N   UNL     1      44.208   4.126  11.850  0.00  0.00    +0.000 N 
ATOM      2  H   UNL     1      44.083   3.312  12.444  0.00  0.00    +0.000 HD
ENDROOT
BRANCH   1   3
ATOM      3  C   UNL     1      45.251   4.963  12.226  0.00  0.00    +0.000 A 
ATOM      4  C   UNL     1      45.267   6.339  11.966  0.00  0.00    +0.000 A 
ATOM      5  C   UNL     1      46.247   7.208  12.493  0.00  0.00    +0.000 A 
ATOM      6  C   UNL     1      47.261   6.639  13.284  0.00  0.00    +0.000 A 
ATOM      7  C   UNL     1      47.291   5.268  13.537  0.00  0.00    +0.000 A 
ATOM      8  C   UNL     1      46.289   4.454  13.020  0.00  0.00    +0.000 A 
ATOM      9  F   UNL     1      46.319   3.142  13.306  0.00  0.00    +0.000 F 
BRANCH   5  10
ATOM     10  C   UNL     1      46.178   8.668  12.254  0.00  0.00    +0.000 A 
ATOM     11  C   UNL     1      47.338   9.458  12.221  0.00  0.00    +0.000 A 
ATOM     12  C   UNL     1      47.234  10.818  11.975  0.00  0.00    +0.000 A 
ATOM     13  N   UNL     1      46.067  11.451  11.751  0.00  0.00    +0.000 NA
ATOM     14  C   UNL     1      44.957  10.689  11.783  0.00  0.00    +0.000 A 
ATOM     15  C   UNL     1      44.961   9.323  12.031  0.00  0.00    +0.000 A 
ENDBRANCH   5  10
ENDBRANCH   1   3
BRANCH   1  16
ATOM     16  C   UNL     1      43.669   4.019  10.507  0.00  0.00    +0.000 C 
BRANCH  16  20
ATOM     17  C   UNL     1      46.506   2.681   7.522  0.00  0.00    +0.000 A 
ATOM     18  C   UNL     1      45.902   1.741   8.361  0.00  0.00    +0.000 A 
ATOM     19  C   UNL     1      44.984   2.156   9.329  0.00  0.00    +0.000 A 
ATOM     20  C   UNL     1      44.657   3.511   9.480  0.00  0.00    +0.000 A 
ATOM     21  C   UNL     1      45.280   4.446   8.635  0.00  0.00    +0.000 A 
ATOM     22  C   UNL     1      46.200   4.037   7.667  0.00  0.00    +0.000 A 
BRANCH  17  24
ATOM     23  N   UNL     1      47.483   2.961   5.310  0.00  0.00    +0.000 N 
ATOM     24  C   UNL     1      47.503   2.278   6.494  0.00  0.00    +0.000 C 
ATOM     25  O   UNL     1      48.324   1.400   6.708  0.00  0.00    +0.000 OA
ATOM     26  H   UNL     1      48.224   2.742   4.656  0.00  0.00    +0.000 HD
ATOM     27  H   UNL     1      46.997   3.838   5.195  0.00  0.00    +0.000 HD
ENDBRANCH  17  24
ENDBRANCH  16  20
ENDBRANCH   1  16
TORSDOF 5
ENDMDL
MODEL 3
REMARK VINA RESULT:    -8.142      1.473      1.927
REMARK INTER + INTRA:         -11.346
REMARK INTER:                 -10.646
REMARK INTRA:                  -0.699
REMARK UNBOUND:                -0.823
REMARK  Name = 
REMARK  5 active torsions:
REMARK  status: ('A' for Active; 'I' for Inactive)
REMARK    1  A    between atoms: C_2  and  C_4
REMARK    2  A    between atoms: C_7  and  C_8
REMARK    3  A    between atoms: C_8  and  N_9
REMARK    4  A    between atoms: N_9  and  C_10
REMARK    5  A    between atoms: C_12  and  C_13
REMARK                            x       y       z     vdW  Elec       q    Type
REMARK                         _______ _______ _______ _____ _____    ______ ____
ROOT
ATOM      1  N   UNL     1      44.375   4.208  11.799  0.00  0.00    +0.000 N 
ATOM      2  H   UNL     1      44.806   3.551  12.444  0.00  0.00    +0.000 HD
ENDROOT
BRANCH   1   3
ATOM      3  C   UNL     1      44.844   5.512  11.901  0.00  0.00    +0.000 A 
ATOM      4  C   UNL     1      46.161   5.831  12.254  0.00  0.00    +0.000 A 
ATOM      5  C   UNL     1      46.674   7.145  12.195  0.00  0.00    +0.000 A 
ATOM      6  C   UNL     1      45.797   8.166  11.793  0.00  0.00    +0.000 A 
ATOM      7  C   UNL     1      44.471   7.886  11.463  0.00  0.00    +0.000 A 
ATOM      8  C   UNL     1      44.016   6.573  11.508  0.00  0.00    +0.000 A 
ATOM      9  F   UNL     1      42.746   6.323  11.153  0.00  0.00    +0.000 F 
BRANCH   5  10
ATOM     10  C   UNL     1      48.096   7.422  12.505  0.00  0.00    +0.000 A 
ATOM     11  C   UNL     1      49.011   7.759  11.495  0.00  0.00    +0.000 A 
ATOM     12  C   UNL     1      50.329   8.029  11.827  0.00  0.00    +0.000 A 
ATOM     13  N   UNL     1      50.806   7.999  13.085  0.00  0.00    +0.000 NA
ATOM     14  C   UNL     1      49.923   7.676  14.051  0.00  0.00    +0.000 A 
ATOM     15  C   UNL     1      48.589   7.379  13.815  0.00  0.00    +0.000 A 
ENDBRANCH   5  10
ENDBRANCH   1   3
BRANCH   1  16
ATOM     16  C   UNL     1      43.777   3.628  10.611  0.00  0.00    +0.000 C 
BRANCH  16  20
ATOM     17  C   UNL     1      46.589   2.717   7.447  0.00  0.00    +0.000 A 
ATOM     18  C   UNL     1      46.231   4.047   7.680  0.00  0.00    +0.000 A 
ATOM     19  C   UNL     1      45.325   4.358   8.698  0.00  0.00    +0.000 A 
ATOM     20  C   UNL     1      44.758   3.352   9.494  0.00  0.00    +0.000 A 
ATOM     21  C   UNL     1      45.123   2.018   9.241  0.00  0.00    +0.000 A 
ATOM     22  C   UNL     1      46.026   1.700   8.224  0.00  0.00    +0.000 A 
BRANCH  17  24
ATOM     23  N   UNL     1      47.517   3.118   5.232  0.00  0.00    +0.000 N 
ATOM     24  C   UNL     1      47.535   2.346   6.360  0.00  0.00    +0.000 C 
ATOM     25  O   UNL     1      48.315   1.415   6.481  0.00  0.00    +0.000 OA
ATOM     26  H   UNL     1      48.226   2.914   4.540  0.00  0.00    +0.000 HD
ATOM     27  H   UNL     1      47.073   4.024   5.200  0.00  0.00    +0.000 HD
ENDBRANCH  17  24
ENDBRANCH  16  20
ENDBRANCH   1  16
TORSDOF 5
ENDMDL
MODEL 4
REMARK VINA RESULT:    -7.764      2.594      6.621
REMARK INTER + INTRA:         -10.857
REMARK INTER:                 -10.081
REMARK INTRA:                  -0.775
REMARK UNBOUND:                -0.823
REMARK  Name = 
REMARK  5 active torsions:
REMARK  status: ('A' for Active; 'I' for Inactive)
REMARK    1  A    between atoms: C_2  and  C_4
REMARK    2  A    between atoms: C_7  and  C_8
REMARK    3  A    between atoms: C_8  and  N_9
REMARK    4  A    between atoms: N_9  and  C_10
REMARK    5  A    between atoms: C_12  and  C_13
REMARK                            x       y       z     vdW  Elec       q    Type
REMARK                         _______ _______ _______ _____ _____    ______ ____
ROOT
ATOM      1  N   UNL     1      44.291   6.600  11.218  0.00  0.00    +0.000 N 
ATOM      2  H   UNL     1      44.291   7.269  10.453  0.00  0.00    +0.000 HD
ENDROOT
BRANCH   1   3
ATOM      3  C   UNL     1      44.176   5.272  10.826  0.00  0.00    +0.000 A 
ATOM      4  C   UNL     1      44.901   4.716   9.764  0.00  0.00    +0.000 A 
ATOM      5  C   UNL     1      44.903   3.334   9.477  0.00  0.00    +0.000 A 
ATOM      6  C   UNL     1      44.108   2.502  10.286  0.00  0.00    +0.000 A 
ATOM      7  C   UNL     1      43.351   3.028  11.331  0.00  0.00    +0.000 A 
ATOM      8  C   UNL     1      43.401   4.392  11.596  0.00  0.00    +0.000 A 
ATOM      9  F   UNL     1      42.690   4.870  12.629  0.00  0.00    +0.000 F 
BRANCH   5  10
ATOM     10  C   UNL     1      45.747   2.782   8.392  0.00  0.00    +0.000 A 
ATOM     11  C   UNL     1      46.111   1.427   8.367  0.00  0.00    +0.000 A 
ATOM     12  C   UNL     1      46.886   0.945   7.324  0.00  0.00    +0.000 A 
ATOM     13  N   UNL     1      47.321   1.704   6.301  0.00  0.00    +0.000 NA
ATOM     14  C   UNL     1      46.968   3.004   6.329  0.00  0.00    +0.000 A 
ATOM     15  C   UNL     1      46.204   3.579   7.335  0.00  0.00    +0.000 A 
ENDBRANCH   5  10
ENDBRANCH   1   3
BRANCH   1  16
ATOM     16  C   UNL     1      44.899   7.053  12.455  0.00  0.00    +0.000 C 
BRANCH  16  20
ATOM     17  C   UNL     1      49.145   7.850  12.176  0.00  0.00    +0.000 A 
ATOM     18  C   UNL     1      48.238   8.879  11.910  0.00  0.00    +0.000 A 
ATOM     19  C   UNL     1      46.865   8.638  11.996  0.00  0.00    +0.000 A 
ATOM     20  C   UNL     1      46.373   7.371  12.342  0.00  0.00    +0.000 A 
ATOM     21  C   UNL     1      47.298   6.344  12.599  0.00  0.00    +0.000 A 
ATOM     22  C   UNL     1      48.673   6.578  12.512  0.00  0.00    +0.000 A 
BRANCH  17  24
ATOM     23  N   UNL     1      51.280   7.351  11.116  0.00  0.00    +0.000 N 
ATOM     24  C   UNL     1      50.614   8.063  12.075  0.00  0.00    +0.000 C 
ATOM     25  O   UNL     1      51.196   8.862  12.792  0.00  0.00    +0.000 OA
ATOM     26  H   UNL     1      52.259   7.573  10.994  0.00  0.00    +0.000 HD
ATOM     27  H   UNL     1      50.805   6.883  10.358  0.00  0.00    +0.000 HD
ENDBRANCH  17  24
ENDBRANCH  16  20
ENDBRANCH   1  16
TORSDOF 5
ENDMDL
MODEL 5
REMARK VINA RESULT:    -7.734      3.148      6.968
REMARK INTER + INTRA:         -10.819
REMARK INTER:                 -10.183
REMARK INTRA:                  -0.635
REMARK UNBOUND:                -0.823
REMARK  Name = 
REMARK  5 active torsions:
REMARK  status: ('A' for Active; 'I' for Inactive)
REMARK    1  A    between atoms: C_2  and  C_4
REMARK    2  A    between atoms: C_7  and  C_8
REMARK    3  A    between atoms: C_8  and  N_9
REMARK    4  A    between atoms: N_9  and  C_10
REMARK    5  A    between atoms: C_12  and  C_13
REMARK                            x       y       z     vdW  Elec       q    Type
REMARK                         _______ _______ _______ _____ _____    ______ ____
ROOT
ATOM      1  N   UNL     1      43.854   6.524  11.298  0.00  0.00    +0.000 N 
ATOM      2  H   UNL     1      42.947   6.975  11.216  0.00  0.00    +0.000 HD
ENDROOT
BRANCH   1   3
ATOM      3  C   UNL     1      43.862   5.176  10.962  0.00  0.00    +0.000 A 
ATOM      4  C   UNL     1      44.563   4.659   9.866  0.00  0.00    +0.000 A 
ATOM      5  C   UNL     1      44.702   3.275   9.628  0.00  0.00    +0.000 A 
ATOM      6  C   UNL     1      44.072   2.395  10.525  0.00  0.00    +0.000 A 
ATOM      7  C   UNL     1      43.341   2.878  11.610  0.00  0.00    +0.000 A 
ATOM      8  C   UNL     1      43.254   4.249  11.823  0.00  0.00    +0.000 A 
ATOM      9  F   UNL     1      42.574   4.689  12.893  0.00  0.00    +0.000 F 
BRANCH   5  10
ATOM     10  C   UNL     1      45.520   2.775   8.497  0.00  0.00    +0.000 A 
ATOM     11  C   UNL     1      45.891   3.617   7.437  0.00  0.00    +0.000 A 
ATOM     12  C   UNL     1      46.672   3.117   6.407  0.00  0.00    +0.000 A 
ATOM     13  N   UNL     1      47.119   1.849   6.354  0.00  0.00    +0.000 NA
ATOM     14  C   UNL     1      46.760   1.045   7.374  0.00  0.00    +0.000 A 
ATOM     15  C   UNL     1      45.974   1.451   8.442  0.00  0.00    +0.000 A 
ENDBRANCH   5  10
ENDBRANCH   1   3
BRANCH   1  16
ATOM     16  C   UNL     1      45.006   7.403  11.241  0.00  0.00    +0.000 C 
BRANCH  16  20
ATOM     17  C   UNL     1      47.938   6.849  14.379  0.00  0.00    +0.000 A 
ATOM     18  C   UNL     1      47.315   5.730  13.821  0.00  0.00    +0.000 A 
ATOM     19  C   UNL     1      46.367   5.891  12.807  0.00  0.00    +0.000 A 
ATOM     20  C   UNL     1      46.021   7.167  12.338  0.00  0.00    +0.000 A 
ATOM     21  C   UNL     1      46.651   8.283  12.916  0.00  0.00    +0.000 A 
ATOM     22  C   UNL     1      47.597   8.128  13.931  0.00  0.00    +0.000 A 
BRANCH  17  24
ATOM     23  N   UNL     1      48.451   6.630  16.750  0.00  0.00    +0.000 N 
ATOM     24  C   UNL     1      48.936   6.717  15.474  0.00  0.00    +0.000 C 
ATOM     25  O   UNL     1      50.134   6.656  15.244  0.00  0.00    +0.000 OA
ATOM     26  H   UNL     1      49.132   6.447  17.475  0.00  0.00    +0.000 HD
ATOM     27  H   UNL     1      47.482   6.429  16.951  0.00  0.00    +0.000 HD
ENDBRANCH  17  24
ENDBRANCH  16  20
ENDBRANCH   1  16
TORSDOF 5
ENDMDL
MODEL 6
REMARK VINA RESULT:    -7.493      2.505      3.943
REMARK INTER + INTRA:         -10.507
REMARK INTER:                 -10.033
REMARK INTRA:                  -0.473
REMARK UNBOUND:                -0.823
REMARK  Name = 
REMARK  5 active torsions:
REMARK  status: ('A' for Active; 'I' for Inactive)
REMARK    1  A    between atoms: C_2  and  C_4
REMARK    2  A    between atoms: C_7  and  C_8
REMARK    3  A    between atoms: C_8  and  N_9
REMARK    4  A    between atoms: N_9  and  C_10
REMARK    5  A    between atoms: C_12  and  C_13
REMARK                            x       y       z     vdW  Elec       q    Type
REMARK                         _______ _______ _______ _____ _____    ______ ____
ROOT
ATOM      1  N   UNL     1      43.882   5.095  11.991  0.00  0.00    +0.000 N 
ATOM      2  H   UNL     1      43.399   4.415  12.572  0.00  0.00    +0.000 HD
ENDROOT
BRANCH   1   3
ATOM      3  C   UNL     1      45.067   5.579  12.530  0.00  0.00    +0.000 A 
ATOM      4  C   UNL     1      45.682   5.025  13.660  0.00  0.00    +0.000 A 
ATOM      5  C   UNL     1      46.965   5.414  14.103  0.00  0.00    +0.000 A 
ATOM      6  C   UNL     1      47.621   6.426  13.383  0.00  0.00    +0.000 A 
ATOM      7  C   UNL     1      47.024   7.019  12.271  0.00  0.00    +0.000 A 
ATOM      8  C   UNL     1      45.771   6.585  11.853  0.00  0.00    +0.000 A 
ATOM      9  F   UNL     1      45.231   7.147  10.759  0.00  0.00    +0.000 F 
BRANCH   5  10
ATOM     10  C   UNL     1      47.606   4.744  15.259  0.00  0.00    +0.000 A 
ATOM     11  C   UNL     1      48.297   5.478  16.237  0.00  0.00    +0.000 A 
ATOM     12  C   UNL     1      48.867   4.817  17.313  0.00  0.00    +0.000 A 
ATOM     13  N   UNL     1      48.797   3.486  17.497  0.00  0.00    +0.000 NA
ATOM     14  C   UNL     1      48.132   2.786  16.557  0.00  0.00    +0.000 A 
ATOM     15  C   UNL     1      47.538   3.357  15.441  0.00  0.00    +0.000 A 
ENDBRANCH   5  10
ENDBRANCH   1   3
BRANCH   1  16
ATOM     16  C   UNL     1      43.565   5.057  10.575  0.00  0.00    +0.000 C 
BRANCH  16  20
ATOM     17  C   UNL     1      45.927   2.275   8.244  0.00  0.00    +0.000 A 
ATOM     18  C   UNL     1      45.034   1.781   9.199  0.00  0.00    +0.000 A 
ATOM     19  C   UNL     1      44.264   2.665   9.959  0.00  0.00    +0.000 A 
ATOM     20  C   UNL     1      44.375   4.053   9.785  0.00  0.00    +0.000 A 
ATOM     21  C   UNL     1      45.283   4.534   8.827  0.00  0.00    +0.000 A 
ATOM     22  C   UNL     1      46.058   3.655   8.066  0.00  0.00    +0.000 A 
BRANCH  17  24
ATOM     23  N   UNL     1      47.355   1.893   6.310  0.00  0.00    +0.000 N 
ATOM     24  C   UNL     1      46.777   1.365   7.431  0.00  0.00    +0.000 C 
ATOM     25  O   UNL     1      46.978   0.208   7.765  0.00  0.00    +0.000 OA
ATOM     26  H   UNL     1      48.004   1.293   5.818  0.00  0.00    +0.000 HD
ATOM     27  H   UNL     1      47.413   2.886   6.144  0.00  0.00    +0.000 HD
ENDBRANCH  17  24
ENDBRANCH  16  20
ENDBRANCH   1  16
TORSDOF 5
ENDMDL
MODEL 7
REMARK VINA RESULT:    -7.208      3.620      7.355
REMARK INTER + INTRA:         -10.139
REMARK INTER:                  -9.446
REMARK INTRA:                  -0.693
REMARK UNBOUND:                -0.823
REMARK  Name = 
REMARK  5 active torsions:
REMARK  status: ('A' for Active; 'I' for Inactive)
REMARK    1  A    between atoms: C_2  and  C_4
REMARK    2  A    between atoms: C_7  and  C_8
REMARK    3  A    between atoms: C_8  and  N_9
REMARK    4  A    between atoms: N_9  and  C_10
REMARK    5  A    between atoms: C_12  and  C_13
REMARK                            x       y       z     vdW  Elec       q    Type
REMARK                         _______ _______ _______ _____ _____    ______ ____
ROOT
ATOM      1  N   UNL     1      45.473   6.104  12.171  0.00  0.00    +0.000 N 
ATOM      2  H   UNL     1      44.871   6.922  12.199  0.00  0.00    +0.000 HD
ENDROOT
BRANCH   1   3
ATOM      3  C   UNL     1      44.957   5.029  11.458  0.00  0.00    +0.000 A 
ATOM      4  C   UNL     1      45.523   4.549  10.270  0.00  0.00    +0.000 A 
ATOM      5  C   UNL     1      45.093   3.360   9.642  0.00  0.00    +0.000 A 
ATOM      6  C   UNL     1      44.027   2.661  10.235  0.00  0.00    +0.000 A 
ATOM      7  C   UNL     1      43.422   3.128  11.401  0.00  0.00    +0.000 A 
ATOM      8  C   UNL     1      43.896   4.289  12.002  0.00  0.00    +0.000 A 
ATOM      9  F   UNL     1      43.320   4.701  13.142  0.00  0.00    +0.000 F 
BRANCH   5  10
ATOM     10  C   UNL     1      45.775   2.851   8.429  0.00  0.00    +0.000 A 
ATOM     11  C   UNL     1      46.058   3.694   7.343  0.00  0.00    +0.000 A 
ATOM     12  C   UNL     1      46.714   3.186   6.234  0.00  0.00    +0.000 A 
ATOM     13  N   UNL     1      47.117   1.906   6.123  0.00  0.00    +0.000 NA
ATOM     14  C   UNL     1      46.843   1.101   7.168  0.00  0.00    +0.000 A 
ATOM     15  C   UNL     1      46.183   1.516   8.316  0.00  0.00    +0.000 A 
ENDBRANCH   5  10
ENDBRANCH   1   3
BRANCH   1  16
ATOM     16  C   UNL     1      46.885   6.348  12.403  0.00  0.00    +0.000 C 
BRANCH  16  20
ATOM     17  C   UNL     1      48.182   5.087  16.337  0.00  0.00    +0.000 A 
ATOM     18  C   UNL     1      48.693   6.269  15.795  0.00  0.00    +0.000 A 
ATOM     19  C   UNL     1      48.285   6.691  14.527  0.00  0.00    +0.000 A 
ATOM     20  C   UNL     1      47.367   5.940  13.778  0.00  0.00    +0.000 A 
ATOM     21  C   UNL     1      46.868   4.749  14.333  0.00  0.00    +0.000 A 
ATOM     22  C   UNL     1      47.275   4.322  15.599  0.00  0.00    +0.000 A 
BRANCH  17  24
ATOM     23  N   UNL     1      49.683   3.751  17.712  0.00  0.00    +0.000 N 
ATOM     24  C   UNL     1      48.609   4.597  17.675  0.00  0.00    +0.000 C 
ATOM     25  O   UNL     1      48.049   4.958  18.698  0.00  0.00    +0.000 OA
ATOM     26  H   UNL     1      50.021   3.499  18.631  0.00  0.00    +0.000 HD
ATOM     27  H   UNL     1      50.311   3.634  16.930  0.00  0.00    +0.000 HD
ENDBRANCH  17  24
ENDBRANCH  16  20
ENDBRANCH   1  16
TORSDOF 5
ENDMDL
MODEL 8
REMARK VINA RESULT:    -7.086      5.187      8.069
REMARK INTER + INTRA:          -9.980
REMARK INTER:                  -9.260
REMARK INTRA:                  -0.720
REMARK UNBOUND:                -0.823
REMARK  Name = 
REMARK  5 active torsions:
REMARK  status: ('A' for Active; 'I' for Inactive)
REMARK    1  A    between atoms: C_2  and  C_4
REMARK    2  A    between atoms: C_7  and  C_8
REMARK    3  A    between atoms: C_8  and  N_9
REMARK    4  A    between atoms: N_9  and  C_10
REMARK    5  A    between atoms: C_12  and  C_13
REMARK                            x       y       z     vdW  Elec       q    Type
REMARK                         _______ _______ _______ _____ _____    ______ ____
ROOT
ATOM      1  N   UNL     1      48.264   6.219  15.807  0.00  0.00    +0.000 N 
ATOM      2  H   UNL     1      49.098   6.745  16.053  0.00  0.00    +0.000 HD
ENDROOT
BRANCH   1   3
ATOM      3  C   UNL     1      47.938   6.249  14.457  0.00  0.00    +0.000 A 
ATOM      4  C   UNL     1      46.925   5.464  13.891  0.00  0.00    +0.000 A 
ATOM      5  C   UNL     1      46.489   5.619  12.557  0.00  0.00    +0.000 A 
ATOM      6  C   UNL     1      47.137   6.587  11.771  0.00  0.00    +0.000 A 
ATOM      7  C   UNL     1      48.169   7.365  12.295  0.00  0.00    +0.000 A 
ATOM      8  C   UNL     1      48.547   7.198  13.622  0.00  0.00    +0.000 A 
ATOM      9  F   UNL     1      49.520   7.982  14.115  0.00  0.00    +0.000 F 
BRANCH   5  10
ATOM     10  C   UNL     1      45.361   4.817  12.027  0.00  0.00    +0.000 A 
ATOM     11  C   UNL     1      44.860   5.029  10.733  0.00  0.00    +0.000 A 
ATOM     12  C   UNL     1      43.817   4.247  10.266  0.00  0.00    +0.000 A 
ATOM     13  N   UNL     1      43.239   3.264  10.982  0.00  0.00    +0.000 NA
ATOM     14  C   UNL     1      43.724   3.063  12.223  0.00  0.00    +0.000 A 
ATOM     15  C   UNL     1      44.758   3.802  12.780  0.00  0.00    +0.000 A 
ENDBRANCH   5  10
ENDBRANCH   1   3
BRANCH   1  16
ATOM     16  C   UNL     1      47.880   5.170  16.733  0.00  0.00    +0.000 C 
BRANCH  16  20
ATOM     17  C   UNL     1      51.014   2.259  17.403  0.00  0.00    +0.000 A 
ATOM     18  C   UNL     1      49.764   1.826  16.953  0.00  0.00    +0.000 A 
ATOM     19  C   UNL     1      48.742   2.753  16.731  0.00  0.00    +0.000 A 
ATOM     20  C   UNL     1      48.946   4.122  16.959  0.00  0.00    +0.000 A 
ATOM     21  C   UNL     1      50.206   4.540  17.420  0.00  0.00    +0.000 A 
ATOM     22  C   UNL     1      51.231   3.618  17.646  0.00  0.00    +0.000 A 
BRANCH  17  24
ATOM     23  N   UNL     1      51.771   0.072  18.162  0.00  0.00    +0.000 N 
ATOM     24  C   UNL     1      52.119   1.300  17.670  0.00  0.00    +0.000 C 
ATOM     25  O   UNL     1      53.283   1.581  17.430  0.00  0.00    +0.000 OA
ATOM     26  H   UNL     1      52.519  -0.602  18.251  0.00  0.00    +0.000 HD
ATOM     27  H   UNL     1      50.823  -0.275  18.136  0.00  0.00    +0.000 HD
ENDBRANCH  17  24
ENDBRANCH  16  20
ENDBRANCH   1  16
TORSDOF 5
ENDMDL
MODEL 9
REMARK VINA RESULT:    -6.680      2.694      6.834
REMARK INTER + INTRA:          -9.456
REMARK INTER:                  -8.689
REMARK INTRA:                  -0.767
REMARK UNBOUND:                -0.823
REMARK  Name = 
REMARK  5 active torsions:
REMARK  status: ('A' for Active; 'I' for Inactive)
REMARK    1  A    between atoms: C_2  and  C_4
REMARK    2  A    between atoms: C_7  and  C_8
REMARK    3  A    between atoms: C_8  and  N_9
REMARK    4  A    between atoms: N_9  and  C_10
REMARK    5  A    between atoms: C_12  and  C_13
REMARK                            x       y       z     vdW  Elec       q    Type
REMARK                         _______ _______ _______ _____ _____    ______ ____
ROOT
ATOM      1  N   UNL     1      45.681   5.295  13.661  0.00  0.00    +0.000 N 
ATOM      2  H   UNL     1      45.110   5.699  14.399  0.00  0.00    +0.000 HD
ENDROOT
BRANCH   1   3
ATOM      3  C   UNL     1      44.995   5.017  12.485  0.00  0.00    +0.000 A 
ATOM      4  C   UNL     1      45.607   4.484  11.344  0.00  0.00    +0.000 A 
ATOM      5  C   UNL     1      44.879   4.050  10.215  0.00  0.00    +0.000 A 
ATOM      6  C   UNL     1      43.482   4.200  10.247  0.00  0.00    +0.000 A 
ATOM      7  C   UNL     1      42.844   4.755  11.356  0.00  0.00    +0.000 A 
ATOM      8  C   UNL     1      43.598   5.143  12.458  0.00  0.00    +0.000 A 
ATOM      9  F   UNL     1      42.959   5.642  13.527  0.00  0.00    +0.000 F 
BRANCH   5  10
ATOM     10  C   UNL     1      45.565   3.421   9.062  0.00  0.00    +0.000 A 
ATOM     11  C   UNL     1      45.703   2.028   8.966  0.00  0.00    +0.000 A 
ATOM     12  C   UNL     1      46.334   1.476   7.864  0.00  0.00    +0.000 A 
ATOM     13  N   UNL     1      46.832   2.201   6.844  0.00  0.00    +0.000 NA
ATOM     14  C   UNL     1      46.696   3.539   6.941  0.00  0.00    +0.000 A 
ATOM     15  C   UNL     1      46.089   4.182   8.010  0.00  0.00    +0.000 A 
ENDBRANCH   5  10
ENDBRANCH   1   3
BRANCH   1  16
ATOM     16  C   UNL     1      47.107   5.547  13.753  0.00  0.00    +0.000 C 
BRANCH  16  20
ATOM     17  C   UNL     1      48.493   9.187  11.861  0.00  0.00    +0.000 A 
ATOM     18  C   UNL     1      47.249   9.178  12.497  0.00  0.00    +0.000 A 
ATOM     19  C   UNL     1      46.787   8.012  13.113  0.00  0.00    +0.000 A 
ATOM     20  C   UNL     1      47.552   6.837  13.101  0.00  0.00    +0.000 A 
ATOM     21  C   UNL     1      48.798   6.859  12.450  0.00  0.00    +0.000 A 
ATOM     22  C   UNL     1      49.264   8.021  11.830  0.00  0.00    +0.000 A 
BRANCH  17  24
ATOM     23  N   UNL     1      48.088  11.348  10.815  0.00  0.00    +0.000 N 
ATOM     24  C   UNL     1      49.008  10.403  11.178  0.00  0.00    +0.000 C 
ATOM     25  O   UNL     1      50.201  10.568  10.977  0.00  0.00    +0.000 OA
ATOM     26  H   UNL     1      48.459  12.209  10.436  0.00  0.00    +0.000 HD
ATOM     27  H   UNL     1      47.147  11.359  11.181  0.00  0.00    +0.000 HD
ENDBRANCH  17  24
ENDBRANCH  16  20
ENDBRANCH   1  16
TORSDOF 5
ENDMDL
