MODEL 1
REMARK VINA RESULT:    -7.801      0.000      0.000
REMARK INTER + INTRA:         -10.549
REMARK INTER:                 -10.081
REMARK INTRA:                  -0.468
REMARK UNBOUND:                -0.468
REMARK  Name = 
REMARK  5 active torsions:
REMARK  status: ('A' for Active; 'I' for Inactive)
REMARK    1  A    between atoms: C_2  and  C_3
REMARK    2  A    between atoms: N_7  and  C_8
REMARK    3  A    between atoms: C_12  and  C_13
REMARK    4  A    between atoms: C_13  and  N_14
REMARK    5  A    between atoms: C_18  and  C_19
REMARK                            x       y       z     vdW  Elec       q    Type
REMARK                         _______ _______ _______ _____ _____    ______ ____
ROOT
ATOM      1  C   UNL     1      44.197   4.441  11.575  0.00  0.00    +0.000 C 
ATOM      2  C   UNL     1      43.364   5.456  10.806  0.00  0.00    +0.000 C 
ATOM      3  C   UNL     1      42.803   4.834  12.040  0.00  0.00    +0.000 C 
ENDROOT
BRANCH   1   4
ATOM      4  N   UNL     1      44.434   3.087  10.996  0.00  0.00    +0.000 N 
ATOM      5  C   UNL     1      45.058   3.024   9.724  0.00  0.00    +0.000 A 
ATOM      6  C   UNL     1      45.235   1.779   9.121  0.00  0.00    +0.000 A 
ATOM      7  C   UNL     1      45.946   1.693   7.921  0.00  0.00    +0.000 A 
ATOM      8  C   UNL     1      46.472   2.854   7.356  0.00  0.00    +0.000 A 
ATOM      9  C   UNL     1      46.206   4.052   7.985  0.00  0.00    +0.000 A 
ATOM     10  N   UNL     1      45.533   4.151   9.150  0.00  0.00    +0.000 NA
ATOM     11  H   UNL     1      43.579   2.537  10.941  0.00  0.00    +0.000 HD
BRANCH   8  12
ATOM     12  C   UNL     1      47.286   2.785   6.127  0.00  0.00    +0.000 C 
ATOM     13  N   UNL     1      48.617   2.515   6.247  0.00  0.00    +0.000 N 
ATOM     14  O   UNL     1      46.767   2.928   5.019  0.00  0.00    +0.000 OA
ATOM     15  H   UNL     1      49.065   2.217   7.103  0.00  0.00    +0.000 HD
ATOM     16  H   UNL     1      49.130   2.378   5.383  0.00  0.00    +0.000 HD
ENDBRANCH   8  12
ENDBRANCH   1   4
BRANCH   1  21
ATOM     17  C   UNL     1      46.747   6.798  13.230  0.00  0.00    +0.000 A 
ATOM     18  C   UNL     1      47.489   5.802  13.882  0.00  0.00    +0.000 A 
ATOM     19  N   UNL     1      47.296   4.470  13.772  0.00  0.00    +0.000 NA
ATOM     20  C   UNL     1      46.264   4.090  12.997  0.00  0.00    +0.000 A 
ATOM     21  C   UNL     1      45.382   4.961  12.359  0.00  0.00    +0.000 A 
ATOM     22  C   UNL     1      45.671   6.327  12.473  0.00  0.00    +0.000 A 
BRANCH  17  27
ATOM     23  C   UNL     1      48.526   9.464  11.845  0.00  0.00    +0.000 C 
ATOM     24  C   UNL     1      49.078  10.166  13.098  0.00  0.00    +0.000 C 
ATOM     25  C   UNL     1      49.008   9.259  14.330  0.00  0.00    +0.000 C 
ATOM     26  C   UNL     1      47.591   8.735  14.550  0.00  0.00    +0.000 C 
ATOM     27  N   UNL     1      47.061   8.142  13.317  0.00  0.00    +0.000 N 
ATOM     28  C   UNL     1      47.106   8.961  12.099  0.00  0.00    +0.000 C 
BRANCH  23  30
ATOM     29  N   UNL     1      50.196   7.337  11.196  0.00  0.00    +0.000 NA
ATOM     30  C   UNL     1      49.439   8.301  11.490  0.00  0.00    +0.000 C 
ENDBRANCH  23  30
ENDBRANCH  17  27
ENDBRANCH   1  21
TORSDOF 5
ENDMDL
MODEL 2
REMARK VINA RESULT:    -6.412      5.096      8.150
REMARK INTER + INTRA:          -8.755
REMARK INTER:                  -8.617
REMARK INTRA:                  -0.138
REMARK UNBOUND:                -0.468
REMARK  Name = 
REMARK  5 active torsions:
REMARK  status: ('A' for Active; 'I' for Inactive)
REMARK    1  A    between atoms: C_2  and  C_3
REMARK    2  A    between atoms: N_7  and  C_8
REMARK    3  A    between atoms: C_12  and  C_13
REMARK    4  A    between atoms: C_13  and  N_14
REMARK    5  A    between atoms: C_18  and  C_19
REMARK                            x       y       z     vdW  Elec       q    Type
REMARK                         _______ _______ _______ _____ _____    ______ ____
ROOT
ATOM      1  C   UNL     1      48.417   4.999  17.287  0.00  0.00    +0.000 C 
ATOM      2  C   UNL     1      47.541   3.799  17.615  0.00  0.00    +0.000 C 
ATOM      3  C   UNL     1      47.190   5.135  18.177  0.00  0.00    +0.000 C 
ENDROOT
BRANCH   1   4
ATOM      4  N   UNL     1      49.782   5.104  17.881  0.00  0.00    +0.000 N 
ATOM      5  C   UNL     1      50.581   3.932  17.883  0.00  0.00    +0.000 A 
ATOM      6  C   UNL     1      51.836   3.973  18.490  0.00  0.00    +0.000 A 
ATOM      7  C   UNL     1      52.676   2.861  18.401  0.00  0.00    +0.000 A 
ATOM      8  C   UNL     1      52.247   1.734  17.701  0.00  0.00    +0.000 A 
ATOM      9  C   UNL     1      50.971   1.752  17.177  0.00  0.00    +0.000 A 
ATOM     10  N   UNL     1      50.152   2.823  17.242  0.00  0.00    +0.000 NA
ATOM     11  H   UNL     1      49.761   5.457  18.835  0.00  0.00    +0.000 HD
BRANCH   8  12
ATOM     12  C   UNL     1      53.140   0.572  17.532  0.00  0.00    +0.000 C 
ATOM     13  N   UNL     1      53.009  -0.475  18.397  0.00  0.00    +0.000 N 
ATOM     14  O   UNL     1      53.954   0.532  16.609  0.00  0.00    +0.000 OA
ATOM     15  H   UNL     1      52.251  -0.578  19.058  0.00  0.00    +0.000 HD
ATOM     16  H   UNL     1      53.567  -1.298  18.197  0.00  0.00    +0.000 HD
ENDBRANCH   8  12
ENDBRANCH   1   4
BRANCH   1  21
ATOM     17  C   UNL     1      47.247   5.753  13.701  0.00  0.00    +0.000 A 
ATOM     18  C   UNL     1      48.242   6.694  13.400  0.00  0.00    +0.000 A 
ATOM     19  N   UNL     1      49.276   7.036  14.198  0.00  0.00    +0.000 NA
ATOM     20  C   UNL     1      49.308   6.440  15.404  0.00  0.00    +0.000 A 
ATOM     21  C   UNL     1      48.343   5.555  15.882  0.00  0.00    +0.000 A 
ATOM     22  C   UNL     1      47.326   5.205  14.985  0.00  0.00    +0.000 A 
BRANCH  17  27
ATOM     23  C   UNL     1      45.073   6.803  11.178  0.00  0.00    +0.000 C 
ATOM     24  C   UNL     1      43.783   6.042  11.530  0.00  0.00    +0.000 C 
ATOM     25  C   UNL     1      43.815   5.511  12.967  0.00  0.00    +0.000 C 
ATOM     26  C   UNL     1      45.060   4.664  13.214  0.00  0.00    +0.000 C 
ATOM     27  N   UNL     1      46.268   5.384  12.796  0.00  0.00    +0.000 N 
ATOM     28  C   UNL     1      46.296   5.922  11.431  0.00  0.00    +0.000 C 
BRANCH  23  30
ATOM     29  N   UNL     1      45.213   9.106  12.730  0.00  0.00    +0.000 NA
ATOM     30  C   UNL     1      45.149   8.062  12.027  0.00  0.00    +0.000 C 
ENDBRANCH  23  30
ENDBRANCH  17  27
ENDBRANCH   1  21
TORSDOF 5
ENDMDL
MODEL 3
REMARK VINA RESULT:    -6.396      3.400      6.202
REMARK INTER + INTRA:          -8.734
REMARK INTER:                  -8.134
REMARK INTRA:                  -0.600
REMARK UNBOUND:                -0.468
REMARK  Name = 
REMARK  5 active torsions:
REMARK  status: ('A' for Active; 'I' for Inactive)
REMARK    1  A    between atoms: C_2  and  C_3
REMARK    2  A    between atoms: N_7  and  C_8
REMARK    3  A    between atoms: C_12  and  C_13
REMARK    4  A    between atoms: C_13  and  N_14
REMARK    5  A    between atoms: C_18  and  C_19
REMARK                            x       y       z     vdW  Elec       q    Type
REMARK                         _______ _______ _______ _____ _____    ______ ____
ROOT
ATOM      1  C   UNL     1      48.478   8.032  13.158  0.00  0.00    +0.000 C 
ATOM      2  C   UNL     1      49.428   7.025  12.526  0.00  0.00    +0.000 C 
ATOM      3  C   UNL     1      49.720   8.482  12.403  0.00  0.00    +0.000 C 
ENDROOT
BRANCH   1   4
ATOM      4  N   UNL     1      47.127   8.248  12.564  0.00  0.00    +0.000 N 
ATOM      5  C   UNL     1      46.340   7.097  12.302  0.00  0.00    +0.000 A 
ATOM      6  C   UNL     1      45.100   7.255  11.684  0.00  0.00    +0.000 A 
ATOM      7  C   UNL     1      44.269   6.144  11.521  0.00  0.00    +0.000 A 
ATOM      8  C   UNL     1      44.693   4.900  11.986  0.00  0.00    +0.000 A 
ATOM      9  C   UNL     1      45.957   4.817  12.535  0.00  0.00    +0.000 A 
ATOM     10  N   UNL     1      46.766   5.883  12.712  0.00  0.00    +0.000 NA
ATOM     11  H   UNL     1      47.167   8.790  11.703  0.00  0.00    +0.000 HD
BRANCH   8  12
ATOM     12  C   UNL     1      43.809   3.723  11.890  0.00  0.00    +0.000 C 
ATOM     13  N   UNL     1      44.192   2.574  12.517  0.00  0.00    +0.000 N 
ATOM     14  O   UNL     1      42.734   3.790  11.293  0.00  0.00    +0.000 OA
ATOM     15  H   UNL     1      44.967   2.507  13.163  0.00  0.00    +0.000 HD
ATOM     16  H   UNL     1      43.520   1.814  12.516  0.00  0.00    +0.000 HD
ENDBRANCH   8  12
ENDBRANCH   1   4
BRANCH   1  21
ATOM     17  C   UNL     1      48.980   7.247  16.890  0.00  0.00    +0.000 A 
ATOM     18  C   UNL     1      48.542   8.487  17.377  0.00  0.00    +0.000 A 
ATOM     19  N   UNL     1      48.035   9.495  16.636  0.00  0.00    +0.000 NA
ATOM     20  C   UNL     1      47.999   9.284  15.307  0.00  0.00    +0.000 A 
ATOM     21  C   UNL     1      48.482   8.144  14.667  0.00  0.00    +0.000 A 
ATOM     22  C   UNL     1      48.947   7.117  15.499  0.00  0.00    +0.000 A 
BRANCH  17  27
ATOM     23  C   UNL     1      49.170   3.795  17.387  0.00  0.00    +0.000 C 
ATOM     24  C   UNL     1      48.825   3.668  18.881  0.00  0.00    +0.000 C 
ATOM     25  C   UNL     1      48.163   4.941  19.418  0.00  0.00    +0.000 C 
ATOM     26  C   UNL     1      49.023   6.170  19.136  0.00  0.00    +0.000 C 
ATOM     27  N   UNL     1      49.402   6.224  17.720  0.00  0.00    +0.000 N 
ATOM     28  C   UNL     1      50.036   5.031  17.144  0.00  0.00    +0.000 C 
BRANCH  23  30
ATOM     29  N   UNL     1      46.808   3.978  15.930  0.00  0.00    +0.000 NA
ATOM     30  C   UNL     1      47.878   3.895  16.590  0.00  0.00    +0.000 C 
ENDBRANCH  23  30
ENDBRANCH  17  27
ENDBRANCH   1  21
TORSDOF 5
ENDMDL
MODEL 4
REMARK VINA RESULT:    -6.181      3.497      7.568
REMARK INTER + INTRA:          -8.457
REMARK INTER:                  -8.312
REMARK INTRA:                  -0.145
REMARK UNBOUND:                -0.468
REMARK  Name = 
REMARK  5 active torsions:
REMARK  status: ('A' for Active; 'I' for Inactive)
REMARK    1  A    between atoms: C_2  and  C_3
REMARK    2  A    between atoms: N_7  and  C_8
REMARK    3  A    between atoms: C_12  and  C_13
REMARK    4  A    between atoms: C_13  and  N_14
REMARK    5  A    between atoms: C_18  and  C_19
REMARK                            x       y       z     vdW  Elec       q    Type
REMARK                         _______ _______ _______ _____ _____    ______ ____
ROOT
ATOM      1  C   UNL     1      48.885   7.823  12.767  0.00  0.00    +0.000 C 
ATOM      2  C   UNL     1      49.862   8.428  11.770  0.00  0.00    +0.000 C 
ATOM      3  C   UNL     1      49.743   6.945  11.868  0.00  0.00    +0.000 C 
ENDROOT
BRANCH   1   4
ATOM      4  N   UNL     1      49.176   7.900  14.228  0.00  0.00    +0.000 N 
ATOM      5  C   UNL     1      48.654   6.868  15.050  0.00  0.00    +0.000 A 
ATOM      6  C   UNL     1      48.848   6.942  16.429  0.00  0.00    +0.000 A 
ATOM      7  C   UNL     1      48.436   5.879  17.237  0.00  0.00    +0.000 A 
ATOM      8  C   UNL     1      47.848   4.761  16.647  0.00  0.00    +0.000 A 
ATOM      9  C   UNL     1      47.642   4.789  15.283  0.00  0.00    +0.000 A 
ATOM     10  N   UNL     1      48.045   5.802  14.487  0.00  0.00    +0.000 NA
ATOM     11  H   UNL     1      48.882   8.786  14.633  0.00  0.00    +0.000 HD
BRANCH   8  12
ATOM     12  C   UNL     1      47.467   3.594  17.466  0.00  0.00    +0.000 C 
ATOM     13  N   UNL     1      48.325   3.182  18.443  0.00  0.00    +0.000 N 
ATOM     14  O   UNL     1      46.384   3.034  17.298  0.00  0.00    +0.000 OA
ATOM     15  H   UNL     1      49.139   3.702  18.745  0.00  0.00    +0.000 HD
ATOM     16  H   UNL     1      47.993   2.443  19.052  0.00  0.00    +0.000 HD
ENDBRANCH   8  12
ENDBRANCH   1   4
BRANCH   1  21
ATOM     17  C   UNL     1      45.338   7.043  11.498  0.00  0.00    +0.000 A 
ATOM     18  C   UNL     1      44.721   8.184  12.029  0.00  0.00    +0.000 A 
ATOM     19  N   UNL     1      45.344   9.196  12.671  0.00  0.00    +0.000 NA
ATOM     20  C   UNL     1      46.671   9.051  12.843  0.00  0.00    +0.000 A 
ATOM     21  C   UNL     1      47.409   7.934  12.454  0.00  0.00    +0.000 A 
ATOM     22  C   UNL     1      46.710   6.946  11.749  0.00  0.00    +0.000 A 
BRANCH  17  27
ATOM     23  C   UNL     1      42.994   4.456  11.576  0.00  0.00    +0.000 C 
ATOM     24  C   UNL     1      43.640   3.411  10.651  0.00  0.00    +0.000 C 
ATOM     25  C   UNL     1      45.127   3.700  10.424  0.00  0.00    +0.000 C 
ATOM     26  C   UNL     1      45.341   5.122   9.912  0.00  0.00    +0.000 C 
ATOM     27  N   UNL     1      44.649   6.090  10.769  0.00  0.00    +0.000 N 
ATOM     28  C   UNL     1      43.222   5.865  11.029  0.00  0.00    +0.000 C 
BRANCH  23  30
ATOM     29  N   UNL     1      44.106   4.221  14.114  0.00  0.00    +0.000 NA
ATOM     30  C   UNL     1      43.602   4.328  12.964  0.00  0.00    +0.000 C 
ENDBRANCH  23  30
ENDBRANCH  17  27
ENDBRANCH   1  21
TORSDOF 5
ENDMDL
MODEL 5
REMARK VINA RESULT:    -5.986      3.913      8.466
REMARK INTER + INTRA:          -8.204
REMARK INTER:                  -7.667
REMARK INTRA:                  -0.537
REMARK UNBOUND:                -0.468
REMARK  Name = 
REMARK  5 active torsions:
REMARK  status: ('A' for Active; 'I' for Inactive)
REMARK    1  A    between atoms: C_2  and  C_3
REMARK    2  A    between atoms: N_7  and  C_8
REMARK    3  A    between atoms: C_12  and  C_13
REMARK    4  A    between atoms: C_13  and  N_14
REMARK    5  A    between atoms: C_18  and  C_19
REMARK                            x       y       z     vdW  Elec       q    Type
REMARK                         _______ _______ _______ _____ _____    ______ ____
ROOT
ATOM      1  C   UNL     1      49.191   7.788  12.678  0.00  0.00    +0.000 C 
ATOM      2  C   UNL     1      49.863   9.101  12.301  0.00  0.00    +0.000 C 
ATOM      3  C   UNL     1      50.024   7.916  11.410  0.00  0.00    +0.000 C 
ENDROOT
BRANCH   1   4
ATOM      4  N   UNL     1      49.708   6.996  13.831  0.00  0.00    +0.000 N 
ATOM      5  C   UNL     1      49.485   7.518  15.130  0.00  0.00    +0.000 A 
ATOM      6  C   UNL     1      50.013   6.840  16.229  0.00  0.00    +0.000 A 
ATOM      7  C   UNL     1      49.708   7.282  17.518  0.00  0.00    +0.000 A 
ATOM      8  C   UNL     1      48.875   8.388  17.682  0.00  0.00    +0.000 A 
ATOM      9  C   UNL     1      48.439   9.037  16.545  0.00  0.00    +0.000 A 
ATOM     10  N   UNL     1      48.714   8.615  15.292  0.00  0.00    +0.000 NA
ATOM     11  H   UNL     1      50.704   6.802  13.749  0.00  0.00    +0.000 HD
BRANCH   8  12
ATOM     12  C   UNL     1      48.479   8.835  19.031  0.00  0.00    +0.000 C 
ATOM     13  N   UNL     1      47.448   8.193  19.649  0.00  0.00    +0.000 N 
ATOM     14  O   UNL     1      49.093   9.739  19.600  0.00  0.00    +0.000 OA
ATOM     15  H   UNL     1      47.023   7.339  19.313  0.00  0.00    +0.000 HD
ATOM     16  H   UNL     1      47.263   8.456  20.611  0.00  0.00    +0.000 HD
ENDBRANCH   8  12
ENDBRANCH   1   4
BRANCH   1  21
ATOM     17  C   UNL     1      45.582   6.459  12.607  0.00  0.00    +0.000 A 
ATOM     18  C   UNL     1      44.960   7.691  12.360  0.00  0.00    +0.000 A 
ATOM     19  N   UNL     1      45.588   8.866  12.139  0.00  0.00    +0.000 NA
ATOM     20  C   UNL     1      46.932   8.834  12.210  0.00  0.00    +0.000 A 
ATOM     21  C   UNL     1      47.687   7.708  12.536  0.00  0.00    +0.000 A 
ATOM     22  C   UNL     1      46.975   6.513  12.704  0.00  0.00    +0.000 A 
BRANCH  17  27
ATOM     23  C   UNL     1      44.892   3.323  11.233  0.00  0.00    +0.000 C 
ATOM     24  C   UNL     1      43.369   3.217  11.427  0.00  0.00    +0.000 C 
ATOM     25  C   UNL     1      42.741   4.584  11.720  0.00  0.00    +0.000 C 
ATOM     26  C   UNL     1      43.419   5.260  12.908  0.00  0.00    +0.000 C 
ATOM     27  N   UNL     1      44.876   5.276  12.732  0.00  0.00    +0.000 N 
ATOM     28  C   UNL     1      45.537   3.998  12.444  0.00  0.00    +0.000 C 
BRANCH  23  30
ATOM     29  N   UNL     1      45.406   4.794   8.930  0.00  0.00    +0.000 NA
ATOM     30  C   UNL     1      45.173   4.127   9.974  0.00  0.00    +0.000 C 
ENDBRANCH  23  30
ENDBRANCH  17  27
ENDBRANCH   1  21
TORSDOF 5
ENDMDL
MODEL 6
REMARK VINA RESULT:    -5.981      3.703      7.926
REMARK INTER + INTRA:          -8.198
REMARK INTER:                  -7.536
REMARK INTRA:                  -0.661
REMARK UNBOUND:                -0.468
REMARK  Name = 
REMARK  5 active torsions:
REMARK  status: ('A' for Active; 'I' for Inactive)
REMARK    1  A    between atoms: C_2  and  C_3
REMARK    2  A    between atoms: N_7  and  C_8
REMARK    3  A    between atoms: C_12  and  C_13
REMARK    4  A    between atoms: C_13  and  N_14
REMARK    5  A    between atoms: C_18  and  C_19
REMARK                            x       y       z     vdW  Elec       q    Type
REMARK                         _______ _______ _______ _____ _____    ______ ____
ROOT
ATOM      1  C   UNL     1      49.302   8.799  15.049  0.00  0.00    +0.000 C 
ATOM      2  C   UNL     1      48.211   9.413  15.915  0.00  0.00    +0.000 C 
ATOM      3  C   UNL     1      49.196  10.306  15.239  0.00  0.00    +0.000 C 
ENDROOT
BRANCH   1   4
ATOM      4  N   UNL     1      50.419   8.046  15.688  0.00  0.00    +0.000 N 
ATOM      5  C   UNL     1      50.090   6.841  16.360  0.00  0.00    +0.000 A 
ATOM      6  C   UNL     1      51.097   6.145  17.028  0.00  0.00    +0.000 A 
ATOM      7  C   UNL     1      50.808   4.903  17.598  0.00  0.00    +0.000 A 
ATOM      8  C   UNL     1      49.521   4.380  17.482  0.00  0.00    +0.000 A 
ATOM      9  C   UNL     1      48.568   5.156  16.855  0.00  0.00    +0.000 A 
ATOM     10  N   UNL     1      48.833   6.351  16.287  0.00  0.00    +0.000 NA
ATOM     11  H   UNL     1      50.948   8.621  16.341  0.00  0.00    +0.000 HD
BRANCH   8  12
ATOM     12  C   UNL     1      49.206   3.041  18.014  0.00  0.00    +0.000 C 
ATOM     13  N   UNL     1      48.342   2.949  19.065  0.00  0.00    +0.000 N 
ATOM     14  O   UNL     1      49.679   2.029  17.495  0.00  0.00    +0.000 OA
ATOM     15  H   UNL     1      47.789   3.719  19.419  0.00  0.00    +0.000 HD
ATOM     16  H   UNL     1      48.069   2.013  19.345  0.00  0.00    +0.000 HD
ENDBRANCH   8  12
ENDBRANCH   1   4
BRANCH   1  21
ATOM     17  C   UNL     1      47.232   7.186  12.236  0.00  0.00    +0.000 A 
ATOM     18  C   UNL     1      48.210   7.288  11.236  0.00  0.00    +0.000 A 
ATOM     19  N   UNL     1      49.470   7.742  11.404  0.00  0.00    +0.000 NA
ATOM     20  C   UNL     1      49.778   8.172  12.641  0.00  0.00    +0.000 A 
ATOM     21  C   UNL     1      48.889   8.219  13.714  0.00  0.00    +0.000 A 
ATOM     22  C   UNL     1      47.614   7.686  13.484  0.00  0.00    +0.000 A 
BRANCH  17  27
ATOM     23  C   UNL     1      44.920   4.758  13.213  0.00  0.00    +0.000 C 
ATOM     24  C   UNL     1      44.418   4.231  11.858  0.00  0.00    +0.000 C 
ATOM     25  C   UNL     1      45.357   4.627  10.715  0.00  0.00    +0.000 C 
ATOM     26  C   UNL     1      45.587   6.136  10.688  0.00  0.00    +0.000 C 
ATOM     27  N   UNL     1      45.989   6.623  12.012  0.00  0.00    +0.000 N 
ATOM     28  C   UNL     1      45.131   6.271  13.151  0.00  0.00    +0.000 C 
BRANCH  23  30
ATOM     29  N   UNL     1      47.307   3.481  13.848  0.00  0.00    +0.000 NA
ATOM     30  C   UNL     1      46.225   4.060  13.560  0.00  0.00    +0.000 C 
ENDBRANCH  23  30
ENDBRANCH  17  27
ENDBRANCH   1  21
TORSDOF 5
ENDMDL
MODEL 7
REMARK VINA RESULT:    -5.928      4.978      8.242
REMARK INTER + INTRA:          -8.130
REMARK INTER:                  -8.576
REMARK INTRA:                   0.446
REMARK UNBOUND:                -0.468
REMARK  Name = 
REMARK  5 active torsions:
REMARK  status: ('A' for Active; 'I' for Inactive)
REMARK    1  A    between atoms: C_2  and  C_3
REMARK    2  A    between atoms: N_7  and  C_8
REMARK    3  A    between atoms: C_12  and  C_13
REMARK    4  A    between atoms: C_13  and  N_14
REMARK    5  A    between atoms: C_18  and  C_19
REMARK                            x       y       z     vdW  Elec       q    Type
REMARK                         _______ _______ _______ _____ _____    ______ ____
ROOT
ATOM      1  C   UNL     1      48.110   4.803  17.000  0.00  0.00    +0.000 C 
ATOM      2  C   UNL     1      47.436   3.635  17.704  0.00  0.00    +0.000 C 
ATOM      3  C   UNL     1      47.086   5.029  18.102  0.00  0.00    +0.000 C 
ENDROOT
BRANCH   1   4
ATOM      4  N   UNL     1      49.552   5.089  17.253  0.00  0.00    +0.000 N 
ATOM      5  C   UNL     1      50.413   3.976  17.433  0.00  0.00    +0.000 A 
ATOM      6  C   UNL     1      51.755   4.205  17.740  0.00  0.00    +0.000 A 
ATOM      7  C   UNL     1      52.635   3.123  17.810  0.00  0.00    +0.000 A 
ATOM      8  C   UNL     1      52.157   1.836  17.565  0.00  0.00    +0.000 A 
ATOM      9  C   UNL     1      50.807   1.689  17.323  0.00  0.00    +0.000 A 
ATOM     10  N   UNL     1      49.945   2.724  17.238  0.00  0.00    +0.000 NA
ATOM     11  H   UNL     1      49.688   5.709  18.049  0.00  0.00    +0.000 HD
BRANCH   8  12
ATOM     12  C   UNL     1      53.077   0.683  17.564  0.00  0.00    +0.000 C 
ATOM     13  N   UNL     1      52.794  -0.371  18.382  0.00  0.00    +0.000 N 
ATOM     14  O   UNL     1      54.052   0.656  16.813  0.00  0.00    +0.000 OA
ATOM     15  H   UNL     1      51.925  -0.485  18.886  0.00  0.00    +0.000 HD
ATOM     16  H   UNL     1      53.388  -1.187  18.288  0.00  0.00    +0.000 HD
ENDBRANCH   8  12
ENDBRANCH   1   4
BRANCH   1  21
ATOM     17  C   UNL     1      46.180   4.801  13.672  0.00  0.00    +0.000 A 
ATOM     18  C   UNL     1      46.973   5.758  13.023  0.00  0.00    +0.000 A 
ATOM     19  N   UNL     1      48.092   6.327  13.520  0.00  0.00    +0.000 NA
ATOM     20  C   UNL     1      48.432   5.960  14.769  0.00  0.00    +0.000 A 
ATOM     21  C   UNL     1      47.695   5.092  15.573  0.00  0.00    +0.000 A 
ATOM     22  C   UNL     1      46.574   4.499  14.979  0.00  0.00    +0.000 A 
BRANCH  17  27
ATOM     23  C   UNL     1      44.702   3.823  10.663  0.00  0.00    +0.000 C 
ATOM     24  C   UNL     1      43.229   4.202  10.891  0.00  0.00    +0.000 C 
ATOM     25  C   UNL     1      43.072   5.173  12.066  0.00  0.00    +0.000 C 
ATOM     26  C   UNL     1      43.719   4.617  13.332  0.00  0.00    +0.000 C 
ATOM     27  N   UNL     1      45.097   4.190  13.065  0.00  0.00    +0.000 N 
ATOM     28  C   UNL     1      45.314   3.264  11.947  0.00  0.00    +0.000 C 
BRANCH  23  30
ATOM     29  N   UNL     1      46.097   6.084   9.841  0.00  0.00    +0.000 NA
ATOM     30  C   UNL     1      45.465   5.059  10.214  0.00  0.00    +0.000 C 
ENDBRANCH  23  30
ENDBRANCH  17  27
ENDBRANCH   1  21
TORSDOF 5
ENDMDL
MODEL 8
REMARK VINA RESULT:    -5.548      5.087      7.788
REMARK INTER + INTRA:          -7.638
REMARK INTER:                  -7.554
REMARK INTRA:                  -0.085
REMARK UNBOUND:                -0.468
REMARK  Name = 
REMARK  5 active torsions:
REMARK  status: ('A' for Active; 'I' for Inactive)
REMARK    1  A    between atoms: C_2  and  C_3
REMARK    2  A    between atoms: N_7  and  C_8
REMARK    3  A    between atoms: C_12  and  C_13
REMARK    4  A    between atoms: C_13  and  N_14
REMARK    5  A    between atoms: C_18  and  C_19
REMARK                            x       y       z     vdW  Elec       q    Type
REMARK                         _______ _______ _______ _____ _____    ______ ____
ROOT
ATOM      1  C   UNL     1      48.262   4.694  17.308  0.00  0.00    +0.000 C 
ATOM      2  C   UNL     1      47.527   3.436  17.748  0.00  0.00    +0.000 C 
ATOM      3  C   UNL     1      47.114   4.756  18.305  0.00  0.00    +0.000 C 
ENDROOT
BRANCH   1   4
ATOM      4  N   UNL     1      49.661   4.933  17.768  0.00  0.00    +0.000 N 
ATOM      5  C   UNL     1      50.533   3.815  17.804  0.00  0.00    +0.000 A 
ATOM      6  C   UNL     1      51.828   3.987  18.293  0.00  0.00    +0.000 A 
ATOM      7  C   UNL     1      52.730   2.922  18.231  0.00  0.00    +0.000 A 
ATOM      8  C   UNL     1      52.320   1.711  17.674  0.00  0.00    +0.000 A 
ATOM      9  C   UNL     1      51.007   1.605  17.265  0.00  0.00    +0.000 A 
ATOM     10  N   UNL     1      50.127   2.628  17.305  0.00  0.00    +0.000 NA
ATOM     11  H   UNL     1      49.695   5.373  18.685  0.00  0.00    +0.000 HD
BRANCH   8  12
ATOM     12  C   UNL     1      53.271   0.592  17.533  0.00  0.00    +0.000 C 
ATOM     13  N   UNL     1      53.060  -0.534  18.272  0.00  0.00    +0.000 N 
ATOM     14  O   UNL     1      54.208   0.658  16.736  0.00  0.00    +0.000 OA
ATOM     15  H   UNL     1      52.220  -0.718  18.805  0.00  0.00    +0.000 HD
ATOM     16  H   UNL     1      53.670  -1.321  18.082  0.00  0.00    +0.000 HD
ENDBRANCH   8  12
ENDBRANCH   1   4
BRANCH   1  21
ATOM     17  C   UNL     1      48.377   6.801  14.092  0.00  0.00    +0.000 A 
ATOM     18  C   UNL     1      47.578   5.952  13.313  0.00  0.00    +0.000 A 
ATOM     19  N   UNL     1      46.954   4.835  13.744  0.00  0.00    +0.000 NA
ATOM     20  C   UNL     1      47.172   4.502  15.030  0.00  0.00    +0.000 A 
ATOM     21  C   UNL     1      48.012   5.192  15.902  0.00  0.00    +0.000 A 
ATOM     22  C   UNL     1      48.586   6.370  15.405  0.00  0.00    +0.000 A 
BRANCH  17  27
ATOM     23  C   UNL     1      47.712   9.989  12.829  0.00  0.00    +0.000 C 
ATOM     24  C   UNL     1      48.727  10.095  11.678  0.00  0.00    +0.000 C 
ATOM     25  C   UNL     1      49.284   8.722  11.287  0.00  0.00    +0.000 C 
ATOM     26  C   UNL     1      49.870   7.999  12.497  0.00  0.00    +0.000 C 
ATOM     27  N   UNL     1      48.909   7.982  13.606  0.00  0.00    +0.000 N 
ATOM     28  C   UNL     1      48.335   9.267  14.024  0.00  0.00    +0.000 C 
BRANCH  23  30
ATOM     29  N   UNL     1      45.475   8.601  11.932  0.00  0.00    +0.000 NA
ATOM     30  C   UNL     1      46.489   9.230  12.338  0.00  0.00    +0.000 C 
ENDBRANCH  23  30
ENDBRANCH  17  27
ENDBRANCH   1  21
TORSDOF 5
ENDMDL
MODEL 9
REMARK VINA RESULT:    -5.308      3.294      7.302
REMARK INTER + INTRA:          -7.328
REMARK INTER:                  -7.155
REMARK INTRA:                  -0.173
REMARK UNBOUND:                -0.468
REMARK  Name = 
REMARK  5 active torsions:
REMARK  status: ('A' for Active; 'I' for Inactive)
REMARK    1  A    between atoms: C_2  and  C_3
REMARK    2  A    between atoms: N_7  and  C_8
REMARK    3  A    between atoms: C_12  and  C_13
REMARK    4  A    between atoms: C_13  and  N_14
REMARK    5  A    between atoms: C_18  and  C_19
REMARK                            x       y       z     vdW  Elec       q    Type
REMARK                         _______ _______ _______ _____ _____    ______ ____
ROOT
ATOM      1  C   UNL     1      48.078   8.280  12.877  0.00  0.00    +0.000 C 
ATOM      2  C   UNL     1      48.282   9.456  13.821  0.00  0.00    +0.000 C 
ATOM      3  C   UNL     1      47.127   9.468  12.879  0.00  0.00    +0.000 C 
ENDROOT
BRANCH   1   4
ATOM      4  N   UNL     1      49.014   8.078  11.734  0.00  0.00    +0.000 N 
ATOM      5  C   UNL     1      50.398   8.258  11.987  0.00  0.00    +0.000 A 
ATOM      6  C   UNL     1      51.298   8.144  10.927  0.00  0.00    +0.000 A 
ATOM      7  C   UNL     1      52.670   8.209  11.183  0.00  0.00    +0.000 A 
ATOM      8  C   UNL     1      53.113   8.379  12.494  0.00  0.00    +0.000 A 
ATOM      9  C   UNL     1      52.159   8.539  13.478  0.00  0.00    +0.000 A 
ATOM     10  N   UNL     1      50.831   8.465  13.250  0.00  0.00    +0.000 NA
ATOM     11  H   UNL     1      48.775   8.659  10.933  0.00  0.00    +0.000 HD
BRANCH   8  12
ATOM     12  C   UNL     1      54.555   8.382  12.803  0.00  0.00    +0.000 C 
ATOM     13  N   UNL     1      54.939   8.251  14.105  0.00  0.00    +0.000 N 
ATOM     14  O   UNL     1      55.392   8.459  11.902  0.00  0.00    +0.000 OA
ATOM     15  H   UNL     1      54.314   8.009  14.862  0.00  0.00    +0.000 HD
ATOM     16  H   UNL     1      55.934   8.158  14.276  0.00  0.00    +0.000 HD
ENDBRANCH   8  12
ENDBRANCH   1   4
BRANCH   1  21
ATOM     17  C   UNL     1      46.044   5.083  13.541  0.00  0.00    +0.000 A 
ATOM     18  C   UNL     1      46.860   4.581  14.565  0.00  0.00    +0.000 A 
ATOM     19  N   UNL     1      47.930   5.204  15.102  0.00  0.00    +0.000 NA
ATOM     20  C   UNL     1      48.250   6.393  14.559  0.00  0.00    +0.000 A 
ATOM     21  C   UNL     1      47.593   6.979  13.477  0.00  0.00    +0.000 A 
ATOM     22  C   UNL     1      46.462   6.303  13.002  0.00  0.00    +0.000 A 
BRANCH  17  27
ATOM     23  C   UNL     1      44.416   3.565  10.850  0.00  0.00    +0.000 C 
ATOM     24  C   UNL     1      42.977   4.088  11.010  0.00  0.00    +0.000 C 
ATOM     25  C   UNL     1      42.919   5.304  11.940  0.00  0.00    +0.000 C 
ATOM     26  C   UNL     1      43.567   4.999  13.288  0.00  0.00    +0.000 C 
ATOM     27  N   UNL     1      44.906   4.430  13.102  0.00  0.00    +0.000 N 
ATOM     28  C   UNL     1      45.029   3.265  12.217  0.00  0.00    +0.000 C 
BRANCH  23  30
ATOM     29  N   UNL     1      45.927   5.486   9.522  0.00  0.00    +0.000 NA
ATOM     30  C   UNL     1      45.242   4.615  10.124  0.00  0.00    +0.000 C 
ENDBRANCH  23  30
ENDBRANCH  17  27
ENDBRANCH   1  21
TORSDOF 5
ENDMDL
