MODEL 1
REMARK VINA RESULT:    -8.429      0.000      0.000
REMARK INTER + INTRA:         -12.329
REMARK INTER:                 -11.385
REMARK INTRA:                  -0.944
REMARK UNBOUND:                -0.944
REMARK  Name = 
REMARK  6 active torsions:
REMARK  status: ('A' for Active; 'I' for Inactive)
REMARK    1  A    between atoms: C_2  and  C_4
REMARK    2  A    between atoms: C_7  and  O_8
REMARK    3  A    between atoms: O_8  and  C_9
REMARK    4  A    between atoms: C_9  and  C_10
REMARK    5  A    between atoms: C_14  and  O_15
REMARK    6  A    between atoms: O_15  and  C_16
REMARK                            x       y       z     vdW  Elec       q    Type
REMARK                         _______ _______ _______ _____ _____    ______ ____
ROOT
ATOM      1  C   UNL     1      43.928   4.836  11.356  0.00  0.00    +0.000 C 
ATOM      2  C   UNL     1      42.665   5.129  12.158  0.00  0.00    +0.000 C 
ATOM      3  C   UNL     1      43.042   6.019  11.020  0.00  0.00    +0.000 C 
ENDROOT
BRANCH   1   4
ATOM      4  C   UNL     1      45.274   5.048  12.031  0.00  0.00    +0.000 A 
ATOM      5  C   UNL     1      46.026   6.210  11.803  0.00  0.00    +0.000 A 
ATOM      6  C   UNL     1      47.250   6.423  12.444  0.00  0.00    +0.000 A 
ATOM      7  C   UNL     1      47.747   5.479  13.343  0.00  0.00    +0.000 A 
ATOM      8  C   UNL     1      47.003   4.339  13.628  0.00  0.00    +0.000 A 
ATOM      9  C   UNL     1      45.798   4.118  12.949  0.00  0.00    +0.000 A 
BRANCH   8  10
ATOM     10  O   UNL     1      47.364   3.353  14.496  0.00  0.00    +0.000 OA
BRANCH  10  11
ATOM     11  C   UNL     1      47.535   3.679  15.867  0.00  0.00    +0.000 C 
ATOM     12  F   UNL     1      48.606   4.457  16.129  0.00  0.00    +0.000 F 
ATOM     13  F   UNL     1      46.433   4.337  16.295  0.00  0.00    +0.000 F 
ATOM     14  F   UNL     1      47.643   2.539  16.585  0.00  0.00    +0.000 F 
ENDBRANCH  10  11
ENDBRANCH   8  10
ENDBRANCH   1   4
BRANCH   1  15
ATOM     15  O   UNL     1      43.759   3.617  10.595  0.00  0.00    +0.000 OA
BRANCH  15  19
ATOM     16  C   UNL     1      46.409   2.674   7.591  0.00  0.00    +0.000 A 
ATOM     17  C   UNL     1      45.907   1.676   8.423  0.00  0.00    +0.000 A 
ATOM     18  C   UNL     1      45.018   2.025   9.434  0.00  0.00    +0.000 A 
ATOM     19  C   UNL     1      44.664   3.360   9.583  0.00  0.00    +0.000 A 
ATOM     20  N   UNL     1      45.130   4.353   8.798  0.00  0.00    +0.000 NA
ATOM     21  C   UNL     1      46.010   3.988   7.827  0.00  0.00    +0.000 A 
BRANCH  16  23
ATOM     22  N   UNL     1      47.308   3.206   5.394  0.00  0.00    +0.000 N 
ATOM     23  C   UNL     1      47.355   2.395   6.492  0.00  0.00    +0.000 C 
ATOM     24  O   UNL     1      48.176   1.492   6.576  0.00  0.00    +0.000 OA
ATOM     25  H   UNL     1      48.028   3.060   4.696  0.00  0.00    +0.000 HD
ATOM     26  H   UNL     1      46.833   4.097   5.391  0.00  0.00    +0.000 HD
ENDBRANCH  16  23
ENDBRANCH  15  19
ENDBRANCH   1  15
TORSDOF 6
ENDMDL
MODEL 2
REMARK VINA RESULT:    -7.496      2.651      3.298
REMARK INTER + INTRA:         -11.068
REMARK INTER:                 -10.956
REMARK INTRA:                  -0.112
REMARK UNBOUND:                -0.944
REMARK  Name = 
REMARK  6 active torsions:
REMARK  status: ('A' for Active; 'I' for Inactive)
REMARK    1  A    between atoms: C_2  and  C_4
REMARK    2  A    between atoms: C_7  and  O_8
REMARK    3  A    between atoms: O_8  and  C_9
REMARK    4  A    between atoms: C_9  and  C_10
REMARK    5  A    between atoms: C_14  and  O_15
REMARK    6  A    between atoms: O_15  and  C_16
REMARK                            x       y       z     vdW  Elec       q    Type
REMARK                         _______ _______ _______ _____ _____    ______ ____
ROOT
ATOM      1  C   UNL     1      43.817   4.779  11.182  0.00  0.00    +0.000 C 
ATOM      2  C   UNL     1      43.058   3.558  11.691  0.00  0.00    +0.000 C 
ATOM      3  C   UNL     1      42.508   4.925  11.931  0.00  0.00    +0.000 C 
ENDROOT
BRANCH   1   4
ATOM      4  C   UNL     1      45.134   5.136  11.852  0.00  0.00    +0.000 A 
ATOM      5  C   UNL     1      45.757   4.252  12.746  0.00  0.00    +0.000 A 
ATOM      6  C   UNL     1      46.983   4.563  13.342  0.00  0.00    +0.000 A 
ATOM      7  C   UNL     1      47.624   5.766  13.047  0.00  0.00    +0.000 A 
ATOM      8  C   UNL     1      47.056   6.643  12.129  0.00  0.00    +0.000 A 
ATOM      9  C   UNL     1      45.808   6.339  11.569  0.00  0.00    +0.000 A 
BRANCH   8  10
ATOM     10  O   UNL     1      47.584   7.838  11.741  0.00  0.00    +0.000 OA
BRANCH  10  11
ATOM     11  C   UNL     1      47.056   9.031  12.302  0.00  0.00    +0.000 C 
ATOM     12  F   UNL     1      46.010   9.552  11.626  0.00  0.00    +0.000 F 
ATOM     13  F   UNL     1      46.644   8.770  13.564  0.00  0.00    +0.000 F 
ATOM     14  F   UNL     1      48.035   9.962  12.368  0.00  0.00    +0.000 F 
ENDBRANCH  10  11
ENDBRANCH   8  10
ENDBRANCH   1   4
BRANCH   1  15
ATOM     15  O   UNL     1      43.784   4.812   9.736  0.00  0.00    +0.000 OA
BRANCH  15  19
ATOM     16  C   UNL     1      46.621   2.604   7.732  0.00  0.00    +0.000 A 
ATOM     17  C   UNL     1      45.690   1.971   8.553  0.00  0.00    +0.000 A 
ATOM     18  C   UNL     1      44.747   2.744   9.224  0.00  0.00    +0.000 A 
ATOM     19  C   UNL     1      44.769   4.122   9.054  0.00  0.00    +0.000 A 
ATOM     20  N   UNL     1      45.654   4.769   8.269  0.00  0.00    +0.000 NA
ATOM     21  C   UNL     1      46.576   3.993   7.637  0.00  0.00    +0.000 A 
BRANCH  16  23
ATOM     22  N   UNL     1      48.600   2.593   6.318  0.00  0.00    +0.000 N 
ATOM     23  C   UNL     1      47.656   1.864   6.982  0.00  0.00    +0.000 C 
ATOM     24  O   UNL     1      47.687   0.641   6.984  0.00  0.00    +0.000 OA
ATOM     25  H   UNL     1      49.355   2.069   5.893  0.00  0.00    +0.000 HD
ATOM     26  H   UNL     1      48.758   3.574   6.495  0.00  0.00    +0.000 HD
ENDBRANCH  16  23
ENDBRANCH  15  19
ENDBRANCH   1  15
TORSDOF 6
ENDMDL
MODEL 3
REMARK VINA RESULT:    -7.069      4.554      7.410
REMARK INTER + INTRA:         -10.492
REMARK INTER:                  -9.942
REMARK INTRA:                  -0.550
REMARK UNBOUND:                -0.944
REMARK  Name = 
REMARK  6 active torsions:
REMARK  status: ('A' for Active; 'I' for Inactive)
REMARK    1  A    between atoms: C_2  and  C_4
REMARK    2  A    between atoms: C_7  and  O_8
REMARK    3  A    between atoms: O_8  and  C_9
REMARK    4  A    between atoms: C_9  and  C_10
REMARK    5  A    between atoms: C_14  and  O_15
REMARK    6  A    between atoms: O_15  and  C_16
REMARK                            x       y       z     vdW  Elec       q    Type
REMARK                         _______ _______ _______ _____ _____    ______ ____
ROOT
ATOM      1  C   UNL     1      45.650   6.059  11.615  0.00  0.00    +0.000 C 
ATOM      2  C   UNL     1      45.112   7.449  11.298  0.00  0.00    +0.000 C 
ATOM      3  C   UNL     1      44.594   6.707  12.486  0.00  0.00    +0.000 C 
ENDROOT
BRANCH   1   4
ATOM      4  C   UNL     1      45.285   4.917  10.680  0.00  0.00    +0.000 A 
ATOM      5  C   UNL     1      44.482   3.850  11.115  0.00  0.00    +0.000 A 
ATOM      6  C   UNL     1      44.119   2.813  10.251  0.00  0.00    +0.000 A 
ATOM      7  C   UNL     1      44.540   2.824   8.922  0.00  0.00    +0.000 A 
ATOM      8  C   UNL     1      45.297   3.890   8.446  0.00  0.00    +0.000 A 
ATOM      9  C   UNL     1      45.688   4.903   9.332  0.00  0.00    +0.000 A 
BRANCH   8  10
ATOM     10  O   UNL     1      45.756   4.031   7.172  0.00  0.00    +0.000 OA
BRANCH  10  11
ATOM     11  C   UNL     1      46.722   3.108   6.689  0.00  0.00    +0.000 C 
ATOM     12  F   UNL     1      46.416   1.812   6.906  0.00  0.00    +0.000 F 
ATOM     13  F   UNL     1      46.857   3.283   5.355  0.00  0.00    +0.000 F 
ATOM     14  F   UNL     1      47.916   3.373   7.266  0.00  0.00    +0.000 F 
ENDBRANCH  10  11
ENDBRANCH   8  10
ENDBRANCH   1   4
BRANCH   1  15
ATOM     15  O   UNL     1      47.032   6.148  12.035  0.00  0.00    +0.000 OA
BRANCH  15  19
ATOM     16  C   UNL     1      47.877   4.969  15.886  0.00  0.00    +0.000 A 
ATOM     17  C   UNL     1      47.127   4.146  15.049  0.00  0.00    +0.000 A 
ATOM     18  C   UNL     1      46.851   4.574  13.754  0.00  0.00    +0.000 A 
ATOM     19  C   UNL     1      47.330   5.810  13.342  0.00  0.00    +0.000 A 
ATOM     20  N   UNL     1      48.058   6.633  14.123  0.00  0.00    +0.000 NA
ATOM     21  C   UNL     1      48.301   6.200  15.390  0.00  0.00    +0.000 A 
BRANCH  16  23
ATOM     22  N   UNL     1      47.188   4.375  18.142  0.00  0.00    +0.000 N 
ATOM     23  C   UNL     1      48.219   4.596  17.274  0.00  0.00    +0.000 C 
ATOM     24  O   UNL     1      49.382   4.455  17.625  0.00  0.00    +0.000 OA
ATOM     25  H   UNL     1      47.440   4.026  19.059  0.00  0.00    +0.000 HD
ATOM     26  H   UNL     1      46.236   4.234  17.838  0.00  0.00    +0.000 HD
ENDBRANCH  16  23
ENDBRANCH  15  19
ENDBRANCH   1  15
TORSDOF 6
ENDMDL
MODEL 4
REMARK VINA RESULT:    -7.033      2.678      3.373
REMARK INTER + INTRA:         -10.443
REMARK INTER:                 -10.651
REMARK INTRA:                   0.208
REMARK UNBOUND:                -0.944
REMARK  Name = 
REMARK  6 active torsions:
REMARK  status: ('A' for Active; 'I' for Inactive)
REMARK    1  A    between atoms: C_2  and  C_4
REMARK    2  A    between atoms: C_7  and  O_8
REMARK    3  A    between atoms: O_8  and  C_9
REMARK    4  A    between atoms: C_9  and  C_10
REMARK    5  A    between atoms: C_14  and  O_15
REMARK    6  A    between atoms: O_15  and  C_16
REMARK                            x       y       z     vdW  Elec       q    Type
REMARK                         _______ _______ _______ _____ _____    ______ ____
ROOT
ATOM      1  C   UNL     1      44.138   4.566  11.557  0.00  0.00    +0.000 C 
ATOM      2  C   UNL     1      44.816   3.386  12.244  0.00  0.00    +0.000 C 
ATOM      3  C   UNL     1      43.506   3.889  12.756  0.00  0.00    +0.000 C 
ENDROOT
BRANCH   1   4
ATOM      4  C   UNL     1      44.775   5.940  11.693  0.00  0.00    +0.000 A 
ATOM      5  C   UNL     1      44.075   7.103  11.337  0.00  0.00    +0.000 A 
ATOM      6  C   UNL     1      44.645   8.371  11.488  0.00  0.00    +0.000 A 
ATOM      7  C   UNL     1      45.930   8.506  12.012  0.00  0.00    +0.000 A 
ATOM      8  C   UNL     1      46.632   7.376  12.419  0.00  0.00    +0.000 A 
ATOM      9  C   UNL     1      46.066   6.110  12.225  0.00  0.00    +0.000 A 
BRANCH   8  10
ATOM     10  O   UNL     1      47.883   7.372  12.960  0.00  0.00    +0.000 OA
BRANCH  10  11
ATOM     11  C   UNL     1      48.974   7.802  12.159  0.00  0.00    +0.000 C 
ATOM     12  F   UNL     1      49.195   9.134  12.182  0.00  0.00    +0.000 F 
ATOM     13  F   UNL     1      50.098   7.189  12.596  0.00  0.00    +0.000 F 
ATOM     14  F   UNL     1      48.763   7.421  10.879  0.00  0.00    +0.000 F 
ENDBRANCH  10  11
ENDBRANCH   8  10
ENDBRANCH   1   4
BRANCH   1  15
ATOM     15  O   UNL     1      43.689   4.177  10.237  0.00  0.00    +0.000 OA
BRANCH  15  19
ATOM     16  C   UNL     1      46.505   2.556   7.711  0.00  0.00    +0.000 A 
ATOM     17  C   UNL     1      46.300   3.934   7.741  0.00  0.00    +0.000 A 
ATOM     18  C   UNL     1      45.336   4.453   8.601  0.00  0.00    +0.000 A 
ATOM     19  C   UNL     1      44.608   3.578   9.396  0.00  0.00    +0.000 A 
ATOM     20  N   UNL     1      44.779   2.240   9.393  0.00  0.00    +0.000 NA
ATOM     21  C   UNL     1      45.715   1.756   8.534  0.00  0.00    +0.000 A 
BRANCH  16  23
ATOM     22  N   UNL     1      48.575   2.672   6.438  0.00  0.00    +0.000 N 
ATOM     23  C   UNL     1      47.507   1.918   6.833  0.00  0.00    +0.000 C 
ATOM     24  O   UNL     1      47.402   0.747   6.498  0.00  0.00    +0.000 OA
ATOM     25  H   UNL     1      49.298   2.190   5.918  0.00  0.00    +0.000 HD
ATOM     26  H   UNL     1      48.827   3.541   6.886  0.00  0.00    +0.000 HD
ENDBRANCH  16  23
ENDBRANCH  15  19
ENDBRANCH   1  15
TORSDOF 6
ENDMDL
MODEL 5
REMARK VINA RESULT:    -6.985      4.462      7.124
REMARK INTER + INTRA:         -10.379
REMARK INTER:                  -9.921
REMARK INTRA:                  -0.457
REMARK UNBOUND:                -0.944
REMARK  Name = 
REMARK  6 active torsions:
REMARK  status: ('A' for Active; 'I' for Inactive)
REMARK    1  A    between atoms: C_2  and  C_4
REMARK    2  A    between atoms: C_7  and  O_8
REMARK    3  A    between atoms: O_8  and  C_9
REMARK    4  A    between atoms: C_9  and  C_10
REMARK    5  A    between atoms: C_14  and  O_15
REMARK    6  A    between atoms: O_15  and  C_16
REMARK                            x       y       z     vdW  Elec       q    Type
REMARK                         _______ _______ _______ _____ _____    ______ ____
ROOT
ATOM      1  C   UNL     1      44.143   5.611  11.228  0.00  0.00    +0.000 C 
ATOM      2  C   UNL     1      42.667   5.958  11.386  0.00  0.00    +0.000 C 
ATOM      3  C   UNL     1      43.413   5.357  12.531  0.00  0.00    +0.000 C 
ENDROOT
BRANCH   1   4
ATOM      4  C   UNL     1      44.515   4.454  10.314  0.00  0.00    +0.000 A 
ATOM      5  C   UNL     1      44.192   3.130  10.650  0.00  0.00    +0.000 A 
ATOM      6  C   UNL     1      44.505   2.066   9.799  0.00  0.00    +0.000 A 
ATOM      7  C   UNL     1      45.140   2.303   8.581  0.00  0.00    +0.000 A 
ATOM      8  C   UNL     1      45.431   3.608   8.196  0.00  0.00    +0.000 A 
ATOM      9  C   UNL     1      45.149   4.661   9.075  0.00  0.00    +0.000 A 
BRANCH   8  10
ATOM     10  O   UNL     1      46.031   3.975   7.030  0.00  0.00    +0.000 OA
BRANCH  10  11
ATOM     11  C   UNL     1      46.915   3.060   6.399  0.00  0.00    +0.000 C 
ATOM     12  F   UNL     1      46.453   1.793   6.329  0.00  0.00    +0.000 F 
ATOM     13  F   UNL     1      47.147   3.485   5.136  0.00  0.00    +0.000 F 
ATOM     14  F   UNL     1      48.095   3.054   7.060  0.00  0.00    +0.000 F 
ENDBRANCH  10  11
ENDBRANCH   8  10
ENDBRANCH   1   4
BRANCH   1  15
ATOM     15  O   UNL     1      44.925   6.822  11.107  0.00  0.00    +0.000 OA
BRANCH  15  19
ATOM     16  C   UNL     1      48.022   7.437  13.747  0.00  0.00    +0.000 A 
ATOM     17  C   UNL     1      47.033   8.406  13.588  0.00  0.00    +0.000 A 
ATOM     18  C   UNL     1      46.002   8.173  12.683  0.00  0.00    +0.000 A 
ATOM     19  C   UNL     1      45.997   6.984  11.966  0.00  0.00    +0.000 A 
ATOM     20  N   UNL     1      46.936   6.025  12.093  0.00  0.00    +0.000 NA
ATOM     21  C   UNL     1      47.942   6.283  12.971  0.00  0.00    +0.000 A 
BRANCH  16  23
ATOM     22  N   UNL     1      50.414   7.435  14.189  0.00  0.00    +0.000 N 
ATOM     23  C   UNL     1      49.152   7.599  14.684  0.00  0.00    +0.000 C 
ATOM     24  O   UNL     1      48.967   7.902  15.854  0.00  0.00    +0.000 OA
ATOM     25  H   UNL     1      51.176   7.646  14.823  0.00  0.00    +0.000 HD
ATOM     26  H   UNL     1      50.619   7.436  13.201  0.00  0.00    +0.000 HD
ENDBRANCH  16  23
ENDBRANCH  15  19
ENDBRANCH   1  15
TORSDOF 6
ENDMDL
MODEL 6
REMARK VINA RESULT:    -6.711      4.353      7.607
REMARK INTER + INTRA:         -10.008
REMARK INTER:                  -9.010
REMARK INTRA:                  -0.998
REMARK UNBOUND:                -0.944
REMARK  Name = 
REMARK  6 active torsions:
REMARK  status: ('A' for Active; 'I' for Inactive)
REMARK    1  A    between atoms: C_2  and  C_4
REMARK    2  A    between atoms: C_7  and  O_8
REMARK    3  A    between atoms: O_8  and  C_9
REMARK    4  A    between atoms: C_9  and  C_10
REMARK    5  A    between atoms: C_14  and  O_15
REMARK    6  A    between atoms: O_15  and  C_16
REMARK                            x       y       z     vdW  Elec       q    Type
REMARK                         _______ _______ _______ _____ _____    ______ ____
ROOT
ATOM      1  C   UNL     1      46.640   6.342  12.793  0.00  0.00    +0.000 C 
ATOM      2  C   UNL     1      47.086   7.454  11.850  0.00  0.00    +0.000 C 
ATOM      3  C   UNL     1      46.527   7.800  13.191  0.00  0.00    +0.000 C 
ENDROOT
BRANCH   1   4
ATOM      4  C   UNL     1      45.399   5.544  12.426  0.00  0.00    +0.000 A 
ATOM      5  C   UNL     1      44.136   5.895  12.927  0.00  0.00    +0.000 A 
ATOM      6  C   UNL     1      42.987   5.182  12.570  0.00  0.00    +0.000 A 
ATOM      7  C   UNL     1      43.074   4.104  11.689  0.00  0.00    +0.000 A 
ATOM      8  C   UNL     1      44.304   3.760  11.138  0.00  0.00    +0.000 A 
ATOM      9  C   UNL     1      45.452   4.456  11.535  0.00  0.00    +0.000 A 
BRANCH   8  10
ATOM     10  O   UNL     1      44.522   2.744  10.257  0.00  0.00    +0.000 OA
BRANCH  10  11
ATOM     11  C   UNL     1      44.654   3.054   8.877  0.00  0.00    +0.000 C 
ATOM     12  F   UNL     1      44.077   2.162   8.045  0.00  0.00    +0.000 F 
ATOM     13  F   UNL     1      44.085   4.260   8.650  0.00  0.00    +0.000 F 
ATOM     14  F   UNL     1      45.967   3.148   8.567  0.00  0.00    +0.000 F 
ENDBRANCH  10  11
ENDBRANCH   8  10
ENDBRANCH   1   4
BRANCH   1  15
ATOM     15  O   UNL     1      47.790   5.595  13.254  0.00  0.00    +0.000 OA
BRANCH  15  19
ATOM     16  C   UNL     1      48.063   4.757  17.274  0.00  0.00    +0.000 A 
ATOM     17  C   UNL     1      47.214   4.012  16.458  0.00  0.00    +0.000 A 
ATOM     18  C   UNL     1      47.137   4.323  15.104  0.00  0.00    +0.000 A 
ATOM     19  C   UNL     1      47.908   5.368  14.613  0.00  0.00    +0.000 A 
ATOM     20  N   UNL     1      48.740   6.111  15.372  0.00  0.00    +0.000 NA
ATOM     21  C   UNL     1      48.785   5.798  16.695  0.00  0.00    +0.000 A 
BRANCH  16  23
ATOM     22  N   UNL     1      48.313   3.196  19.123  0.00  0.00    +0.000 N 
ATOM     23  C   UNL     1      48.209   4.496  18.721  0.00  0.00    +0.000 C 
ATOM     24  O   UNL     1      48.269   5.414  19.527  0.00  0.00    +0.000 OA
ATOM     25  H   UNL     1      48.510   3.043  20.105  0.00  0.00    +0.000 HD
ATOM     26  H   UNL     1      48.520   2.440  18.486  0.00  0.00    +0.000 HD
ENDBRANCH  16  23
ENDBRANCH  15  19
ENDBRANCH   1  15
TORSDOF 6
ENDMDL
MODEL 7
REMARK VINA RESULT:    -6.698      4.284      6.720
REMARK INTER + INTRA:          -9.991
REMARK INTER:                  -9.798
REMARK INTRA:                  -0.193
REMARK UNBOUND:                -0.944
REMARK  Name = 
REMARK  6 active torsions:
REMARK  status: ('A' for Active; 'I' for Inactive)
REMARK    1  A    between atoms: C_2  and  C_4
REMARK    2  A    between atoms: C_7  and  O_8
REMARK    3  A    between atoms: O_8  and  C_9
REMARK    4  A    between atoms: C_9  and  C_10
REMARK    5  A    between atoms: C_14  and  O_15
REMARK    6  A    between atoms: O_15  and  C_16
REMARK                            x       y       z     vdW  Elec       q    Type
REMARK                         _______ _______ _______ _____ _____    ______ ____
ROOT
ATOM      1  C   UNL     1      44.299   4.371  11.469  0.00  0.00    +0.000 C 
ATOM      2  C   UNL     1      42.856   3.933  11.692  0.00  0.00    +0.000 C 
ATOM      3  C   UNL     1      43.955   3.281  12.464  0.00  0.00    +0.000 C 
ENDROOT
BRANCH   1   4
ATOM      4  C   UNL     1      44.957   4.026  10.143  0.00  0.00    +0.000 A 
ATOM      5  C   UNL     1      45.445   5.030   9.292  0.00  0.00    +0.000 A 
ATOM      6  C   UNL     1      46.077   4.717   8.085  0.00  0.00    +0.000 A 
ATOM      7  C   UNL     1      46.250   3.386   7.705  0.00  0.00    +0.000 A 
ATOM      8  C   UNL     1      45.821   2.367   8.549  0.00  0.00    +0.000 A 
ATOM      9  C   UNL     1      45.153   2.693   9.735  0.00  0.00    +0.000 A 
BRANCH   8  10
ATOM     10  O   UNL     1      45.944   1.032   8.305  0.00  0.00    +0.000 OA
BRANCH  10  11
ATOM     11  C   UNL     1      46.882   0.600   7.330  0.00  0.00    +0.000 C 
ATOM     12  F   UNL     1      48.167   0.897   7.619  0.00  0.00    +0.000 F 
ATOM     13  F   UNL     1      46.787  -0.744   7.206  0.00  0.00    +0.000 F 
ATOM     14  F   UNL     1      46.569   1.152   6.136  0.00  0.00    +0.000 F 
ENDBRANCH  10  11
ENDBRANCH   8  10
ENDBRANCH   1   4
BRANCH   1  15
ATOM     15  O   UNL     1      44.490   5.716  11.968  0.00  0.00    +0.000 OA
BRANCH  15  19
ATOM     16  C   UNL     1      48.153   6.829  13.479  0.00  0.00    +0.000 A 
ATOM     17  C   UNL     1      47.579   7.546  12.430  0.00  0.00    +0.000 A 
ATOM     18  C   UNL     1      46.343   7.142  11.935  0.00  0.00    +0.000 A 
ATOM     19  C   UNL     1      45.725   6.035  12.502  0.00  0.00    +0.000 A 
ATOM     20  N   UNL     1      46.250   5.317  13.516  0.00  0.00    +0.000 NA
ATOM     21  C   UNL     1      47.466   5.722  13.971  0.00  0.00    +0.000 A 
BRANCH  16  23
ATOM     22  N   UNL     1      50.442   7.610  13.218  0.00  0.00    +0.000 N 
ATOM     23  C   UNL     1      49.460   7.187  14.067  0.00  0.00    +0.000 C 
ATOM     24  O   UNL     1      49.646   7.139  15.274  0.00  0.00    +0.000 OA
ATOM     25  H   UNL     1      51.296   7.943  13.649  0.00  0.00    +0.000 HD
ATOM     26  H   UNL     1      50.258   7.900  12.269  0.00  0.00    +0.000 HD
ENDBRANCH  16  23
ENDBRANCH  15  19
ENDBRANCH   1  15
TORSDOF 6
ENDMDL
MODEL 8
REMARK VINA RESULT:    -6.201      4.465      6.672
REMARK INTER + INTRA:          -9.320
REMARK INTER:                  -9.734
REMARK INTRA:                   0.415
REMARK UNBOUND:                -0.944
REMARK  Name = 
REMARK  6 active torsions:
REMARK  status: ('A' for Active; 'I' for Inactive)
REMARK    1  A    between atoms: C_2  and  C_4
REMARK    2  A    between atoms: C_7  and  O_8
REMARK    3  A    between atoms: O_8  and  C_9
REMARK    4  A    between atoms: C_9  and  C_10
REMARK    5  A    between atoms: C_14  and  O_15
REMARK    6  A    between atoms: O_15  and  C_16
REMARK                            x       y       z     vdW  Elec       q    Type
REMARK                         _______ _______ _______ _____ _____    ______ ____
ROOT
ATOM      1  C   UNL     1      44.460   3.891  12.037  0.00  0.00    +0.000 C 
ATOM      2  C   UNL     1      43.051   4.424  12.271  0.00  0.00    +0.000 C 
ATOM      3  C   UNL     1      43.338   2.973  12.475  0.00  0.00    +0.000 C 
ENDROOT
BRANCH   1   4
ATOM      4  C   UNL     1      44.983   3.845  10.610  0.00  0.00    +0.000 A 
ATOM      5  C   UNL     1      45.306   5.023   9.917  0.00  0.00    +0.000 A 
ATOM      6  C   UNL     1      45.815   4.985   8.615  0.00  0.00    +0.000 A 
ATOM      7  C   UNL     1      46.025   3.762   7.977  0.00  0.00    +0.000 A 
ATOM      8  C   UNL     1      45.759   2.576   8.653  0.00  0.00    +0.000 A 
ATOM      9  C   UNL     1      45.212   2.628   9.942  0.00  0.00    +0.000 A 
BRANCH   8  10
ATOM     10  O   UNL     1      45.936   1.322   8.153  0.00  0.00    +0.000 OA
BRANCH  10  11
ATOM     11  C   UNL     1      46.888   1.128   7.117  0.00  0.00    +0.000 C 
ATOM     12  F   UNL     1      48.150   1.478   7.443  0.00  0.00    +0.000 F 
ATOM     13  F   UNL     1      46.896  -0.181   6.778  0.00  0.00    +0.000 F 
ATOM     14  F   UNL     1      46.511   1.837   6.029  0.00  0.00    +0.000 F 
ENDBRANCH  10  11
ENDBRANCH   8  10
ENDBRANCH   1   4
BRANCH   1  15
ATOM     15  O   UNL     1      45.357   4.406  13.049  0.00  0.00    +0.000 OA
BRANCH  15  19
ATOM     16  C   UNL     1      46.927   8.172  12.514  0.00  0.00    +0.000 A 
ATOM     17  C   UNL     1      47.761   7.056  12.503  0.00  0.00    +0.000 A 
ATOM     18  C   UNL     1      47.203   5.796  12.693  0.00  0.00    +0.000 A 
ATOM     19  C   UNL     1      45.833   5.694  12.893  0.00  0.00    +0.000 A 
ATOM     20  N   UNL     1      44.995   6.751  12.911  0.00  0.00    +0.000 NA
ATOM     21  C   UNL     1      45.566   7.973  12.739  0.00  0.00    +0.000 A 
BRANCH  16  23
ATOM     22  N   UNL     1      46.558  10.576  12.522  0.00  0.00    +0.000 N 
ATOM     23  C   UNL     1      47.432   9.547  12.319  0.00  0.00    +0.000 C 
ATOM     24  O   UNL     1      48.598   9.757  12.021  0.00  0.00    +0.000 OA
ATOM     25  H   UNL     1      46.948  11.511  12.480  0.00  0.00    +0.000 HD
ATOM     26  H   UNL     1      45.679  10.462  13.005  0.00  0.00    +0.000 HD
ENDBRANCH  16  23
ENDBRANCH  15  19
ENDBRANCH   1  15
TORSDOF 6
ENDMDL
MODEL 9
REMARK VINA RESULT:    -6.122      3.884      4.870
REMARK INTER + INTRA:          -9.213
REMARK INTER:                  -9.755
REMARK INTRA:                   0.542
REMARK UNBOUND:                -0.944
REMARK  Name = 
REMARK  6 active torsions:
REMARK  status: ('A' for Active; 'I' for Inactive)
REMARK    1  A    between atoms: C_2  and  C_4
REMARK    2  A    between atoms: C_7  and  O_8
REMARK    3  A    between atoms: O_8  and  C_9
REMARK    4  A    between atoms: C_9  and  C_10
REMARK    5  A    between atoms: C_14  and  O_15
REMARK    6  A    between atoms: O_15  and  C_16
REMARK                            x       y       z     vdW  Elec       q    Type
REMARK                         _______ _______ _______ _____ _____    ______ ____
ROOT
ATOM      1  C   UNL     1      44.088   4.716  11.577  0.00  0.00    +0.000 C 
ATOM      2  C   UNL     1      44.926   3.581  12.152  0.00  0.00    +0.000 C 
ATOM      3  C   UNL     1      43.565   3.848  12.703  0.00  0.00    +0.000 C 
ENDROOT
BRANCH   1   4
ATOM      4  C   UNL     1      44.532   6.145  11.846  0.00  0.00    +0.000 A 
ATOM      5  C   UNL     1      45.435   6.442  12.879  0.00  0.00    +0.000 A 
ATOM      6  C   UNL     1      45.870   7.750  13.112  0.00  0.00    +0.000 A 
ATOM      7  C   UNL     1      45.420   8.795  12.305  0.00  0.00    +0.000 A 
ATOM      8  C   UNL     1      44.562   8.528  11.243  0.00  0.00    +0.000 A 
ATOM      9  C   UNL     1      44.102   7.220  11.046  0.00  0.00    +0.000 A 
BRANCH   8  10
ATOM     10  O   UNL     1      44.064   9.451  10.374  0.00  0.00    +0.000 OA
BRANCH  10  11
ATOM     11  C   UNL     1      43.131  10.407  10.855  0.00  0.00    +0.000 C 
ATOM     12  F   UNL     1      43.631  11.271  11.764  0.00  0.00    +0.000 F 
ATOM     13  F   UNL     1      42.674  11.130   9.807  0.00  0.00    +0.000 F 
ATOM     14  F   UNL     1      42.078   9.762  11.406  0.00  0.00    +0.000 F 
ENDBRANCH  10  11
ENDBRANCH   8  10
ENDBRANCH   1   4
BRANCH   1  15
ATOM     15  O   UNL     1      43.685   4.397  10.224  0.00  0.00    +0.000 OA
BRANCH  15  19
ATOM     16  C   UNL     1      46.519   2.671   7.789  0.00  0.00    +0.000 A 
ATOM     17  C   UNL     1      46.386   4.057   7.838  0.00  0.00    +0.000 A 
ATOM     18  C   UNL     1      45.415   4.612   8.665  0.00  0.00    +0.000 A 
ATOM     19  C   UNL     1      44.607   3.764   9.411  0.00  0.00    +0.000 A 
ATOM     20  N   UNL     1      44.707   2.419   9.389  0.00  0.00    +0.000 NA
ATOM     21  C   UNL     1      45.653   1.900   8.561  0.00  0.00    +0.000 A 
BRANCH  16  23
ATOM     22  N   UNL     1      48.010   2.684   5.867  0.00  0.00    +0.000 N 
ATOM     23  C   UNL     1      47.523   1.996   6.941  0.00  0.00    +0.000 C 
ATOM     24  O   UNL     1      47.929   0.875   7.210  0.00  0.00    +0.000 OA
ATOM     25  H   UNL     1      48.767   2.244   5.357  0.00  0.00    +0.000 HD
ATOM     26  H   UNL     1      47.895   3.681   5.757  0.00  0.00    +0.000 HD
ENDBRANCH  16  23
ENDBRANCH  15  19
ENDBRANCH   1  15
TORSDOF 6
ENDMDL
