MODEL 1
REMARK VINA RESULT:    -8.616      0.000      0.000
REMARK INTER + INTRA:         -11.130
REMARK INTER:                 -10.630
REMARK INTRA:                  -0.500
REMARK UNBOUND:                -0.500
REMARK  Name = 
REMARK  4 active torsions:
REMARK  status: ('A' for Active; 'I' for Inactive)
REMARK    1  A    between atoms: C_2  and  C_4
REMARK    2  A    between atoms: C_7  and  C_8
REMARK    3  A    between atoms: C_8  and  N_9
REMARK    4  A    between atoms: C_14  and  C_15
REMARK                            x       y       z     vdW  Elec       q    Type
REMARK                         _______ _______ _______ _____ _____    ______ ____
ROOT
ATOM      1  N   UNL     1      43.879   5.763  10.422  0.00  0.00    +0.000 N 
ATOM      2  C   UNL     1      44.748   6.306  11.376  0.00  0.00    +0.000 A 
ATOM      3  C   UNL     1      44.909   7.686  11.415  0.00  0.00    +0.000 A 
ATOM      4  C   UNL     1      45.794   8.247  12.331  0.00  0.00    +0.000 A 
ATOM      5  C   UNL     1      46.486   7.412  13.198  0.00  0.00    +0.000 A 
ATOM      6  C   UNL     1      46.280   6.035  13.126  0.00  0.00    +0.000 A 
ATOM      7  N   UNL     1      45.434   5.492  12.206  0.00  0.00    +0.000 NA
ATOM      8  H   UNL     1      42.956   6.184  10.506  0.00  0.00    +0.000 HD
ENDROOT
BRANCH   6   9
ATOM      9  C   UNL     1      46.914   5.092  14.066  0.00  0.00    +0.000 A 
ATOM     10  C   UNL     1      47.023   3.727  13.799  0.00  0.00    +0.000 A 
ATOM     11  N   UNL     1      47.530   2.823  14.678  0.00  0.00    +0.000 NA
ATOM     12  C   UNL     1      47.932   3.338  15.858  0.00  0.00    +0.000 A 
ATOM     13  C   UNL     1      47.852   4.690  16.139  0.00  0.00    +0.000 A 
ATOM     14  N   UNL     1      47.350   5.590  15.261  0.00  0.00    +0.000 NA
ENDBRANCH   6   9
BRANCH   1  15
ATOM     15  C   UNL     1      43.779   4.298  10.465  0.00  0.00    +0.000 C 
BRANCH  15  19
ATOM     16  C   UNL     1      46.437   2.498   7.687  0.00  0.00    +0.000 A 
ATOM     17  C   UNL     1      46.171   3.847   7.680  0.00  0.00    +0.000 A 
ATOM     18  N   UNL     1      45.337   4.451   8.555  0.00  0.00    +0.000 NA
ATOM     19  C   UNL     1      44.723   3.653   9.460  0.00  0.00    +0.000 A 
ATOM     20  N   UNL     1      44.905   2.314   9.536  0.00  0.00    +0.000 NA
ATOM     21  C   UNL     1      45.760   1.767   8.639  0.00  0.00    +0.000 A 
BRANCH  16  23
ATOM     22  N   UNL     1      48.394   2.569   6.248  0.00  0.00    +0.000 N 
ATOM     23  C   UNL     1      47.351   1.837   6.746  0.00  0.00    +0.000 C 
ATOM     24  O   UNL     1      47.202   0.661   6.445  0.00  0.00    +0.000 OA
ATOM     25  H   UNL     1      49.060   2.062   5.676  0.00  0.00    +0.000 HD
ATOM     26  H   UNL     1      48.704   3.445   6.645  0.00  0.00    +0.000 HD
ENDBRANCH  16  23
ENDBRANCH  15  19
ENDBRANCH   1  15
TORSDOF 4
ENDMDL
MODEL 2
REMARK VINA RESULT:    -7.837      3.408      7.773
REMARK INTER + INTRA:         -10.170
REMARK INTER:                  -9.781
REMARK INTRA:                  -0.389
REMARK UNBOUND:                -0.500
REMARK  Name = 
REMARK  4 active torsions:
REMARK  status: ('A' for Active; 'I' for Inactive)
REMARK    1  A    between atoms: C_2  and  C_4
REMARK    2  A    between atoms: C_7  and  C_8
REMARK    3  A    between atoms: C_8  and  N_9
REMARK    4  A    between atoms: C_14  and  C_15
REMARK                            x       y       z     vdW  Elec       q    Type
REMARK                         _______ _______ _______ _____ _____    ______ ____
ROOT
ATOM      1  N   UNL     1      45.423   4.974  14.007  0.00  0.00    +0.000 N 
ATOM      2  C   UNL     1      44.716   4.938  12.799  0.00  0.00    +0.000 A 
ATOM      3  C   UNL     1      43.464   5.540  12.747  0.00  0.00    +0.000 A 
ATOM      4  C   UNL     1      42.726   5.486  11.568  0.00  0.00    +0.000 A 
ATOM      5  C   UNL     1      43.268   4.843  10.463  0.00  0.00    +0.000 A 
ATOM      6  C   UNL     1      44.533   4.265  10.564  0.00  0.00    +0.000 A 
ATOM      7  N   UNL     1      45.235   4.297  11.732  0.00  0.00    +0.000 NA
ATOM      8  H   UNL     1      45.523   5.936  14.328  0.00  0.00    +0.000 HD
ENDROOT
BRANCH   6   9
ATOM      9  C   UNL     1      45.209   3.639   9.413  0.00  0.00    +0.000 A 
ATOM     10  C   UNL     1      45.348   2.256   9.287  0.00  0.00    +0.000 A 
ATOM     11  N   UNL     1      46.033   1.654   8.278  0.00  0.00    +0.000 NA
ATOM     12  C   UNL     1      46.586   2.497   7.382  0.00  0.00    +0.000 A 
ATOM     13  C   UNL     1      46.445   3.869   7.475  0.00  0.00    +0.000 A 
ATOM     14  N   UNL     1      45.760   4.467   8.477  0.00  0.00    +0.000 NA
ENDBRANCH   6   9
BRANCH   1  15
ATOM     15  C   UNL     1      46.733   4.312  13.957  0.00  0.00    +0.000 C 
BRANCH  15  19
ATOM     16  C   UNL     1      48.576   4.346  17.782  0.00  0.00    +0.000 A 
ATOM     17  C   UNL     1      48.807   5.327  16.846  0.00  0.00    +0.000 A 
ATOM     18  N   UNL     1      48.230   5.349  15.625  0.00  0.00    +0.000 NA
ATOM     19  C   UNL     1      47.405   4.320  15.323  0.00  0.00    +0.000 A 
ATOM     20  N   UNL     1      47.127   3.298  16.168  0.00  0.00    +0.000 NA
ATOM     21  C   UNL     1      47.728   3.336  17.381  0.00  0.00    +0.000 A 
BRANCH  16  23
ATOM     22  N   UNL     1      48.513   3.687  20.120  0.00  0.00    +0.000 N 
ATOM     23  C   UNL     1      49.191   4.322  19.116  0.00  0.00    +0.000 C 
ATOM     24  O   UNL     1      50.288   4.825  19.313  0.00  0.00    +0.000 OA
ATOM     25  H   UNL     1      49.002   3.603  21.004  0.00  0.00    +0.000 HD
ATOM     26  H   UNL     1      47.742   3.052  19.961  0.00  0.00    +0.000 HD
ENDBRANCH  16  23
ENDBRANCH  15  19
ENDBRANCH   1  15
TORSDOF 4
ENDMDL
MODEL 3
REMARK VINA RESULT:    -7.359      1.502      1.887
REMARK INTER + INTRA:          -9.580
REMARK INTER:                  -9.031
REMARK INTRA:                  -0.548
REMARK UNBOUND:                -0.500
REMARK  Name = 
REMARK  4 active torsions:
REMARK  status: ('A' for Active; 'I' for Inactive)
REMARK    1  A    between atoms: C_2  and  C_4
REMARK    2  A    between atoms: C_7  and  C_8
REMARK    3  A    between atoms: C_8  and  N_9
REMARK    4  A    between atoms: C_14  and  C_15
REMARK                            x       y       z     vdW  Elec       q    Type
REMARK                         _______ _______ _______ _____ _____    ______ ____
ROOT
ATOM      1  N   UNL     1      43.812   6.011  10.670  0.00  0.00    +0.000 N 
ATOM      2  C   UNL     1      44.471   7.077  11.295  0.00  0.00    +0.000 A 
ATOM      3  C   UNL     1      44.026   8.369  11.042  0.00  0.00    +0.000 A 
ATOM      4  C   UNL     1      44.686   9.447  11.624  0.00  0.00    +0.000 A 
ATOM      5  C   UNL     1      45.768   9.203  12.460  0.00  0.00    +0.000 A 
ATOM      6  C   UNL     1      46.166   7.888  12.691  0.00  0.00    +0.000 A 
ATOM      7  N   UNL     1      45.532   6.840  12.093  0.00  0.00    +0.000 NA
ATOM      8  H   UNL     1      42.815   6.045  10.872  0.00  0.00    +0.000 HD
ENDROOT
BRANCH   6   9
ATOM      9  C   UNL     1      47.251   7.545  13.630  0.00  0.00    +0.000 A 
ATOM     10  C   UNL     1      47.650   6.229  13.864  0.00  0.00    +0.000 A 
ATOM     11  N   UNL     1      48.591   5.877  14.781  0.00  0.00    +0.000 NA
ATOM     12  C   UNL     1      49.130   6.904  15.469  0.00  0.00    +0.000 A 
ATOM     13  C   UNL     1      48.764   8.218  15.240  0.00  0.00    +0.000 A 
ATOM     14  N   UNL     1      47.830   8.567  14.326  0.00  0.00    +0.000 NA
ENDBRANCH   6   9
BRANCH   1  15
ATOM     15  C   UNL     1      44.357   4.689  11.004  0.00  0.00    +0.000 C 
BRANCH  15  19
ATOM     16  C   UNL     1      46.251   2.896   7.654  0.00  0.00    +0.000 A 
ATOM     17  C   UNL     1      46.195   4.260   7.823  0.00  0.00    +0.000 A 
ATOM     18  N   UNL     1      45.608   4.860   8.881  0.00  0.00    +0.000 NA
ATOM     19  C   UNL     1      45.026   4.049   9.795  0.00  0.00    +0.000 A 
ATOM     20  N   UNL     1      45.011   2.697   9.709  0.00  0.00    +0.000 NA
ATOM     21  C   UNL     1      45.625   2.153   8.631  0.00  0.00    +0.000 A 
BRANCH  16  23
ATOM     22  N   UNL     1      47.241   3.010   5.438  0.00  0.00    +0.000 N 
ATOM     23  C   UNL     1      46.898   2.236   6.512  0.00  0.00    +0.000 C 
ATOM     24  O   UNL     1      47.150   1.039   6.536  0.00  0.00    +0.000 OA
ATOM     25  H   UNL     1      47.770   2.548   4.706  0.00  0.00    +0.000 HD
ATOM     26  H   UNL     1      47.285   4.020   5.466  0.00  0.00    +0.000 HD
ENDBRANCH  16  23
ENDBRANCH  15  19
ENDBRANCH   1  15
TORSDOF 4
ENDMDL
MODEL 4
REMARK VINA RESULT:    -7.156      3.735      7.481
REMARK INTER + INTRA:          -9.330
REMARK INTER:                  -8.804
REMARK INTRA:                  -0.526
REMARK UNBOUND:                -0.500
REMARK  Name = 
REMARK  4 active torsions:
REMARK  status: ('A' for Active; 'I' for Inactive)
REMARK    1  A    between atoms: C_2  and  C_4
REMARK    2  A    between atoms: C_7  and  C_8
REMARK    3  A    between atoms: C_8  and  N_9
REMARK    4  A    between atoms: C_14  and  C_15
REMARK                            x       y       z     vdW  Elec       q    Type
REMARK                         _______ _______ _______ _____ _____    ______ ____
ROOT
ATOM      1  N   UNL     1      48.286   6.199  15.475  0.00  0.00    +0.000 N 
ATOM      2  C   UNL     1      47.724   6.362  14.203  0.00  0.00    +0.000 A 
ATOM      3  C   UNL     1      48.141   7.441  13.430  0.00  0.00    +0.000 A 
ATOM      4  C   UNL     1      47.571   7.645  12.177  0.00  0.00    +0.000 A 
ATOM      5  C   UNL     1      46.609   6.754  11.720  0.00  0.00    +0.000 A 
ATOM      6  C   UNL     1      46.236   5.682  12.529  0.00  0.00    +0.000 A 
ATOM      7  N   UNL     1      46.777   5.507  13.767  0.00  0.00    +0.000 NA
ATOM      8  H   UNL     1      49.302   6.165  15.410  0.00  0.00    +0.000 HD
ENDROOT
BRANCH   6   9
ATOM      9  C   UNL     1      45.284   4.649  12.080  0.00  0.00    +0.000 A 
ATOM     10  C   UNL     1      44.923   4.495  10.741  0.00  0.00    +0.000 A 
ATOM     11  N   UNL     1      43.991   3.604  10.308  0.00  0.00    +0.000 NA
ATOM     12  C   UNL     1      43.420   2.859  11.276  0.00  0.00    +0.000 A 
ATOM     13  C   UNL     1      43.775   2.980  12.607  0.00  0.00    +0.000 A 
ATOM     14  N   UNL     1      44.706   3.864  13.037  0.00  0.00    +0.000 NA
ENDBRANCH   6   9
BRANCH   1  15
ATOM     15  C   UNL     1      47.782   5.031  16.209  0.00  0.00    +0.000 C 
BRANCH  15  19
ATOM     16  C   UNL     1      50.934   2.433  17.367  0.00  0.00    +0.000 A 
ATOM     17  C   UNL     1      51.022   3.799  17.498  0.00  0.00    +0.000 A 
ATOM     18  N   UNL     1      50.034   4.652  17.147  0.00  0.00    +0.000 NA
ATOM     19  C   UNL     1      48.918   4.103  16.613  0.00  0.00    +0.000 A 
ATOM     20  N   UNL     1      48.742   2.773  16.426  0.00  0.00    +0.000 NA
ATOM     21  C   UNL     1      49.764   1.968  16.807  0.00  0.00    +0.000 A 
BRANCH  16  23
ATOM     22  N   UNL     1      51.638   0.227  18.103  0.00  0.00    +0.000 N 
ATOM     23  C   UNL     1      51.999   1.500  17.757  0.00  0.00    +0.000 C 
ATOM     24  O   UNL     1      53.173   1.842  17.741  0.00  0.00    +0.000 OA
ATOM     25  H   UNL     1      52.398  -0.420  18.276  0.00  0.00    +0.000 HD
ATOM     26  H   UNL     1      50.732  -0.174  17.897  0.00  0.00    +0.000 HD
ENDBRANCH  16  23
ENDBRANCH  15  19
ENDBRANCH   1  15
TORSDOF 4
ENDMDL
MODEL 5
REMARK VINA RESULT:    -6.943      3.601      6.129
REMARK INTER + INTRA:          -9.067
REMARK INTER:                  -8.641
REMARK INTRA:                  -0.426
REMARK UNBOUND:                -0.500
REMARK  Name = 
REMARK  4 active torsions:
REMARK  status: ('A' for Active; 'I' for Inactive)
REMARK    1  A    between atoms: C_2  and  C_4
REMARK    2  A    between atoms: C_7  and  C_8
REMARK    3  A    between atoms: C_8  and  N_9
REMARK    4  A    between atoms: C_14  and  C_15
REMARK                            x       y       z     vdW  Elec       q    Type
REMARK                         _______ _______ _______ _____ _____    ______ ____
ROOT
ATOM      1  N   UNL     1      47.245   5.157  15.957  0.00  0.00    +0.000 N 
ATOM      2  C   UNL     1      48.240   5.119  16.941  0.00  0.00    +0.000 A 
ATOM      3  C   UNL     1      48.187   6.051  17.971  0.00  0.00    +0.000 A 
ATOM      4  C   UNL     1      49.185   6.056  18.942  0.00  0.00    +0.000 A 
ATOM      5  C   UNL     1      50.203   5.115  18.867  0.00  0.00    +0.000 A 
ATOM      6  C   UNL     1      50.203   4.194  17.820  0.00  0.00    +0.000 A 
ATOM      7  N   UNL     1      49.239   4.216  16.857  0.00  0.00    +0.000 NA
ATOM      8  H   UNL     1      46.323   5.100  16.385  0.00  0.00    +0.000 HD
ENDROOT
BRANCH   6   9
ATOM      9  C   UNL     1      51.202   3.114  17.719  0.00  0.00    +0.000 A 
ATOM     10  C   UNL     1      50.873   1.826  17.296  0.00  0.00    +0.000 A 
ATOM     11  N   UNL     1      51.754   0.791  17.267  0.00  0.00    +0.000 NA
ATOM     12  C   UNL     1      53.001   1.092  17.685  0.00  0.00    +0.000 A 
ATOM     13  C   UNL     1      53.356   2.365  18.090  0.00  0.00    +0.000 A 
ATOM     14  N   UNL     1      52.479   3.396  18.115  0.00  0.00    +0.000 NA
ENDBRANCH   6   9
BRANCH   1  15
ATOM     15  C   UNL     1      47.390   4.131  14.916  0.00  0.00    +0.000 C 
BRANCH  15  19
ATOM     16  C   UNL     1      44.599   4.759  11.779  0.00  0.00    +0.000 A 
ATOM     17  C   UNL     1      45.085   3.511  12.090  0.00  0.00    +0.000 A 
ATOM     18  N   UNL     1      45.966   3.277  13.087  0.00  0.00    +0.000 NA
ATOM     19  C   UNL     1      46.398   4.355  13.782  0.00  0.00    +0.000 A 
ATOM     20  N   UNL     1      45.994   5.625  13.540  0.00  0.00    +0.000 NA
ATOM     21  C   UNL     1      45.102   5.795  12.535  0.00  0.00    +0.000 A 
BRANCH  16  23
ATOM     22  N   UNL     1      43.891   4.489   9.470  0.00  0.00    +0.000 N 
ATOM     23  C   UNL     1      43.632   5.019  10.704  0.00  0.00    +0.000 C 
ATOM     24  O   UNL     1      42.612   5.662  10.915  0.00  0.00    +0.000 OA
ATOM     25  H   UNL     1      43.163   4.604   8.774  0.00  0.00    +0.000 HD
ATOM     26  H   UNL     1      44.571   3.759   9.305  0.00  0.00    +0.000 HD
ENDBRANCH  16  23
ENDBRANCH  15  19
ENDBRANCH   1  15
TORSDOF 4
ENDMDL
MODEL 6
REMARK VINA RESULT:    -6.690      3.152      5.665
REMARK INTER + INTRA:          -8.754
REMARK INTER:                  -8.288
REMARK INTRA:                  -0.466
REMARK UNBOUND:                -0.500
REMARK  Name = 
REMARK  4 active torsions:
REMARK  status: ('A' for Active; 'I' for Inactive)
REMARK    1  A    between atoms: C_2  and  C_4
REMARK    2  A    between atoms: C_7  and  C_8
REMARK    3  A    between atoms: C_8  and  N_9
REMARK    4  A    between atoms: C_14  and  C_15
REMARK                            x       y       z     vdW  Elec       q    Type
REMARK                         _______ _______ _______ _____ _____    ______ ____
ROOT
ATOM      1  N   UNL     1      46.677   4.388  15.597  0.00  0.00    +0.000 N 
ATOM      2  C   UNL     1      47.697   4.282  16.551  0.00  0.00    +0.000 A 
ATOM      3  C   UNL     1      47.459   3.520  17.689  0.00  0.00    +0.000 A 
ATOM      4  C   UNL     1      48.444   3.428  18.669  0.00  0.00    +0.000 A 
ATOM      5  C   UNL     1      49.650   4.089  18.477  0.00  0.00    +0.000 A 
ATOM      6  C   UNL     1      49.841   4.831  17.313  0.00  0.00    +0.000 A 
ATOM      7  N   UNL     1      48.861   4.940  16.372  0.00  0.00    +0.000 NA
ATOM      8  H   UNL     1      46.377   3.462  15.297  0.00  0.00    +0.000 HD
ENDROOT
BRANCH   6   9
ATOM      9  C   UNL     1      51.122   5.491  17.000  0.00  0.00    +0.000 A 
ATOM     10  C   UNL     1      52.322   5.125  17.610  0.00  0.00    +0.000 A 
ATOM     11  N   UNL     1      53.503   5.765  17.400  0.00  0.00    +0.000 NA
ATOM     12  C   UNL     1      53.444   6.806  16.544  0.00  0.00    +0.000 A 
ATOM     13  C   UNL     1      52.270   7.176  15.913  0.00  0.00    +0.000 A 
ATOM     14  N   UNL     1      51.096   6.535  16.119  0.00  0.00    +0.000 NA
ENDBRANCH   6   9
BRANCH   1  15
ATOM     15  C   UNL     1      47.027   5.213  14.433  0.00  0.00    +0.000 C 
BRANCH  15  19
ATOM     16  C   UNL     1      44.997   3.880  10.951  0.00  0.00    +0.000 A 
ATOM     17  C   UNL     1      45.246   3.050  12.019  0.00  0.00    +0.000 A 
ATOM     18  N   UNL     1      45.882   3.446  13.144  0.00  0.00    +0.000 NA
ATOM     19  C   UNL     1      46.310   4.729  13.180  0.00  0.00    +0.000 A 
ATOM     20  N   UNL     1      46.130   5.618  12.174  0.00  0.00    +0.000 NA
ATOM     21  C   UNL     1      45.478   5.165  11.077  0.00  0.00    +0.000 A 
BRANCH  16  23
ATOM     22  N   UNL     1      44.038   4.411   8.782  0.00  0.00    +0.000 N 
ATOM     23  C   UNL     1      44.297   3.459   9.730  0.00  0.00    +0.000 C 
ATOM     24  O   UNL     1      43.984   2.290   9.554  0.00  0.00    +0.000 OA
ATOM     25  H   UNL     1      43.640   4.076   7.912  0.00  0.00    +0.000 HD
ATOM     26  H   UNL     1      44.485   5.318   8.762  0.00  0.00    +0.000 HD
ENDBRANCH  16  23
ENDBRANCH  15  19
ENDBRANCH   1  15
TORSDOF 4
ENDMDL
MODEL 7
REMARK VINA RESULT:    -6.432      3.927      5.898
REMARK INTER + INTRA:          -8.436
REMARK INTER:                  -7.947
REMARK INTRA:                  -0.489
REMARK UNBOUND:                -0.500
REMARK  Name = 
REMARK  4 active torsions:
REMARK  status: ('A' for Active; 'I' for Inactive)
REMARK    1  A    between atoms: C_2  and  C_4
REMARK    2  A    between atoms: C_7  and  C_8
REMARK    3  A    between atoms: C_8  and  N_9
REMARK    4  A    between atoms: C_14  and  C_15
REMARK                            x       y       z     vdW  Elec       q    Type
REMARK                         _______ _______ _______ _____ _____    ______ ____
ROOT
ATOM      1  N   UNL     1      48.220   7.570  14.821  0.00  0.00    +0.000 N 
ATOM      2  C   UNL     1      48.770   7.160  16.042  0.00  0.00    +0.000 A 
ATOM      3  C   UNL     1      48.728   8.043  17.115  0.00  0.00    +0.000 A 
ATOM      4  C   UNL     1      49.298   7.673  18.329  0.00  0.00    +0.000 A 
ATOM      5  C   UNL     1      49.884   6.419  18.444  0.00  0.00    +0.000 A 
ATOM      6  C   UNL     1      49.890   5.567  17.340  0.00  0.00    +0.000 A 
ATOM      7  N   UNL     1      49.354   5.949  16.147  0.00  0.00    +0.000 NA
ATOM      8  H   UNL     1      47.253   7.862  14.949  0.00  0.00    +0.000 HD
ENDROOT
BRANCH   6   9
ATOM      9  C   UNL     1      50.417   4.191  17.409  0.00  0.00    +0.000 A 
ATOM     10  C   UNL     1      51.707   3.905  17.859  0.00  0.00    +0.000 A 
ATOM     11  N   UNL     1      52.247   2.658  17.859  0.00  0.00    +0.000 NA
ATOM     12  C   UNL     1      51.441   1.686  17.386  0.00  0.00    +0.000 A 
ATOM     13  C   UNL     1      50.153   1.942  16.952  0.00  0.00    +0.000 A 
ATOM     14  N   UNL     1      49.614   3.184  16.956  0.00  0.00    +0.000 NA
ENDBRANCH   6   9
BRANCH   1  15
ATOM     15  C   UNL     1      48.314   6.566  13.753  0.00  0.00    +0.000 C 
BRANCH  15  19
ATOM     16  C   UNL     1      44.560   5.920  11.877  0.00  0.00    +0.000 A 
ATOM     17  C   UNL     1      45.413   6.926  11.486  0.00  0.00    +0.000 A 
ATOM     18  N   UNL     1      46.617   7.152  12.057  0.00  0.00    +0.000 NA
ATOM     19  C   UNL     1      46.963   6.345  13.086  0.00  0.00    +0.000 A 
ATOM     20  N   UNL     1      46.185   5.340  13.557  0.00  0.00    +0.000 NA
ATOM     21  C   UNL     1      44.995   5.156  12.938  0.00  0.00    +0.000 A 
BRANCH  16  23
ATOM     22  N   UNL     1      42.165   6.314  11.761  0.00  0.00    +0.000 N 
ATOM     23  C   UNL     1      43.255   5.662  11.254  0.00  0.00    +0.000 C 
ATOM     24  O   UNL     1      43.153   4.913  10.292  0.00  0.00    +0.000 OA
ATOM     25  H   UNL     1      41.296   6.191  11.254  0.00  0.00    +0.000 HD
ATOM     26  H   UNL     1      42.227   7.115  12.376  0.00  0.00    +0.000 HD
ENDBRANCH  16  23
ENDBRANCH  15  19
ENDBRANCH   1  15
TORSDOF 4
ENDMDL
MODEL 8
REMARK VINA RESULT:    -6.430      4.443      7.667
REMARK INTER + INTRA:          -8.433
REMARK INTER:                  -7.929
REMARK INTRA:                  -0.504
REMARK UNBOUND:                -0.500
REMARK  Name = 
REMARK  4 active torsions:
REMARK  status: ('A' for Active; 'I' for Inactive)
REMARK    1  A    between atoms: C_2  and  C_4
REMARK    2  A    between atoms: C_7  and  C_8
REMARK    3  A    between atoms: C_8  and  N_9
REMARK    4  A    between atoms: C_14  and  C_15
REMARK                            x       y       z     vdW  Elec       q    Type
REMARK                         _______ _______ _______ _____ _____    ______ ____
ROOT
ATOM      1  N   UNL     1      46.724   4.137  15.167  0.00  0.00    +0.000 N 
ATOM      2  C   UNL     1      46.466   4.737  13.928  0.00  0.00    +0.000 A 
ATOM      3  C   UNL     1      45.607   4.090  13.047  0.00  0.00    +0.000 A 
ATOM      4  C   UNL     1      45.361   4.649  11.796  0.00  0.00    +0.000 A 
ATOM      5  C   UNL     1      45.970   5.852  11.464  0.00  0.00    +0.000 A 
ATOM      6  C   UNL     1      46.815   6.465  12.388  0.00  0.00    +0.000 A 
ATOM      7  N   UNL     1      47.072   5.896  13.599  0.00  0.00    +0.000 NA
ATOM      8  H   UNL     1      45.852   3.952  15.658  0.00  0.00    +0.000 HD
ENDROOT
BRANCH   6   9
ATOM      9  C   UNL     1      47.431   7.783  12.142  0.00  0.00    +0.000 A 
ATOM     10  C   UNL     1      48.778   7.929  11.811  0.00  0.00    +0.000 A 
ATOM     11  N   UNL     1      49.392   9.132  11.655  0.00  0.00    +0.000 NA
ATOM     12  C   UNL     1      48.599  10.206  11.844  0.00  0.00    +0.000 A 
ATOM     13  C   UNL     1      47.256  10.086  12.154  0.00  0.00    +0.000 A 
ATOM     14  N   UNL     1      46.645   8.888  12.305  0.00  0.00    +0.000 NA
ENDBRANCH   6   9
BRANCH   1  15
ATOM     15  C   UNL     1      47.642   4.899  16.024  0.00  0.00    +0.000 C 
BRANCH  15  19
ATOM     16  C   UNL     1      50.850   2.470  17.377  0.00  0.00    +0.000 A 
ATOM     17  C   UNL     1      50.881   3.842  17.463  0.00  0.00    +0.000 A 
ATOM     18  N   UNL     1      49.873   4.642  17.050  0.00  0.00    +0.000 NA
ATOM     19  C   UNL     1      48.799   4.031  16.498  0.00  0.00    +0.000 A 
ATOM     20  N   UNL     1      48.682   2.690  16.351  0.00  0.00    +0.000 NA
ATOM     21  C   UNL     1      49.720   1.940  16.794  0.00  0.00    +0.000 A 
BRANCH  16  23
ATOM     22  N   UNL     1      51.641   0.279  18.069  0.00  0.00    +0.000 N 
ATOM     23  C   UNL     1      51.937   1.594  17.834  0.00  0.00    +0.000 C 
ATOM     24  O   UNL     1      53.076   2.021  17.969  0.00  0.00    +0.000 OA
ATOM     25  H   UNL     1      52.427  -0.321  18.292  0.00  0.00    +0.000 HD
ATOM     26  H   UNL     1      50.798  -0.173  17.741  0.00  0.00    +0.000 HD
ENDBRANCH  16  23
ENDBRANCH  15  19
ENDBRANCH   1  15
TORSDOF 4
ENDMDL
MODEL 9
REMARK VINA RESULT:    -6.293      3.597      7.887
REMARK INTER + INTRA:          -8.264
REMARK INTER:                  -7.819
REMARK INTRA:                  -0.445
REMARK UNBOUND:                -0.500
REMARK  Name = 
REMARK  4 active torsions:
REMARK  status: ('A' for Active; 'I' for Inactive)
REMARK    1  A    between atoms: C_2  and  C_4
REMARK    2  A    between atoms: C_7  and  C_8
REMARK    3  A    between atoms: C_8  and  N_9
REMARK    4  A    between atoms: C_14  and  C_15
REMARK                            x       y       z     vdW  Elec       q    Type
REMARK                         _______ _______ _______ _____ _____    ______ ____
ROOT
ATOM      1  N   UNL     1      47.346   7.235  14.023  0.00  0.00    +0.000 N 
ATOM      2  C   UNL     1      46.391   7.362  13.006  0.00  0.00    +0.000 A 
ATOM      3  C   UNL     1      45.793   8.602  12.814  0.00  0.00    +0.000 A 
ATOM      4  C   UNL     1      44.816   8.746  11.834  0.00  0.00    +0.000 A 
ATOM      5  C   UNL     1      44.472   7.647  11.058  0.00  0.00    +0.000 A 
ATOM      6  C   UNL     1      45.111   6.428  11.284  0.00  0.00    +0.000 A 
ATOM      7  N   UNL     1      46.045   6.289  12.266  0.00  0.00    +0.000 NA
ATOM      8  H   UNL     1      48.086   7.924  13.901  0.00  0.00    +0.000 HD
ENDROOT
BRANCH   6   9
ATOM      9  C   UNL     1      44.860   5.239  10.448  0.00  0.00    +0.000 A 
ATOM     10  C   UNL     1      44.045   4.187  10.867  0.00  0.00    +0.000 A 
ATOM     11  N   UNL     1      43.859   3.045  10.152  0.00  0.00    +0.000 NA
ATOM     12  C   UNL     1      44.527   2.988   8.983  0.00  0.00    +0.000 A 
ATOM     13  C   UNL     1      45.325   4.026   8.538  0.00  0.00    +0.000 A 
ATOM     14  N   UNL     1      45.507   5.164   9.248  0.00  0.00    +0.000 NA
ENDBRANCH   6   9
BRANCH   1  15
ATOM     15  C   UNL     1      47.919   5.887  14.144  0.00  0.00    +0.000 C 
BRANCH  15  19
ATOM     16  C   UNL     1      48.696   4.892  18.197  0.00  0.00    +0.000 A 
ATOM     17  C   UNL     1      48.140   3.996  17.315  0.00  0.00    +0.000 A 
ATOM     18  N   UNL     1      47.888   4.279  16.017  0.00  0.00    +0.000 NA
ATOM     19  C   UNL     1      48.185   5.532  15.600  0.00  0.00    +0.000 A 
ATOM     20  N   UNL     1      48.717   6.490  16.395  0.00  0.00    +0.000 NA
ATOM     21  C   UNL     1      48.956   6.144  17.682  0.00  0.00    +0.000 A 
BRANCH  16  23
ATOM     22  N   UNL     1      48.353   3.511  20.166  0.00  0.00    +0.000 N 
ATOM     23  C   UNL     1      48.983   4.588  19.605  0.00  0.00    +0.000 C 
ATOM     24  O   UNL     1      49.783   5.257  20.244  0.00  0.00    +0.000 OA
ATOM     25  H   UNL     1      48.641   3.268  21.108  0.00  0.00    +0.000 HD
ATOM     26  H   UNL     1      47.888   2.791  19.629  0.00  0.00    +0.000 HD
ENDBRANCH  16  23
ENDBRANCH  15  19
ENDBRANCH   1  15
TORSDOF 4
ENDMDL
