MODEL 1
REMARK VINA RESULT:    -8.935      0.000      0.000
REMARK INTER + INTRA:         -11.843
REMARK INTER:                 -11.025
REMARK INTRA:                  -0.818
REMARK UNBOUND:                -0.818
REMARK  Name = 
REMARK  4 active torsions:
REMARK  status: ('A' for Active; 'I' for Inactive)
REMARK    1  A    between atoms: C_2  and  C_4
REMARK    2  A    between atoms: N_8  and  C_9
REMARK    3  A    between atoms: C_9  and  C_10
REMARK    4  A    between atoms: C_14  and  C_15
REMARK                            x       y       z     vdW  Elec       q    Type
REMARK                         _______ _______ _______ _____ _____    ______ ____
ROOT
ATOM      1  C   UNL     1      46.338   2.264   7.661  0.00  0.00    +0.000 A 
ATOM      2  C   UNL     1      45.651   1.765   8.764  0.00  0.00    +0.000 A 
ATOM      3  C   UNL     1      44.797   2.613   9.475  0.00  0.00    +0.000 A 
ATOM      4  C   UNL     1      44.650   3.938   9.080  0.00  0.00    +0.000 A 
ATOM      5  N   UNL     1      43.775   4.820   9.666  0.00  0.00    +0.000 N 
ATOM      6  N   UNL     1      45.313   4.429   8.014  0.00  0.00    +0.000 NA
ATOM      7  C   UNL     1      46.147   3.598   7.338  0.00  0.00    +0.000 A 
ATOM      8  H   UNL     1      43.889   5.730   9.233  0.00  0.00    +0.000 HD
ENDROOT
BRANCH   1  10
ATOM      9  N   UNL     1      48.279   2.110   6.203  0.00  0.00    +0.000 N 
ATOM     10  C   UNL     1      47.264   1.453   6.844  0.00  0.00    +0.000 C 
ATOM     11  O   UNL     1      47.150   0.238   6.765  0.00  0.00    +0.000 OA
ATOM     12  H   UNL     1      48.958   1.526   5.729  0.00  0.00    +0.000 HD
ATOM     13  H   UNL     1      48.562   3.048   6.445  0.00  0.00    +0.000 HD
ENDBRANCH   1  10
BRANCH   5  14
ATOM     14  C   UNL     1      43.466   4.826  11.081  0.00  0.00    +0.000 C 
BRANCH  14  15
ATOM     15  C   UNL     1      44.640   5.107  11.998  0.00  0.00    +0.000 A 
ATOM     16  C   UNL     1      45.127   4.184  12.928  0.00  0.00    +0.000 A 
ATOM     17  C   UNL     1      46.286   4.458  13.657  0.00  0.00    +0.000 A 
ATOM     18  C   UNL     1      46.987   5.650  13.449  0.00  0.00    +0.000 A 
ATOM     19  C   UNL     1      46.553   6.592  12.503  0.00  0.00    +0.000 A 
ATOM     20  C   UNL     1      45.366   6.301  11.802  0.00  0.00    +0.000 A 
BRANCH  19  21
ATOM     21  C   UNL     1      47.337   7.810  12.205  0.00  0.00    +0.000 A 
ATOM     22  C   UNL     1      48.667   7.766  11.764  0.00  0.00    +0.000 A 
ATOM     23  C   UNL     1      49.387   8.942  11.549  0.00  0.00    +0.000 A 
ATOM     24  C   UNL     1      48.752  10.151  11.769  0.00  0.00    +0.000 A 
ATOM     25  N   UNL     1      47.475  10.256  12.180  0.00  0.00    +0.000 NA
ATOM     26  C   UNL     1      46.808   9.093  12.390  0.00  0.00    +0.000 A 
ENDBRANCH  19  21
ENDBRANCH  14  15
ENDBRANCH   5  14
TORSDOF 4
ENDMDL
MODEL 2
REMARK VINA RESULT:    -8.360      2.051      3.578
REMARK INTER + INTRA:         -11.132
REMARK INTER:                 -10.336
REMARK INTRA:                  -0.797
REMARK UNBOUND:                -0.818
REMARK  Name = 
REMARK  4 active torsions:
REMARK  status: ('A' for Active; 'I' for Inactive)
REMARK    1  A    between atoms: C_2  and  C_4
REMARK    2  A    between atoms: N_8  and  C_9
REMARK    3  A    between atoms: C_9  and  C_10
REMARK    4  A    between atoms: C_14  and  C_15
REMARK                            x       y       z     vdW  Elec       q    Type
REMARK                         _______ _______ _______ _____ _____    ______ ____
ROOT
ATOM      1  C   UNL     1      46.293   2.168   7.788  0.00  0.00    +0.000 A 
ATOM      2  C   UNL     1      45.649   1.822   8.972  0.00  0.00    +0.000 A 
ATOM      3  C   UNL     1      44.836   2.766   9.605  0.00  0.00    +0.000 A 
ATOM      4  C   UNL     1      44.686   4.033   9.053  0.00  0.00    +0.000 A 
ATOM      5  N   UNL     1      43.846   4.996   9.558  0.00  0.00    +0.000 N 
ATOM      6  N   UNL     1      45.307   4.376   7.906  0.00  0.00    +0.000 NA
ATOM      7  C   UNL     1      46.102   3.453   7.307  0.00  0.00    +0.000 A 
ATOM      8  H   UNL     1      43.951   5.842   9.009  0.00  0.00    +0.000 HD
ENDROOT
BRANCH   1  10
ATOM      9  N   UNL     1      48.165   1.801   6.277  0.00  0.00    +0.000 N 
ATOM     10  C   UNL     1      47.174   1.246   7.041  0.00  0.00    +0.000 C 
ATOM     11  O   UNL     1      47.046   0.032   7.124  0.00  0.00    +0.000 OA
ATOM     12  H   UNL     1      48.816   1.151   5.853  0.00  0.00    +0.000 HD
ATOM     13  H   UNL     1      48.466   2.757   6.384  0.00  0.00    +0.000 HD
ENDBRANCH   1  10
BRANCH   5  14
ATOM     14  C   UNL     1      43.600   5.184  10.973  0.00  0.00    +0.000 C 
BRANCH  14  15
ATOM     15  C   UNL     1      44.728   5.838  11.746  0.00  0.00    +0.000 A 
ATOM     16  C   UNL     1      45.019   7.203  11.674  0.00  0.00    +0.000 A 
ATOM     17  C   UNL     1      45.991   7.764  12.505  0.00  0.00    +0.000 A 
ATOM     18  C   UNL     1      46.671   6.971  13.434  0.00  0.00    +0.000 A 
ATOM     19  C   UNL     1      46.390   5.602  13.563  0.00  0.00    +0.000 A 
ATOM     20  C   UNL     1      45.424   5.058  12.694  0.00  0.00    +0.000 A 
BRANCH  19  21
ATOM     21  C   UNL     1      47.032   4.773  14.606  0.00  0.00    +0.000 A 
ATOM     22  C   UNL     1      47.530   5.311  15.801  0.00  0.00    +0.000 A 
ATOM     23  C   UNL     1      48.179   4.500  16.733  0.00  0.00    +0.000 A 
ATOM     24  C   UNL     1      48.308   3.152  16.455  0.00  0.00    +0.000 A 
ATOM     25  N   UNL     1      47.841   2.577  15.330  0.00  0.00    +0.000 NA
ATOM     26  C   UNL     1      47.224   3.397  14.442  0.00  0.00    +0.000 A 
ENDBRANCH  19  21
ENDBRANCH  14  15
ENDBRANCH   5  14
TORSDOF 4
ENDMDL
MODEL 3
REMARK VINA RESULT:    -7.534      1.746      2.485
REMARK INTER + INTRA:         -10.113
REMARK INTER:                  -9.986
REMARK INTRA:                  -0.128
REMARK UNBOUND:                -0.818
REMARK  Name = 
REMARK  4 active torsions:
REMARK  status: ('A' for Active; 'I' for Inactive)
REMARK    1  A    between atoms: C_2  and  C_4
REMARK    2  A    between atoms: N_8  and  C_9
REMARK    3  A    between atoms: C_9  and  C_10
REMARK    4  A    between atoms: C_14  and  C_15
REMARK                            x       y       z     vdW  Elec       q    Type
REMARK                         _______ _______ _______ _____ _____    ______ ____
ROOT
ATOM      1  C   UNL     1      46.710   2.533   7.145  0.00  0.00    +0.000 A 
ATOM      2  C   UNL     1      46.236   3.760   7.600  0.00  0.00    +0.000 A 
ATOM      3  C   UNL     1      45.495   3.807   8.783  0.00  0.00    +0.000 A 
ATOM      4  C   UNL     1      45.234   2.634   9.485  0.00  0.00    +0.000 A 
ATOM      5  N   UNL     1      44.586   2.593  10.696  0.00  0.00    +0.000 N 
ATOM      6  N   UNL     1      45.688   1.442   9.050  0.00  0.00    +0.000 NA
ATOM      7  C   UNL     1      46.399   1.409   7.893  0.00  0.00    +0.000 A 
ATOM      8  H   UNL     1      44.478   1.624  10.976  0.00  0.00    +0.000 HD
ENDROOT
BRANCH   1  10
ATOM      9  N   UNL     1      47.283   3.275   4.900  0.00  0.00    +0.000 N 
ATOM     10  C   UNL     1      47.501   2.374   5.907  0.00  0.00    +0.000 C 
ATOM     11  O   UNL     1      48.341   1.493   5.794  0.00  0.00    +0.000 OA
ATOM     12  H   UNL     1      47.903   3.208   4.102  0.00  0.00    +0.000 HD
ATOM     13  H   UNL     1      46.805   4.152   5.045  0.00  0.00    +0.000 HD
ENDBRANCH   1  10
BRANCH   5  14
ATOM     14  C   UNL     1      43.502   3.482  11.057  0.00  0.00    +0.000 C 
BRANCH  14  15
ATOM     15  C   UNL     1      43.883   4.942  11.203  0.00  0.00    +0.000 A 
ATOM     16  C   UNL     1      42.975   5.993  11.052  0.00  0.00    +0.000 A 
ATOM     17  C   UNL     1      43.361   7.308  11.320  0.00  0.00    +0.000 A 
ATOM     18  C   UNL     1      44.657   7.587  11.765  0.00  0.00    +0.000 A 
ATOM     19  C   UNL     1      45.594   6.561  11.961  0.00  0.00    +0.000 A 
ATOM     20  C   UNL     1      45.184   5.247  11.657  0.00  0.00    +0.000 A 
BRANCH  19  21
ATOM     21  C   UNL     1      46.935   6.831  12.522  0.00  0.00    +0.000 A 
ATOM     22  C   UNL     1      47.805   7.787  11.978  0.00  0.00    +0.000 A 
ATOM     23  C   UNL     1      49.085   7.969  12.505  0.00  0.00    +0.000 A 
ATOM     24  C   UNL     1      49.469   7.194  13.584  0.00  0.00    +0.000 A 
ATOM     25  N   UNL     1      48.673   6.270  14.154  0.00  0.00    +0.000 NA
ATOM     26  C   UNL     1      47.440   6.111  13.611  0.00  0.00    +0.000 A 
ENDBRANCH  19  21
ENDBRANCH  14  15
ENDBRANCH   5  14
TORSDOF 4
ENDMDL
MODEL 4
REMARK VINA RESULT:    -7.130      2.907      7.042
REMARK INTER + INTRA:          -9.615
REMARK INTER:                  -8.904
REMARK INTRA:                  -0.711
REMARK UNBOUND:                -0.818
REMARK  Name = 
REMARK  4 active torsions:
REMARK  status: ('A' for Active; 'I' for Inactive)
REMARK    1  A    between atoms: C_2  and  C_4
REMARK    2  A    between atoms: N_8  and  C_9
REMARK    3  A    between atoms: C_9  and  C_10
REMARK    4  A    between atoms: C_14  and  C_15
REMARK                            x       y       z     vdW  Elec       q    Type
REMARK                         _______ _______ _______ _____ _____    ______ ____
ROOT
ATOM      1  C   UNL     1      49.106   7.522  12.918  0.00  0.00    +0.000 A 
ATOM      2  C   UNL     1      48.400   7.925  11.789  0.00  0.00    +0.000 A 
ATOM      3  C   UNL     1      47.054   7.569  11.666  0.00  0.00    +0.000 A 
ATOM      4  C   UNL     1      46.442   6.816  12.663  0.00  0.00    +0.000 A 
ATOM      5  N   UNL     1      45.108   6.490  12.667  0.00  0.00    +0.000 N 
ATOM      6  N   UNL     1      47.120   6.422  13.759  0.00  0.00    +0.000 NA
ATOM      7  C   UNL     1      48.430   6.766  13.861  0.00  0.00    +0.000 A 
ATOM      8  H   UNL     1      44.918   5.901  13.471  0.00  0.00    +0.000 HD
ENDROOT
BRANCH   1  10
ATOM      9  N   UNL     1      51.021   7.681  14.413  0.00  0.00    +0.000 N 
ATOM     10  C   UNL     1      50.531   7.844  13.145  0.00  0.00    +0.000 C 
ATOM     11  O   UNL     1      51.256   8.213  12.232  0.00  0.00    +0.000 OA
ATOM     12  H   UNL     1      52.019   7.812  14.524  0.00  0.00    +0.000 HD
ATOM     13  H   UNL     1      50.541   7.142  15.118  0.00  0.00    +0.000 HD
ENDBRANCH   1  10
BRANCH   5  14
ATOM     14  C   UNL     1      44.349   6.193  11.470  0.00  0.00    +0.000 C 
BRANCH  14  15
ATOM     15  C   UNL     1      44.329   4.734  11.061  0.00  0.00    +0.000 A 
ATOM     16  C   UNL     1      43.451   3.794  11.606  0.00  0.00    +0.000 A 
ATOM     17  C   UNL     1      43.400   2.494  11.098  0.00  0.00    +0.000 A 
ATOM     18  C   UNL     1      44.212   2.122  10.023  0.00  0.00    +0.000 A 
ATOM     19  C   UNL     1      45.087   3.041   9.423  0.00  0.00    +0.000 A 
ATOM     20  C   UNL     1      45.137   4.337   9.973  0.00  0.00    +0.000 A 
BRANCH  19  21
ATOM     21  C   UNL     1      45.880   2.689   8.225  0.00  0.00    +0.000 A 
ATOM     22  C   UNL     1      46.094   3.585   7.168  0.00  0.00    +0.000 A 
ATOM     23  C   UNL     1      46.801   3.192   6.031  0.00  0.00    +0.000 A 
ATOM     24  C   UNL     1      47.297   1.902   5.978  0.00  0.00    +0.000 A 
ATOM     25  N   UNL     1      47.133   1.003   6.966  0.00  0.00    +0.000 NA
ATOM     26  C   UNL     1      46.431   1.415   8.052  0.00  0.00    +0.000 A 
ENDBRANCH  19  21
ENDBRANCH  14  15
ENDBRANCH   5  14
TORSDOF 4
ENDMDL
MODEL 5
REMARK VINA RESULT:    -7.052      4.797      7.894
REMARK INTER + INTRA:          -9.519
REMARK INTER:                  -9.067
REMARK INTRA:                  -0.452
REMARK UNBOUND:                -0.818
REMARK  Name = 
REMARK  4 active torsions:
REMARK  status: ('A' for Active; 'I' for Inactive)
REMARK    1  A    between atoms: C_2  and  C_4
REMARK    2  A    between atoms: N_8  and  C_9
REMARK    3  A    between atoms: C_9  and  C_10
REMARK    4  A    between atoms: C_14  and  C_15
REMARK                            x       y       z     vdW  Elec       q    Type
REMARK                         _______ _______ _______ _____ _____    ______ ____
ROOT
ATOM      1  C   UNL     1      49.632   3.916  17.423  0.00  0.00    +0.000 A 
ATOM      2  C   UNL     1      49.115   5.179  17.150  0.00  0.00    +0.000 A 
ATOM      3  C   UNL     1      48.033   5.295  16.274  0.00  0.00    +0.000 A 
ATOM      4  C   UNL     1      47.494   4.158  15.682  0.00  0.00    +0.000 A 
ATOM      5  N   UNL     1      46.383   4.166  14.875  0.00  0.00    +0.000 N 
ATOM      6  N   UNL     1      47.991   2.932  15.941  0.00  0.00    +0.000 NA
ATOM      7  C   UNL     1      49.049   2.833  16.786  0.00  0.00    +0.000 A 
ATOM      8  H   UNL     1      46.219   3.225  14.533  0.00  0.00    +0.000 HD
ENDROOT
BRANCH   1  10
ATOM      9  N   UNL     1      51.538   2.570  18.113  0.00  0.00    +0.000 N 
ATOM     10  C   UNL     1      50.774   3.684  18.332  0.00  0.00    +0.000 C 
ATOM     11  O   UNL     1      51.048   4.470  19.228  0.00  0.00    +0.000 OA
ATOM     12  H   UNL     1      52.371   2.482  18.684  0.00  0.00    +0.000 HD
ATOM     13  H   UNL     1      51.511   2.050  17.249  0.00  0.00    +0.000 HD
ENDBRANCH   1  10
BRANCH   5  14
ATOM     14  C   UNL     1      46.066   5.239  13.955  0.00  0.00    +0.000 C 
BRANCH  14  15
ATOM     15  C   UNL     1      45.071   4.887  12.867  0.00  0.00    +0.000 A 
ATOM     16  C   UNL     1      43.718   5.233  12.922  0.00  0.00    +0.000 A 
ATOM     17  C   UNL     1      42.879   4.988  11.832  0.00  0.00    +0.000 A 
ATOM     18  C   UNL     1      43.388   4.413  10.664  0.00  0.00    +0.000 A 
ATOM     19  C   UNL     1      44.747   4.079  10.551  0.00  0.00    +0.000 A 
ATOM     20  C   UNL     1      45.563   4.313  11.676  0.00  0.00    +0.000 A 
BRANCH  19  21
ATOM     21  C   UNL     1      45.317   3.561   9.289  0.00  0.00    +0.000 A 
ATOM     22  C   UNL     1      45.483   2.191   9.039  0.00  0.00    +0.000 A 
ATOM     23  C   UNL     1      46.078   1.748   7.857  0.00  0.00    +0.000 A 
ATOM     24  C   UNL     1      46.488   2.692   6.933  0.00  0.00    +0.000 A 
ATOM     25  N   UNL     1      46.344   4.018   7.113  0.00  0.00    +0.000 NA
ATOM     26  C   UNL     1      45.771   4.414   8.278  0.00  0.00    +0.000 A 
ENDBRANCH  19  21
ENDBRANCH  14  15
ENDBRANCH   5  14
TORSDOF 4
ENDMDL
MODEL 6
REMARK VINA RESULT:    -6.951      3.203      7.088
REMARK INTER + INTRA:          -9.394
REMARK INTER:                  -8.760
REMARK INTRA:                  -0.634
REMARK UNBOUND:                -0.818
REMARK  Name = 
REMARK  4 active torsions:
REMARK  status: ('A' for Active; 'I' for Inactive)
REMARK    1  A    between atoms: C_2  and  C_4
REMARK    2  A    between atoms: N_8  and  C_9
REMARK    3  A    between atoms: C_9  and  C_10
REMARK    4  A    between atoms: C_14  and  C_15
REMARK                            x       y       z     vdW  Elec       q    Type
REMARK                         _______ _______ _______ _____ _____    ______ ____
ROOT
ATOM      1  C   UNL     1      49.537   8.408  12.765  0.00  0.00    +0.000 A 
ATOM      2  C   UNL     1      48.481   8.918  12.016  0.00  0.00    +0.000 A 
ATOM      3  C   UNL     1      47.218   8.333  12.134  0.00  0.00    +0.000 A 
ATOM      4  C   UNL     1      47.032   7.251  12.987  0.00  0.00    +0.000 A 
ATOM      5  N   UNL     1      45.813   6.665  13.229  0.00  0.00    +0.000 N 
ATOM      6  N   UNL     1      48.050   6.750  13.716  0.00  0.00    +0.000 NA
ATOM      7  C   UNL     1      49.275   7.321  13.584  0.00  0.00    +0.000 A 
ATOM      8  H   UNL     1      45.948   5.872  13.847  0.00  0.00    +0.000 HD
ENDROOT
BRANCH   1  10
ATOM      9  N   UNL     1      51.945   8.060  12.797  0.00  0.00    +0.000 N 
ATOM     10  C   UNL     1      50.910   8.952  12.713  0.00  0.00    +0.000 C 
ATOM     11  O   UNL     1      51.119  10.148  12.569  0.00  0.00    +0.000 OA
ATOM     12  H   UNL     1      52.873   8.442  12.660  0.00  0.00    +0.000 HD
ATOM     13  H   UNL     1      51.825   7.069  12.653  0.00  0.00    +0.000 HD
ENDBRANCH   1  10
BRANCH   5  14
ATOM     14  C   UNL     1      44.779   6.519  12.226  0.00  0.00    +0.000 C 
BRANCH  14  15
ATOM     15  C   UNL     1      44.543   5.103  11.740  0.00  0.00    +0.000 A 
ATOM     16  C   UNL     1      43.591   4.247  12.299  0.00  0.00    +0.000 A 
ATOM     17  C   UNL     1      43.338   2.998  11.726  0.00  0.00    +0.000 A 
ATOM     18  C   UNL     1      44.020   2.599  10.572  0.00  0.00    +0.000 A 
ATOM     19  C   UNL     1      44.962   3.438   9.958  0.00  0.00    +0.000 A 
ATOM     20  C   UNL     1      45.216   4.680  10.573  0.00  0.00    +0.000 A 
BRANCH  19  21
ATOM     21  C   UNL     1      45.618   3.068   8.685  0.00  0.00    +0.000 A 
ATOM     22  C   UNL     1      46.035   1.760   8.401  0.00  0.00    +0.000 A 
ATOM     23  C   UNL     1      46.702   1.467   7.210  0.00  0.00    +0.000 A 
ATOM     24  C   UNL     1      46.931   2.495   6.314  0.00  0.00    +0.000 A 
ATOM     25  N   UNL     1      46.545   3.766   6.528  0.00  0.00    +0.000 NA
ATOM     26  C   UNL     1      45.908   4.018   7.700  0.00  0.00    +0.000 A 
ENDBRANCH  19  21
ENDBRANCH  14  15
ENDBRANCH   5  14
TORSDOF 4
ENDMDL
MODEL 7
REMARK VINA RESULT:    -6.755      3.632      7.548
REMARK INTER + INTRA:          -9.153
REMARK INTER:                  -8.514
REMARK INTRA:                  -0.639
REMARK UNBOUND:                -0.818
REMARK  Name = 
REMARK  4 active torsions:
REMARK  status: ('A' for Active; 'I' for Inactive)
REMARK    1  A    between atoms: C_2  and  C_4
REMARK    2  A    between atoms: N_8  and  C_9
REMARK    3  A    between atoms: C_9  and  C_10
REMARK    4  A    between atoms: C_14  and  C_15
REMARK                            x       y       z     vdW  Elec       q    Type
REMARK                         _______ _______ _______ _____ _____    ______ ____
ROOT
ATOM      1  C   UNL     1      48.412   5.101  16.254  0.00  0.00    +0.000 A 
ATOM      2  C   UNL     1      47.316   4.359  15.824  0.00  0.00    +0.000 A 
ATOM      3  C   UNL     1      46.684   4.709  14.628  0.00  0.00    +0.000 A 
ATOM      4  C   UNL     1      47.150   5.791  13.889  0.00  0.00    +0.000 A 
ATOM      5  N   UNL     1      46.646   6.158  12.665  0.00  0.00    +0.000 N 
ATOM      6  N   UNL     1      48.210   6.516  14.299  0.00  0.00    +0.000 NA
ATOM      7  C   UNL     1      48.808   6.171  15.469  0.00  0.00    +0.000 A 
ATOM      8  H   UNL     1      47.118   7.001  12.355  0.00  0.00    +0.000 HD
ENDROOT
BRANCH   1  10
ATOM      9  N   UNL     1      49.581   5.886  18.238  0.00  0.00    +0.000 N 
ATOM     10  C   UNL     1      49.149   4.816  17.503  0.00  0.00    +0.000 C 
ATOM     11  O   UNL     1      49.340   3.670  17.884  0.00  0.00    +0.000 OA
ATOM     12  H   UNL     1      49.996   5.670  19.137  0.00  0.00    +0.000 HD
ATOM     13  H   UNL     1      49.227   6.821  18.103  0.00  0.00    +0.000 HD
ENDBRANCH   1  10
BRANCH   5  14
ATOM     14  C   UNL     1      45.247   6.047  12.306  0.00  0.00    +0.000 C 
BRANCH  14  15
ATOM     15  C   UNL     1      44.841   4.726  11.684  0.00  0.00    +0.000 A 
ATOM     16  C   UNL     1      43.735   3.984  12.108  0.00  0.00    +0.000 A 
ATOM     17  C   UNL     1      43.343   2.838  11.413  0.00  0.00    +0.000 A 
ATOM     18  C   UNL     1      44.038   2.430  10.271  0.00  0.00    +0.000 A 
ATOM     19  C   UNL     1      45.135   3.161   9.790  0.00  0.00    +0.000 A 
ATOM     20  C   UNL     1      45.525   4.298  10.526  0.00  0.00    +0.000 A 
BRANCH  19  21
ATOM     21  C   UNL     1      45.819   2.797   8.530  0.00  0.00    +0.000 A 
ATOM     22  C   UNL     1      46.054   3.720   7.501  0.00  0.00    +0.000 A 
ATOM     23  C   UNL     1      46.653   3.319   6.306  0.00  0.00    +0.000 A 
ATOM     24  C   UNL     1      47.019   1.993   6.166  0.00  0.00    +0.000 A 
ATOM     25  N   UNL     1      46.829   1.065   7.123  0.00  0.00    +0.000 NA
ATOM     26  C   UNL     1      46.236   1.487   8.268  0.00  0.00    +0.000 A 
ENDBRANCH  19  21
ENDBRANCH  14  15
ENDBRANCH   5  14
TORSDOF 4
ENDMDL
MODEL 8
REMARK VINA RESULT:    -6.488      5.591      8.248
REMARK INTER + INTRA:          -8.824
REMARK INTER:                  -8.107
REMARK INTRA:                  -0.717
REMARK UNBOUND:                -0.818
REMARK  Name = 
REMARK  4 active torsions:
REMARK  status: ('A' for Active; 'I' for Inactive)
REMARK    1  A    between atoms: C_2  and  C_4
REMARK    2  A    between atoms: N_8  and  C_9
REMARK    3  A    between atoms: C_9  and  C_10
REMARK    4  A    between atoms: C_14  and  C_15
REMARK                            x       y       z     vdW  Elec       q    Type
REMARK                         _______ _______ _______ _____ _____    ______ ____
ROOT
ATOM      1  C   UNL     1      51.439   2.591  17.541  0.00  0.00    +0.000 A 
ATOM      2  C   UNL     1      51.930   3.892  17.596  0.00  0.00    +0.000 A 
ATOM      3  C   UNL     1      51.054   4.959  17.384  0.00  0.00    +0.000 A 
ATOM      4  C   UNL     1      49.711   4.712  17.117  0.00  0.00    +0.000 A 
ATOM      5  N   UNL     1      48.763   5.696  16.978  0.00  0.00    +0.000 N 
ATOM      6  N   UNL     1      49.228   3.455  17.061  0.00  0.00    +0.000 NA
ATOM      7  C   UNL     1      50.093   2.426  17.258  0.00  0.00    +0.000 A 
ATOM      8  H   UNL     1      47.876   5.264  16.742  0.00  0.00    +0.000 HD
ENDROOT
BRANCH   1  10
ATOM      9  N   UNL     1      51.651   0.239  18.127  0.00  0.00    +0.000 N 
ATOM     10  C   UNL     1      52.280   1.394  17.748  0.00  0.00    +0.000 C 
ATOM     11  O   UNL     1      53.488   1.421  17.559  0.00  0.00    +0.000 OA
ATOM     12  H   UNL     1      52.231  -0.591  18.167  0.00  0.00    +0.000 HD
ATOM     13  H   UNL     1      50.655   0.105  18.040  0.00  0.00    +0.000 HD
ENDBRANCH   1  10
BRANCH   5  14
ATOM     14  C   UNL     1      49.024   6.983  16.367  0.00  0.00    +0.000 C 
BRANCH  14  15
ATOM     15  C   UNL     1      48.773   7.055  14.874  0.00  0.00    +0.000 A 
ATOM     16  C   UNL     1      49.631   7.700  13.980  0.00  0.00    +0.000 A 
ATOM     17  C   UNL     1      49.407   7.625  12.604  0.00  0.00    +0.000 A 
ATOM     18  C   UNL     1      48.333   6.884  12.102  0.00  0.00    +0.000 A 
ATOM     19  C   UNL     1      47.463   6.193  12.960  0.00  0.00    +0.000 A 
ATOM     20  C   UNL     1      47.698   6.309  14.344  0.00  0.00    +0.000 A 
BRANCH  19  21
ATOM     21  C   UNL     1      46.383   5.328  12.438  0.00  0.00    +0.000 A 
ATOM     22  C   UNL     1      45.582   5.692  11.347  0.00  0.00    +0.000 A 
ATOM     23  C   UNL     1      44.536   4.870  10.924  0.00  0.00    +0.000 A 
ATOM     24  C   UNL     1      44.317   3.683  11.600  0.00  0.00    +0.000 A 
ATOM     25  N   UNL     1      45.060   3.277  12.646  0.00  0.00    +0.000 NA
ATOM     26  C   UNL     1      46.062   4.104  13.037  0.00  0.00    +0.000 A 
ENDBRANCH  19  21
ENDBRANCH  14  15
ENDBRANCH   5  14
TORSDOF 4
ENDMDL
MODEL 9
REMARK VINA RESULT:    -6.227      5.733      7.493
REMARK INTER + INTRA:          -8.501
REMARK INTER:                  -7.901
REMARK INTRA:                  -0.600
REMARK UNBOUND:                -0.818
REMARK  Name = 
REMARK  4 active torsions:
REMARK  status: ('A' for Active; 'I' for Inactive)
REMARK    1  A    between atoms: C_2  and  C_4
REMARK    2  A    between atoms: N_8  and  C_9
REMARK    3  A    between atoms: C_9  and  C_10
REMARK    4  A    between atoms: C_14  and  C_15
REMARK                            x       y       z     vdW  Elec       q    Type
REMARK                         _______ _______ _______ _____ _____    ______ ____
ROOT
ATOM      1  C   UNL     1      45.525   4.845  11.646  0.00  0.00    +0.000 A 
ATOM      2  C   UNL     1      46.039   5.819  12.497  0.00  0.00    +0.000 A 
ATOM      3  C   UNL     1      46.551   5.436  13.739  0.00  0.00    +0.000 A 
ATOM      4  C   UNL     1      46.536   4.096  14.111  0.00  0.00    +0.000 A 
ATOM      5  N   UNL     1      47.090   3.616  15.273  0.00  0.00    +0.000 N 
ATOM      6  N   UNL     1      46.040   3.146  13.293  0.00  0.00    +0.000 NA
ATOM      7  C   UNL     1      45.535   3.534  12.093  0.00  0.00    +0.000 A 
ATOM      8  H   UNL     1      46.909   2.621  15.336  0.00  0.00    +0.000 HD
ENDROOT
BRANCH   1  10
ATOM      9  N   UNL     1      43.620   5.421  10.246  0.00  0.00    +0.000 N 
ATOM     10  C   UNL     1      44.959   5.144  10.314  0.00  0.00    +0.000 C 
ATOM     11  O   UNL     1      45.661   5.175   9.313  0.00  0.00    +0.000 OA
ATOM     12  H   UNL     1      43.273   5.718   9.342  0.00  0.00    +0.000 HD
ATOM     13  H   UNL     1      43.069   5.660  11.056  0.00  0.00    +0.000 HD
ENDBRANCH   1  10
BRANCH   5  14
ATOM     14  C   UNL     1      47.082   4.343  16.526  0.00  0.00    +0.000 C 
BRANCH  14  15
ATOM     15  C   UNL     1      48.448   4.726  17.062  0.00  0.00    +0.000 A 
ATOM     16  C   UNL     1      48.723   5.961  17.655  0.00  0.00    +0.000 A 
ATOM     17  C   UNL     1      49.968   6.204  18.239  0.00  0.00    +0.000 A 
ATOM     18  C   UNL     1      50.948   5.208  18.257  0.00  0.00    +0.000 A 
ATOM     19  C   UNL     1      50.706   3.942  17.701  0.00  0.00    +0.000 A 
ATOM     20  C   UNL     1      49.451   3.733  17.096  0.00  0.00    +0.000 A 
BRANCH  19  21
ATOM     21  C   UNL     1      51.697   2.849  17.799  0.00  0.00    +0.000 A 
ATOM     22  C   UNL     1      53.011   3.056  18.243  0.00  0.00    +0.000 A 
ATOM     23  C   UNL     1      53.931   2.006  18.265  0.00  0.00    +0.000 A 
ATOM     24  C   UNL     1      53.511   0.755  17.851  0.00  0.00    +0.000 A 
ATOM     25  N   UNL     1      52.261   0.495  17.425  0.00  0.00    +0.000 NA
ATOM     26  C   UNL     1      51.395   1.540  17.407  0.00  0.00    +0.000 A 
ENDBRANCH  19  21
ENDBRANCH  14  15
ENDBRANCH   5  14
TORSDOF 4
ENDMDL
