MODEL 1
REMARK VINA RESULT:    -6.438      0.000      0.000
REMARK INTER + INTRA:          -9.018
REMARK INTER:                  -8.509
REMARK INTRA:                  -0.509
REMARK UNBOUND:                -0.509
REMARK  Name = 
REMARK  7 active torsions:
REMARK  status: ('A' for Active; 'I' for Inactive)
REMARK    1  A    between atoms: C_1  and  C_2
REMARK    2  A    between atoms: C_2  and  O_3
REMARK    3  A    between atoms: O_3  and  C_4
REMARK    4  A    between atoms: C_8  and  C_9
REMARK    5  A    between atoms: C_10  and  C_11
REMARK    6  A    between atoms: C_14  and  C_15
REMARK    7  A    between atoms: C_22  and  O_23
REMARK                            x       y       z     vdW  Elec       q    Type
REMARK                         _______ _______ _______ _____ _____    ______ ____
ROOT
ATOM      1  C   UNL     1      44.824   4.540  10.337  0.00  0.00    +0.000 A 
ATOM      2  C   UNL     1      43.477   4.883  10.278  0.00  0.00    +0.000 A 
ATOM      3  C   UNL     1      42.777   5.186  11.444  0.00  0.00    +0.000 A 
ATOM      4  C   UNL     1      43.410   5.104  12.681  0.00  0.00    +0.000 A 
ATOM      5  C   UNL     1      44.743   4.683  12.768  0.00  0.00    +0.000 A 
ATOM      6  C   UNL     1      45.451   4.436  11.584  0.00  0.00    +0.000 A 
ENDROOT
BRANCH   5   7
ATOM      7  C   UNL     1      45.422   4.496  14.056  0.00  0.00    +0.000 C 
ATOM      8  C   UNL     1      46.728   4.751  14.252  0.00  0.00    +0.000 C 
BRANCH   8   9
ATOM      9  C   UNL     1      47.386   4.657  15.562  0.00  0.00    +0.000 A 
ATOM     10  C   UNL     1      48.347   5.591  15.936  0.00  0.00    +0.000 A 
ATOM     11  C   UNL     1      48.935   5.480  17.198  0.00  0.00    +0.000 A 
ATOM     12  C   UNL     1      48.551   4.447  18.057  0.00  0.00    +0.000 A 
ATOM     13  C   UNL     1      47.578   3.574  17.599  0.00  0.00    +0.000 A 
ATOM     14  N   UNL     1      46.993   3.653  16.379  0.00  0.00    +0.000 NA
BRANCH  12  15
ATOM     15  C   UNL     1      49.191   4.331  19.387  0.00  0.00    +0.000 C 
ATOM     16  N   UNL     1      48.601   3.556  20.346  0.00  0.00    +0.000 N 
ATOM     17  O   UNL     1      50.242   4.913  19.634  0.00  0.00    +0.000 OA
ATOM     18  H   UNL     1      47.750   3.026  20.245  0.00  0.00    +0.000 HD
ATOM     19  H   UNL     1      49.083   3.496  21.235  0.00  0.00    +0.000 HD
ENDBRANCH  12  15
ENDBRANCH   8   9
ENDBRANCH   5   7
BRANCH   1  20
ATOM     20  O   UNL     1      45.629   4.275   9.254  0.00  0.00    +0.000 OA
BRANCH  20  22
ATOM     21  C   UNL     1      44.756   1.988   9.284  0.00  0.00    +0.000 C 
ATOM     22  C   UNL     1      45.448   3.072   8.460  0.00  0.00    +0.000 C 
ATOM     23  C   UNL     1      44.991   3.237   6.975  0.00  0.00    +0.000 C 
ATOM     24  C   UNL     1      46.474   3.282   6.567  0.00  0.00    +0.000 C 
ATOM     25  C   UNL     1      46.794   2.532   7.874  0.00  0.00    +0.000 C 
BRANCH  24  26
ATOM     26  O   UNL     1      46.819   2.618   5.338  0.00  0.00    +0.000 OA
ATOM     27  H   UNL     1      46.374   3.116   4.631  0.00  0.00    +0.000 HD
ENDBRANCH  24  26
ENDBRANCH  20  22
ENDBRANCH   1  20
TORSDOF 6
ENDMDL
MODEL 2
REMARK VINA RESULT:    -6.259      3.319      3.943
REMARK INTER + INTRA:          -8.781
REMARK INTER:                  -8.289
REMARK INTRA:                  -0.492
REMARK UNBOUND:                -0.509
REMARK  Name = 
REMARK  7 active torsions:
REMARK  status: ('A' for Active; 'I' for Inactive)
REMARK    1  A    between atoms: C_1  and  C_2
REMARK    2  A    between atoms: C_2  and  O_3
REMARK    3  A    between atoms: O_3  and  C_4
REMARK    4  A    between atoms: C_8  and  C_9
REMARK    5  A    between atoms: C_10  and  C_11
REMARK    6  A    between atoms: C_14  and  C_15
REMARK    7  A    between atoms: C_22  and  O_23
REMARK                            x       y       z     vdW  Elec       q    Type
REMARK                         _______ _______ _______ _____ _____    ______ ____
ROOT
ATOM      1  C   UNL     1      44.966   4.439   8.939  0.00  0.00    +0.000 A 
ATOM      2  C   UNL     1      43.828   4.063   9.648  0.00  0.00    +0.000 A 
ATOM      3  C   UNL     1      43.593   4.575  10.922  0.00  0.00    +0.000 A 
ATOM      4  C   UNL     1      44.518   5.432  11.513  0.00  0.00    +0.000 A 
ATOM      5  C   UNL     1      45.707   5.760  10.847  0.00  0.00    +0.000 A 
ATOM      6  C   UNL     1      45.903   5.282   9.545  0.00  0.00    +0.000 A 
ENDROOT
BRANCH   5   7
ATOM      7  C   UNL     1      46.749   6.587  11.469  0.00  0.00    +0.000 C 
ATOM      8  C   UNL     1      47.468   6.198  12.536  0.00  0.00    +0.000 C 
BRANCH   8   9
ATOM      9  C   UNL     1      48.575   6.982  13.098  0.00  0.00    +0.000 A 
ATOM     10  C   UNL     1      49.135   8.029  12.374  0.00  0.00    +0.000 A 
ATOM     11  C   UNL     1      50.173   8.765  12.951  0.00  0.00    +0.000 A 
ATOM     12  C   UNL     1      50.625   8.443  14.233  0.00  0.00    +0.000 A 
ATOM     13  C   UNL     1      49.997   7.391  14.878  0.00  0.00    +0.000 A 
ATOM     14  N   UNL     1      48.992   6.656  14.343  0.00  0.00    +0.000 NA
BRANCH  12  15
ATOM     15  C   UNL     1      51.735   9.222  14.829  0.00  0.00    +0.000 C 
ATOM     16  N   UNL     1      52.995   9.089  14.312  0.00  0.00    +0.000 N 
ATOM     17  O   UNL     1      51.539   9.984  15.768  0.00  0.00    +0.000 OA
ATOM     18  H   UNL     1      53.264   8.506  13.536  0.00  0.00    +0.000 HD
ATOM     19  H   UNL     1      53.718   9.652  14.742  0.00  0.00    +0.000 HD
ENDBRANCH  12  15
ENDBRANCH   8   9
ENDBRANCH   5   7
BRANCH   1  20
ATOM     20  O   UNL     1      45.275   4.043   7.659  0.00  0.00    +0.000 OA
BRANCH  20  22
ATOM     21  C   UNL     1      45.837   1.832   8.545  0.00  0.00    +0.000 C 
ATOM     22  C   UNL     1      46.040   2.834   7.411  0.00  0.00    +0.000 C 
ATOM     23  C   UNL     1      46.059   2.266   5.955  0.00  0.00    +0.000 C 
ATOM     24  C   UNL     1      47.315   3.114   5.685  0.00  0.00    +0.000 C 
ATOM     25  C   UNL     1      47.564   3.120   7.205  0.00  0.00    +0.000 C 
BRANCH  24  26
ATOM     26  O   UNL     1      48.330   2.509   4.864  0.00  0.00    +0.000 OA
ATOM     27  H   UNL     1      47.868   2.152   4.087  0.00  0.00    +0.000 HD
ENDBRANCH  24  26
ENDBRANCH  20  22
ENDBRANCH   1  20
TORSDOF 6
ENDMDL
MODEL 3
REMARK VINA RESULT:    -6.202      3.102      9.546
REMARK INTER + INTRA:          -8.705
REMARK INTER:                  -7.855
REMARK INTRA:                  -0.850
REMARK UNBOUND:                -0.509
REMARK  Name = 
REMARK  7 active torsions:
REMARK  status: ('A' for Active; 'I' for Inactive)
REMARK    1  A    between atoms: C_1  and  C_2
REMARK    2  A    between atoms: C_2  and  O_3
REMARK    3  A    between atoms: O_3  and  C_4
REMARK    4  A    between atoms: C_8  and  C_9
REMARK    5  A    between atoms: C_10  and  C_11
REMARK    6  A    between atoms: C_14  and  C_15
REMARK    7  A    between atoms: C_22  and  O_23
REMARK                            x       y       z     vdW  Elec       q    Type
REMARK                         _______ _______ _______ _____ _____    ______ ____
ROOT
ATOM      1  C   UNL     1      48.125   5.648  18.776  0.00  0.00    +0.000 A 
ATOM      2  C   UNL     1      49.171   4.847  19.225  0.00  0.00    +0.000 A 
ATOM      3  C   UNL     1      49.641   3.799  18.437  0.00  0.00    +0.000 A 
ATOM      4  C   UNL     1      49.037   3.519  17.213  0.00  0.00    +0.000 A 
ATOM      5  C   UNL     1      47.933   4.264  16.781  0.00  0.00    +0.000 A 
ATOM      6  C   UNL     1      47.506   5.349  17.558  0.00  0.00    +0.000 A 
ENDROOT
BRANCH   5   7
ATOM      7  C   UNL     1      47.210   3.945  15.543  0.00  0.00    +0.000 C 
ATOM      8  C   UNL     1      46.780   4.876  14.674  0.00  0.00    +0.000 C 
BRANCH   8   9
ATOM      9  C   UNL     1      46.144   4.555  13.390  0.00  0.00    +0.000 A 
ATOM     10  C   UNL     1      45.932   5.549  12.440  0.00  0.00    +0.000 A 
ATOM     11  C   UNL     1      45.344   5.201  11.223  0.00  0.00    +0.000 A 
ATOM     12  C   UNL     1      44.983   3.873  10.978  0.00  0.00    +0.000 A 
ATOM     13  C   UNL     1      45.244   2.954  11.980  0.00  0.00    +0.000 A 
ATOM     14  N   UNL     1      45.809   3.262  13.173  0.00  0.00    +0.000 NA
BRANCH  12  15
ATOM     15  C   UNL     1      44.347   3.519   9.689  0.00  0.00    +0.000 C 
ATOM     16  N   UNL     1      44.082   4.508   8.782  0.00  0.00    +0.000 N 
ATOM     17  O   UNL     1      44.063   2.356   9.424  0.00  0.00    +0.000 OA
ATOM     18  H   UNL     1      44.287   5.488   8.891  0.00  0.00    +0.000 HD
ATOM     19  H   UNL     1      43.660   4.215   7.909  0.00  0.00    +0.000 HD
ENDBRANCH  12  15
ENDBRANCH   8   9
ENDBRANCH   5   7
BRANCH   1  20
ATOM     20  O   UNL     1      47.615   6.740  19.439  0.00  0.00    +0.000 OA
BRANCH  20  22
ATOM     21  C   UNL     1      49.090   8.187  20.752  0.00  0.00    +0.000 C 
ATOM     22  C   UNL     1      48.318   8.011  19.446  0.00  0.00    +0.000 C 
ATOM     23  C   UNL     1      49.034   8.459  18.131  0.00  0.00    +0.000 C 
ATOM     24  C   UNL     1      47.738   9.180  17.720  0.00  0.00    +0.000 C 
ATOM     25  C   UNL     1      47.362   9.227  19.213  0.00  0.00    +0.000 C 
BRANCH  24  26
ATOM     26  O   UNL     1      47.895  10.443  17.051  0.00  0.00    +0.000 OA
ATOM     27  H   UNL     1      48.388  11.013  17.666  0.00  0.00    +0.000 HD
ENDBRANCH  24  26
ENDBRANCH  20  22
ENDBRANCH   1  20
TORSDOF 6
ENDMDL
MODEL 4
REMARK VINA RESULT:    -6.126      2.968      4.202
REMARK INTER + INTRA:          -8.605
REMARK INTER:                  -7.978
REMARK INTRA:                  -0.627
REMARK UNBOUND:                -0.509
REMARK  Name = 
REMARK  7 active torsions:
REMARK  status: ('A' for Active; 'I' for Inactive)
REMARK    1  A    between atoms: C_1  and  C_2
REMARK    2  A    between atoms: C_2  and  O_3
REMARK    3  A    between atoms: O_3  and  C_4
REMARK    4  A    between atoms: C_8  and  C_9
REMARK    5  A    between atoms: C_10  and  C_11
REMARK    6  A    between atoms: C_14  and  C_15
REMARK    7  A    between atoms: C_22  and  O_23
REMARK                            x       y       z     vdW  Elec       q    Type
REMARK                         _______ _______ _______ _____ _____    ______ ____
ROOT
ATOM      1  C   UNL     1      45.512   6.951  12.619  0.00  0.00    +0.000 A 
ATOM      2  C   UNL     1      45.501   8.278  12.198  0.00  0.00    +0.000 A 
ATOM      3  C   UNL     1      46.603   9.098  12.430  0.00  0.00    +0.000 A 
ATOM      4  C   UNL     1      47.705   8.607  13.125  0.00  0.00    +0.000 A 
ATOM      5  C   UNL     1      47.702   7.299  13.626  0.00  0.00    +0.000 A 
ATOM      6  C   UNL     1      46.611   6.469  13.337  0.00  0.00    +0.000 A 
ENDROOT
BRANCH   5   7
ATOM      7  C   UNL     1      48.804   6.771  14.440  0.00  0.00    +0.000 C 
ATOM      8  C   UNL     1      48.644   6.293  15.687  0.00  0.00    +0.000 C 
BRANCH   8   9
ATOM      9  C   UNL     1      49.726   5.676  16.465  0.00  0.00    +0.000 A 
ATOM     10  C   UNL     1      50.926   6.351  16.662  0.00  0.00    +0.000 A 
ATOM     11  C   UNL     1      51.923   5.741  17.425  0.00  0.00    +0.000 A 
ATOM     12  C   UNL     1      51.702   4.475  17.975  0.00  0.00    +0.000 A 
ATOM     13  C   UNL     1      50.472   3.888  17.732  0.00  0.00    +0.000 A 
ATOM     14  N   UNL     1      49.487   4.453  16.993  0.00  0.00    +0.000 NA
BRANCH  12  15
ATOM     15  C   UNL     1      52.773   3.832  18.770  0.00  0.00    +0.000 C 
ATOM     16  N   UNL     1      52.824   2.466  18.837  0.00  0.00    +0.000 N 
ATOM     17  O   UNL     1      53.611   4.503  19.360  0.00  0.00    +0.000 OA
ATOM     18  H   UNL     1      52.198   1.822  18.381  0.00  0.00    +0.000 HD
ATOM     19  H   UNL     1      53.582   2.072  19.381  0.00  0.00    +0.000 HD
ENDBRANCH  12  15
ENDBRANCH   8   9
ENDBRANCH   5   7
BRANCH   1  20
ATOM     20  O   UNL     1      44.509   6.036  12.399  0.00  0.00    +0.000 OA
BRANCH  20  22
ATOM     21  C   UNL     1      45.489   5.416  10.243  0.00  0.00    +0.000 C 
ATOM     22  C   UNL     1      44.679   4.949  11.451  0.00  0.00    +0.000 C 
ATOM     23  C   UNL     1      44.999   3.528  12.015  0.00  0.00    +0.000 C 
ATOM     24  C   UNL     1      43.486   3.250  12.060  0.00  0.00    +0.000 C 
ATOM     25  C   UNL     1      43.315   4.340  10.986  0.00  0.00    +0.000 C 
BRANCH  24  26
ATOM     26  O   UNL     1      43.070   1.919  11.706  0.00  0.00    +0.000 OA
ATOM     27  H   UNL     1      43.575   1.684  10.910  0.00  0.00    +0.000 HD
ENDBRANCH  24  26
ENDBRANCH  20  22
ENDBRANCH   1  20
TORSDOF 6
ENDMDL
MODEL 5
REMARK VINA RESULT:    -5.945      3.001      9.518
REMARK INTER + INTRA:          -8.366
REMARK INTER:                  -7.717
REMARK INTRA:                  -0.649
REMARK UNBOUND:                -0.509
REMARK  Name = 
REMARK  7 active torsions:
REMARK  status: ('A' for Active; 'I' for Inactive)
REMARK    1  A    between atoms: C_1  and  C_2
REMARK    2  A    between atoms: C_2  and  O_3
REMARK    3  A    between atoms: O_3  and  C_4
REMARK    4  A    between atoms: C_8  and  C_9
REMARK    5  A    between atoms: C_10  and  C_11
REMARK    6  A    between atoms: C_14  and  C_15
REMARK    7  A    between atoms: C_22  and  O_23
REMARK                            x       y       z     vdW  Elec       q    Type
REMARK                         _______ _______ _______ _____ _____    ______ ____
ROOT
ATOM      1  C   UNL     1      49.652   7.960  17.263  0.00  0.00    +0.000 A 
ATOM      2  C   UNL     1      50.195   9.234  17.119  0.00  0.00    +0.000 A 
ATOM      3  C   UNL     1      49.913   9.994  15.986  0.00  0.00    +0.000 A 
ATOM      4  C   UNL     1      49.122   9.466  14.969  0.00  0.00    +0.000 A 
ATOM      5  C   UNL     1      48.633   8.156  15.059  0.00  0.00    +0.000 A 
ATOM      6  C   UNL     1      48.878   7.424  16.228  0.00  0.00    +0.000 A 
ENDROOT
BRANCH   5   7
ATOM      7  C   UNL     1      47.871   7.529  13.971  0.00  0.00    +0.000 C 
ATOM      8  C   UNL     1      47.508   6.235  13.969  0.00  0.00    +0.000 C 
BRANCH   8   9
ATOM      9  C   UNL     1      46.665   5.631  12.929  0.00  0.00    +0.000 A 
ATOM     10  C   UNL     1      46.485   6.270  11.708  0.00  0.00    +0.000 A 
ATOM     11  C   UNL     1      45.693   5.654  10.737  0.00  0.00    +0.000 A 
ATOM     12  C   UNL     1      45.101   4.417  11.004  0.00  0.00    +0.000 A 
ATOM     13  C   UNL     1      45.348   3.854  12.245  0.00  0.00    +0.000 A 
ATOM     14  N   UNL     1      46.107   4.430  13.208  0.00  0.00    +0.000 NA
BRANCH  12  15
ATOM     15  C   UNL     1      44.252   3.779   9.971  0.00  0.00    +0.000 C 
ATOM     16  N   UNL     1      44.116   4.386   8.753  0.00  0.00    +0.000 N 
ATOM     17  O   UNL     1      43.679   2.719  10.192  0.00  0.00    +0.000 OA
ATOM     18  H   UNL     1      44.551   5.246   8.462  0.00  0.00    +0.000 HD
ATOM     19  H   UNL     1      43.537   3.905   8.075  0.00  0.00    +0.000 HD
ENDBRANCH  12  15
ENDBRANCH   8   9
ENDBRANCH   5   7
BRANCH   1  20
ATOM     20  O   UNL     1      49.814   7.142  18.356  0.00  0.00    +0.000 OA
BRANCH  20  22
ATOM     21  C   UNL     1      47.755   7.901  19.441  0.00  0.00    +0.000 C 
ATOM     22  C   UNL     1      48.676   6.717  19.152  0.00  0.00    +0.000 C 
ATOM     23  C   UNL     1      47.995   5.358  18.789  0.00  0.00    +0.000 C 
ATOM     24  C   UNL     1      48.946   4.665  19.781  0.00  0.00    +0.000 C 
ATOM     25  C   UNL     1      49.103   6.024  20.488  0.00  0.00    +0.000 C 
BRANCH  24  26
ATOM     26  O   UNL     1      48.386   3.591  20.558  0.00  0.00    +0.000 OA
ATOM     27  H   UNL     1      47.440   3.794  20.653  0.00  0.00    +0.000 HD
ENDBRANCH  24  26
ENDBRANCH  20  22
ENDBRANCH   1  20
TORSDOF 6
ENDMDL
MODEL 6
REMARK VINA RESULT:    -5.569      6.198      7.990
REMARK INTER + INTRA:          -7.869
REMARK INTER:                  -7.231
REMARK INTRA:                  -0.638
REMARK UNBOUND:                -0.509
REMARK  Name = 
REMARK  7 active torsions:
REMARK  status: ('A' for Active; 'I' for Inactive)
REMARK    1  A    between atoms: C_1  and  C_2
REMARK    2  A    between atoms: C_2  and  O_3
REMARK    3  A    between atoms: O_3  and  C_4
REMARK    4  A    between atoms: C_8  and  C_9
REMARK    5  A    between atoms: C_10  and  C_11
REMARK    6  A    between atoms: C_14  and  C_15
REMARK    7  A    between atoms: C_22  and  O_23
REMARK                            x       y       z     vdW  Elec       q    Type
REMARK                         _______ _______ _______ _____ _____    ______ ____
ROOT
ATOM      1  C   UNL     1      52.474   8.745  10.618  0.00  0.00    +0.000 A 
ATOM      2  C   UNL     1      52.197  10.107  10.688  0.00  0.00    +0.000 A 
ATOM      3  C   UNL     1      50.968  10.550  11.173  0.00  0.00    +0.000 A 
ATOM      4  C   UNL     1      49.992   9.631  11.549  0.00  0.00    +0.000 A 
ATOM      5  C   UNL     1      50.223   8.256  11.411  0.00  0.00    +0.000 A 
ATOM      6  C   UNL     1      51.482   7.825  10.975  0.00  0.00    +0.000 A 
ENDROOT
BRANCH   5   7
ATOM      7  C   UNL     1      49.190   7.256  11.711  0.00  0.00    +0.000 C 
ATOM      8  C   UNL     1      47.873   7.526  11.716  0.00  0.00    +0.000 C 
BRANCH   8   9
ATOM      9  C   UNL     1      46.836   6.506  11.919  0.00  0.00    +0.000 A 
ATOM     10  C   UNL     1      46.002   6.131  10.872  0.00  0.00    +0.000 A 
ATOM     11  C   UNL     1      45.042   5.143  11.099  0.00  0.00    +0.000 A 
ATOM     12  C   UNL     1      44.937   4.551  12.360  0.00  0.00    +0.000 A 
ATOM     13  C   UNL     1      45.819   4.984  13.336  0.00  0.00    +0.000 A 
ATOM     14  N   UNL     1      46.758   5.943  13.147  0.00  0.00    +0.000 NA
BRANCH  12  15
ATOM     15  C   UNL     1      43.905   3.514  12.593  0.00  0.00    +0.000 C 
ATOM     16  N   UNL     1      43.709   2.545  11.648  0.00  0.00    +0.000 N 
ATOM     17  O   UNL     1      43.236   3.510  13.620  0.00  0.00    +0.000 OA
ATOM     18  H   UNL     1      44.211   2.447  10.780  0.00  0.00    +0.000 HD
ATOM     19  H   UNL     1      43.003   1.850  11.858  0.00  0.00    +0.000 HD
ENDBRANCH  12  15
ENDBRANCH   8   9
ENDBRANCH   5   7
BRANCH   1  20
ATOM     20  O   UNL     1      53.665   8.193  10.210  0.00  0.00    +0.000 OA
BRANCH  20  22
ATOM     21  C   UNL     1      54.795   9.370   8.385  0.00  0.00    +0.000 C 
ATOM     22  C   UNL     1      54.018   8.123   8.803  0.00  0.00    +0.000 C 
ATOM     23  C   UNL     1      54.515   6.753   8.240  0.00  0.00    +0.000 C 
ATOM     24  C   UNL     1      53.056   6.413   7.890  0.00  0.00    +0.000 C 
ATOM     25  C   UNL     1      52.770   7.927   7.880  0.00  0.00    +0.000 C 
BRANCH  24  26
ATOM     26  O   UNL     1      52.844   5.706   6.655  0.00  0.00    +0.000 OA
ATOM     27  H   UNL     1      53.646   5.177   6.508  0.00  0.00    +0.000 HD
ENDBRANCH  24  26
ENDBRANCH  20  22
ENDBRANCH   1  20
TORSDOF 6
ENDMDL
MODEL 7
REMARK VINA RESULT:    -5.475      3.559      9.435
REMARK INTER + INTRA:          -7.745
REMARK INTER:                  -7.135
REMARK INTRA:                  -0.610
REMARK UNBOUND:                -0.509
REMARK  Name = 
REMARK  7 active torsions:
REMARK  status: ('A' for Active; 'I' for Inactive)
REMARK    1  A    between atoms: C_1  and  C_2
REMARK    2  A    between atoms: C_2  and  O_3
REMARK    3  A    between atoms: O_3  and  C_4
REMARK    4  A    between atoms: C_8  and  C_9
REMARK    5  A    between atoms: C_10  and  C_11
REMARK    6  A    between atoms: C_14  and  C_15
REMARK    7  A    between atoms: C_22  and  O_23
REMARK                            x       y       z     vdW  Elec       q    Type
REMARK                         _______ _______ _______ _____ _____    ______ ____
ROOT
ATOM      1  C   UNL     1      51.348   6.481  17.015  0.00  0.00    +0.000 A 
ATOM      2  C   UNL     1      51.600   7.839  17.184  0.00  0.00    +0.000 A 
ATOM      3  C   UNL     1      50.694   8.786  16.711  0.00  0.00    +0.000 A 
ATOM      4  C   UNL     1      49.552   8.379  16.027  0.00  0.00    +0.000 A 
ATOM      5  C   UNL     1      49.321   7.021  15.777  0.00  0.00    +0.000 A 
ATOM      6  C   UNL     1      50.212   6.077  16.307  0.00  0.00    +0.000 A 
ENDROOT
BRANCH   5   7
ATOM      7  C   UNL     1      48.178   6.554  14.983  0.00  0.00    +0.000 C 
ATOM      8  C   UNL     1      48.198   6.448  13.642  0.00  0.00    +0.000 C 
BRANCH   8   9
ATOM      9  C   UNL     1      47.090   5.891  12.856  0.00  0.00    +0.000 A 
ATOM     10  C   UNL     1      46.426   4.747  13.286  0.00  0.00    +0.000 A 
ATOM     11  C   UNL     1      45.364   4.259  12.521  0.00  0.00    +0.000 A 
ATOM     12  C   UNL     1      44.987   4.923  11.350  0.00  0.00    +0.000 A 
ATOM     13  C   UNL     1      45.702   6.059  11.010  0.00  0.00    +0.000 A 
ATOM     14  N   UNL     1      46.739   6.553  11.729  0.00  0.00    +0.000 NA
BRANCH  12  15
ATOM     15  C   UNL     1      43.869   4.388  10.540  0.00  0.00    +0.000 C 
ATOM     16  N   UNL     1      43.925   4.491   9.177  0.00  0.00    +0.000 N 
ATOM     17  O   UNL     1      42.904   3.853  11.072  0.00  0.00    +0.000 OA
ATOM     18  H   UNL     1      44.673   4.896   8.639  0.00  0.00    +0.000 HD
ATOM     19  H   UNL     1      43.144   4.098   8.665  0.00  0.00    +0.000 HD
ENDBRANCH  12  15
ENDBRANCH   8   9
ENDBRANCH   5   7
BRANCH   1  20
ATOM     20  O   UNL     1      52.139   5.458  17.485  0.00  0.00    +0.000 OA
BRANCH  20  22
ATOM     21  C   UNL     1      51.061   5.233  19.671  0.00  0.00    +0.000 C 
ATOM     22  C   UNL     1      51.634   4.504  18.457  0.00  0.00    +0.000 C 
ATOM     23  C   UNL     1      50.837   3.270  17.926  0.00  0.00    +0.000 C 
ATOM     24  C   UNL     1      52.164   2.494  17.857  0.00  0.00    +0.000 C 
ATOM     25  C   UNL     1      52.722   3.474  18.907  0.00  0.00    +0.000 C 
BRANCH  24  26
ATOM     26  O   UNL     1      52.112   1.106  18.228  0.00  0.00    +0.000 OA
ATOM     27  H   UNL     1      52.251   0.603  17.408  0.00  0.00    +0.000 HD
ENDBRANCH  24  26
ENDBRANCH  20  22
ENDBRANCH   1  20
TORSDOF 6
ENDMDL
MODEL 8
REMARK VINA RESULT:    -5.058      2.859      3.572
REMARK INTER + INTRA:          -7.193
REMARK INTER:                  -7.184
REMARK INTRA:                  -0.009
REMARK UNBOUND:                -0.509
REMARK  Name = 
REMARK  7 active torsions:
REMARK  status: ('A' for Active; 'I' for Inactive)
REMARK    1  A    between atoms: C_1  and  C_2
REMARK    2  A    between atoms: C_2  and  O_3
REMARK    3  A    between atoms: O_3  and  C_4
REMARK    4  A    between atoms: C_8  and  C_9
REMARK    5  A    between atoms: C_10  and  C_11
REMARK    6  A    between atoms: C_14  and  C_15
REMARK    7  A    between atoms: C_22  and  O_23
REMARK                            x       y       z     vdW  Elec       q    Type
REMARK                         _______ _______ _______ _____ _____    ______ ____
ROOT
ATOM      1  C   UNL     1      45.768   5.309  12.181  0.00  0.00    +0.000 A 
ATOM      2  C   UNL     1      44.948   6.348  11.750  0.00  0.00    +0.000 A 
ATOM      3  C   UNL     1      45.250   7.666  12.083  0.00  0.00    +0.000 A 
ATOM      4  C   UNL     1      46.351   7.949  12.888  0.00  0.00    +0.000 A 
ATOM      5  C   UNL     1      47.142   6.912  13.397  0.00  0.00    +0.000 A 
ATOM      6  C   UNL     1      46.859   5.596  13.009  0.00  0.00    +0.000 A 
ENDROOT
BRANCH   5   7
ATOM      7  C   UNL     1      48.256   7.159  14.321  0.00  0.00    +0.000 C 
ATOM      8  C   UNL     1      48.568   6.345  15.344  0.00  0.00    +0.000 C 
BRANCH   8   9
ATOM      9  C   UNL     1      49.739   6.539  16.208  0.00  0.00    +0.000 A 
ATOM     10  C   UNL     1      50.160   7.821  16.548  0.00  0.00    +0.000 A 
ATOM     11  C   UNL     1      51.265   7.964  17.389  0.00  0.00    +0.000 A 
ATOM     12  C   UNL     1      51.923   6.831  17.873  0.00  0.00    +0.000 A 
ATOM     13  C   UNL     1      51.423   5.598  17.488  0.00  0.00    +0.000 A 
ATOM     14  N   UNL     1      50.356   5.427  16.670  0.00  0.00    +0.000 NA
BRANCH  12  15
ATOM     15  C   UNL     1      53.103   6.995  18.753  0.00  0.00    +0.000 C 
ATOM     16  N   UNL     1      54.210   6.221  18.536  0.00  0.00    +0.000 N 
ATOM     17  O   UNL     1      53.102   7.817  19.662  0.00  0.00    +0.000 OA
ATOM     18  H   UNL     1      54.322   5.530  17.812  0.00  0.00    +0.000 HD
ATOM     19  H   UNL     1      54.997   6.380  19.154  0.00  0.00    +0.000 HD
ENDBRANCH  12  15
ENDBRANCH   8   9
ENDBRANCH   5   7
BRANCH   1  20
ATOM     20  O   UNL     1      45.602   3.980  11.871  0.00  0.00    +0.000 OA
BRANCH  20  22
ATOM     21  C   UNL     1      43.414   2.891  12.004  0.00  0.00    +0.000 C 
ATOM     22  C   UNL     1      44.462   3.527  11.093  0.00  0.00    +0.000 C 
ATOM     23  C   UNL     1      43.942   4.454   9.948  0.00  0.00    +0.000 C 
ATOM     24  C   UNL     1      44.890   3.723   8.981  0.00  0.00    +0.000 C 
ATOM     25  C   UNL     1      44.869   2.531   9.957  0.00  0.00    +0.000 C 
BRANCH  24  26
ATOM     26  O   UNL     1      44.389   3.483   7.654  0.00  0.00    +0.000 OA
ATOM     27  H   UNL     1      45.003   3.935   7.051  0.00  0.00    +0.000 HD
ENDBRANCH  24  26
ENDBRANCH  20  22
ENDBRANCH   1  20
TORSDOF 6
ENDMDL
MODEL 9
REMARK VINA RESULT:    -5.057      3.664      9.388
REMARK INTER + INTRA:          -7.192
REMARK INTER:                  -6.553
REMARK INTRA:                  -0.639
REMARK UNBOUND:                -0.509
REMARK  Name = 
REMARK  7 active torsions:
REMARK  status: ('A' for Active; 'I' for Inactive)
REMARK    1  A    between atoms: C_1  and  C_2
REMARK    2  A    between atoms: C_2  and  O_3
REMARK    3  A    between atoms: O_3  and  C_4
REMARK    4  A    between atoms: C_8  and  C_9
REMARK    5  A    between atoms: C_10  and  C_11
REMARK    6  A    between atoms: C_14  and  C_15
REMARK    7  A    between atoms: C_22  and  O_23
REMARK                            x       y       z     vdW  Elec       q    Type
REMARK                         _______ _______ _______ _____ _____    ______ ____
ROOT
ATOM      1  C   UNL     1      51.488   8.373  15.585  0.00  0.00    +0.000 A 
ATOM      2  C   UNL     1      51.579   9.760  15.496  0.00  0.00    +0.000 A 
ATOM      3  C   UNL     1      50.701  10.471  14.681  0.00  0.00    +0.000 A 
ATOM      4  C   UNL     1      49.755   9.794  13.915  0.00  0.00    +0.000 A 
ATOM      5  C   UNL     1      49.700   8.395  13.930  0.00  0.00    +0.000 A 
ATOM      6  C   UNL     1      50.552   7.696  14.796  0.00  0.00    +0.000 A 
ENDROOT
BRANCH   5   7
ATOM      7  C   UNL     1      48.780   7.639  13.071  0.00  0.00    +0.000 C 
ATOM      8  C   UNL     1      47.905   6.730  13.538  0.00  0.00    +0.000 C 
BRANCH   8   9
ATOM      9  C   UNL     1      46.919   6.045  12.693  0.00  0.00    +0.000 A 
ATOM     10  C   UNL     1      46.642   6.513  11.413  0.00  0.00    +0.000 A 
ATOM     11  C   UNL     1      45.713   5.822  10.632  0.00  0.00    +0.000 A 
ATOM     12  C   UNL     1      45.085   4.682  11.142  0.00  0.00    +0.000 A 
ATOM     13  C   UNL     1      45.435   4.289  12.423  0.00  0.00    +0.000 A 
ATOM     14  N   UNL     1      46.329   4.941  13.206  0.00  0.00    +0.000 NA
BRANCH  12  15
ATOM     15  C   UNL     1      44.091   3.966  10.310  0.00  0.00    +0.000 C 
ATOM     16  N   UNL     1      43.920   4.340   9.006  0.00  0.00    +0.000 N 
ATOM     17  O   UNL     1      43.430   3.043  10.772  0.00  0.00    +0.000 OA
ATOM     18  H   UNL     1      44.419   5.071   8.524  0.00  0.00    +0.000 HD
ATOM     19  H   UNL     1      43.240   3.812   8.472  0.00  0.00    +0.000 HD
ENDBRANCH  12  15
ENDBRANCH   8   9
ENDBRANCH   5   7
BRANCH   1  20
ATOM     20  O   UNL     1      52.260   7.573  16.393  0.00  0.00    +0.000 OA
BRANCH  20  22
ATOM     21  C   UNL     1      51.381   8.045  18.628  0.00  0.00    +0.000 C 
ATOM     22  C   UNL     1      51.714   6.970  17.596  0.00  0.00    +0.000 C 
ATOM     23  C   UNL     1      50.689   5.802  17.428  0.00  0.00    +0.000 C 
ATOM     24  C   UNL     1      51.868   4.815  17.471  0.00  0.00    +0.000 C 
ATOM     25  C   UNL     1      52.670   5.899  18.217  0.00  0.00    +0.000 C 
BRANCH  24  26
ATOM     26  O   UNL     1      51.642   3.579  18.171  0.00  0.00    +0.000 OA
ATOM     27  H   UNL     1      52.423   3.442  18.733  0.00  0.00    +0.000 HD
ENDBRANCH  24  26
ENDBRANCH  20  22
ENDBRANCH   1  20
TORSDOF 6
ENDMDL
