MODEL 1
REMARK VINA RESULT:    -8.294      0.000      0.000
REMARK INTER + INTRA:         -12.733
REMARK INTER:                 -11.688
REMARK INTRA:                  -1.044
REMARK UNBOUND:                -1.044
REMARK  Name = 
REMARK  10 active torsions:
REMARK  status: ('A' for Active; 'I' for Inactive)
REMARK    1  A    between atoms: C_1  and  O_2
REMARK    2  A    between atoms: O_2  and  C_3
REMARK    3  A    between atoms: C_6  and  C_7
REMARK    4  A    between atoms: C_11  and  C_12
REMARK    5  A    between atoms: C_12  and  C_13
REMARK    6  A    between atoms: C_12  and  C_14
REMARK    7  A    between atoms: C_12  and  C_15
REMARK    8  A    between atoms: C_15  and  N_16
REMARK    9  A    between atoms: N_16  and  C_17
REMARK   10  A    between atoms: C_20  and  C_21
REMARK                            x       y       z     vdW  Elec       q    Type
REMARK                         _______ _______ _______ _____ _____    ______ ____
ROOT
ATOM      1  C   UNL     1      43.884   4.735  11.985  0.00  0.00    +0.000 C 
ATOM      2  C   UNL     1      43.861   3.274  12.500  0.00  0.00    +0.000 C 
ATOM      3  C   UNL     1      42.733   5.508  12.675  0.00  0.00    +0.000 C 
ENDROOT
BRANCH   1   8
ATOM      4  C   UNL     1      47.136   5.674  13.890  0.00  0.00    +0.000 A 
ATOM      5  C   UNL     1      47.707   6.454  12.886  0.00  0.00    +0.000 A 
ATOM      6  N   UNL     1      47.130   6.732  11.693  0.00  0.00    +0.000 NA
ATOM      7  C   UNL     1      45.922   6.180  11.460  0.00  0.00    +0.000 A 
ATOM      8  C   UNL     1      45.235   5.362  12.359  0.00  0.00    +0.000 A 
ATOM      9  C   UNL     1      45.863   5.160  13.599  0.00  0.00    +0.000 A 
BRANCH   4  13
ATOM     10  C   UNL     1      49.078   4.854  17.679  0.00  0.00    +0.000 A 
ATOM     11  C   UNL     1      49.385   6.006  16.947  0.00  0.00    +0.000 A 
ATOM     12  C   UNL     1      48.770   6.268  15.716  0.00  0.00    +0.000 A 
ATOM     13  C   UNL     1      47.828   5.383  15.166  0.00  0.00    +0.000 A 
ATOM     14  C   UNL     1      47.542   4.225  15.906  0.00  0.00    +0.000 A 
ATOM     15  C   UNL     1      48.137   3.965  17.152  0.00  0.00    +0.000 A 
ATOM     16 CL   UNL     1      47.547   2.562  17.973  0.00  0.00    +0.000 Cl
BRANCH  10  18
ATOM     17  C   UNL     1      51.131   4.850  18.888  0.00  0.00    +0.000 C 
ATOM     18  O   UNL     1      49.710   4.805  18.892  0.00  0.00    +0.000 OA
ENDBRANCH  10  18
ENDBRANCH   4  13
ENDBRANCH   1   8
BRANCH   1  19
ATOM     19  C   UNL     1      43.587   4.671  10.449  0.00  0.00    +0.000 C 
BRANCH  19  20
ATOM     20  N   UNL     1      43.745   3.331   9.886  0.00  0.00    +0.000 N 
ATOM     21  H   UNL     1      43.270   2.565  10.352  0.00  0.00    +0.000 HD
BRANCH  20  22
ATOM     22  C   UNL     1      44.710   3.006   8.950  0.00  0.00    +0.000 A 
ATOM     23  C   UNL     1      45.314   1.750   8.867  0.00  0.00    +0.000 A 
ATOM     24  C   UNL     1      46.314   1.501   7.927  0.00  0.00    +0.000 A 
ATOM     25  C   UNL     1      46.708   2.537   7.094  0.00  0.00    +0.000 A 
ATOM     26  N   UNL     1      46.181   3.788   7.148  0.00  0.00    +0.000 NA
ATOM     27  C   UNL     1      45.209   3.980   8.074  0.00  0.00    +0.000 A 
BRANCH  25  28
ATOM     28  C   UNL     1      47.763   2.293   6.061  0.00  0.00    +0.000 C 
ATOM     29  N   UNL     1      47.742   3.144   4.988  0.00  0.00    +0.000 N 
ATOM     30  O   UNL     1      48.584   1.391   6.158  0.00  0.00    +0.000 OA
ATOM     31  H   UNL     1      47.032   3.865   4.937  0.00  0.00    +0.000 HD
ATOM     32  H   UNL     1      48.406   3.018   4.238  0.00  0.00    +0.000 HD
ENDBRANCH  25  28
ENDBRANCH  20  22
ENDBRANCH  19  20
ENDBRANCH   1  19
TORSDOF 7
ENDMDL
MODEL 2
REMARK VINA RESULT:    -7.512      3.529      4.668
REMARK INTER + INTRA:         -11.630
REMARK INTER:                 -10.905
REMARK INTRA:                  -0.726
REMARK UNBOUND:                -1.044
REMARK  Name = 
REMARK  10 active torsions:
REMARK  status: ('A' for Active; 'I' for Inactive)
REMARK    1  A    between atoms: C_1  and  O_2
REMARK    2  A    between atoms: O_2  and  C_3
REMARK    3  A    between atoms: C_6  and  C_7
REMARK    4  A    between atoms: C_11  and  C_12
REMARK    5  A    between atoms: C_12  and  C_13
REMARK    6  A    between atoms: C_12  and  C_14
REMARK    7  A    between atoms: C_12  and  C_15
REMARK    8  A    between atoms: C_15  and  N_16
REMARK    9  A    between atoms: N_16  and  C_17
REMARK   10  A    between atoms: C_20  and  C_21
REMARK                            x       y       z     vdW  Elec       q    Type
REMARK                         _______ _______ _______ _____ _____    ______ ____
ROOT
ATOM      1  C   UNL     1      44.266   4.869  12.190  0.00  0.00    +0.000 C 
ATOM      2  C   UNL     1      43.195   5.039  13.296  0.00  0.00    +0.000 C 
ATOM      3  C   UNL     1      43.930   5.849  11.038  0.00  0.00    +0.000 C 
ENDROOT
BRANCH   1   8
ATOM      4  C   UNL     1      47.655   6.615  12.935  0.00  0.00    +0.000 A 
ATOM      5  C   UNL     1      48.044   5.796  13.993  0.00  0.00    +0.000 A 
ATOM      6  N   UNL     1      47.346   4.729  14.449  0.00  0.00    +0.000 NA
ATOM      7  C   UNL     1      46.170   4.468  13.842  0.00  0.00    +0.000 A 
ATOM      8  C   UNL     1      45.640   5.210  12.785  0.00  0.00    +0.000 A 
ATOM      9  C   UNL     1      46.440   6.268  12.323  0.00  0.00    +0.000 A 
BRANCH   4  13
ATOM     10  C   UNL     1      49.947  10.027  11.556  0.00  0.00    +0.000 A 
ATOM     11  C   UNL     1      50.570   8.803  11.827  0.00  0.00    +0.000 A 
ATOM     12  C   UNL     1      49.835   7.703  12.286  0.00  0.00    +0.000 A 
ATOM     13  C   UNL     1      48.448   7.785  12.498  0.00  0.00    +0.000 A 
ATOM     14  C   UNL     1      47.842   9.024  12.235  0.00  0.00    +0.000 A 
ATOM     15  C   UNL     1      48.567  10.127  11.752  0.00  0.00    +0.000 A 
ATOM     16 CL   UNL     1      47.618  11.515  11.352  0.00  0.00    +0.000 Cl
BRANCH  10  18
ATOM     17  C   UNL     1      50.867  11.074   9.623  0.00  0.00    +0.000 C 
ATOM     18  O   UNL     1      50.803  10.961  11.039  0.00  0.00    +0.000 OA
ENDBRANCH  10  18
ENDBRANCH   4  13
ENDBRANCH   1   8
BRANCH   1  19
ATOM     19  C   UNL     1      44.124   3.405  11.652  0.00  0.00    +0.000 C 
BRANCH  19  20
ATOM     20  N   UNL     1      43.746   3.342  10.242  0.00  0.00    +0.000 N 
ATOM     21  H   UNL     1      42.759   3.258  10.021  0.00  0.00    +0.000 HD
BRANCH  20  22
ATOM     22  C   UNL     1      44.648   3.105   9.221  0.00  0.00    +0.000 A 
ATOM     23  C   UNL     1      45.316   1.892   9.045  0.00  0.00    +0.000 A 
ATOM     24  C   UNL     1      46.248   1.733   8.020  0.00  0.00    +0.000 A 
ATOM     25  C   UNL     1      46.511   2.816   7.196  0.00  0.00    +0.000 A 
ATOM     26  N   UNL     1      45.918   4.031   7.336  0.00  0.00    +0.000 NA
ATOM     27  C   UNL     1      45.016   4.134   8.343  0.00  0.00    +0.000 A 
BRANCH  25  28
ATOM     28  C   UNL     1      47.490   2.669   6.072  0.00  0.00    +0.000 C 
ATOM     29  N   UNL     1      48.778   2.400   6.447  0.00  0.00    +0.000 N 
ATOM     30  O   UNL     1      47.167   2.791   4.898  0.00  0.00    +0.000 OA
ATOM     31  H   UNL     1      49.007   2.327   7.432  0.00  0.00    +0.000 HD
ATOM     32  H   UNL     1      49.497   2.317   5.743  0.00  0.00    +0.000 HD
ENDBRANCH  25  28
ENDBRANCH  20  22
ENDBRANCH  19  20
ENDBRANCH   1  19
TORSDOF 7
ENDMDL
MODEL 3
REMARK VINA RESULT:    -7.441      3.530      8.381
REMARK INTER + INTRA:         -11.530
REMARK INTER:                 -10.331
REMARK INTRA:                  -1.199
REMARK UNBOUND:                -1.044
REMARK  Name = 
REMARK  10 active torsions:
REMARK  status: ('A' for Active; 'I' for Inactive)
REMARK    1  A    between atoms: C_1  and  O_2
REMARK    2  A    between atoms: O_2  and  C_3
REMARK    3  A    between atoms: C_6  and  C_7
REMARK    4  A    between atoms: C_11  and  C_12
REMARK    5  A    between atoms: C_12  and  C_13
REMARK    6  A    between atoms: C_12  and  C_14
REMARK    7  A    between atoms: C_12  and  C_15
REMARK    8  A    between atoms: C_15  and  N_16
REMARK    9  A    between atoms: N_16  and  C_17
REMARK   10  A    between atoms: C_20  and  C_21
REMARK                            x       y       z     vdW  Elec       q    Type
REMARK                         _______ _______ _______ _____ _____    ______ ____
ROOT
ATOM      1  C   UNL     1      49.227   8.839  12.207  0.00  0.00    +0.000 C 
ATOM      2  C   UNL     1      50.046   7.769  11.442  0.00  0.00    +0.000 C 
ATOM      3  C   UNL     1      49.440  10.202  11.505  0.00  0.00    +0.000 C 
ENDROOT
BRANCH   1   8
ATOM      4  C   UNL     1      45.921   6.924  11.507  0.00  0.00    +0.000 A 
ATOM      5  C   UNL     1      45.072   7.781  12.205  0.00  0.00    +0.000 A 
ATOM      6  N   UNL     1      45.457   8.918  12.831  0.00  0.00    +0.000 NA
ATOM      7  C   UNL     1      46.772   9.217  12.794  0.00  0.00    +0.000 A 
ATOM      8  C   UNL     1      47.744   8.446  12.153  0.00  0.00    +0.000 A 
ATOM      9  C   UNL     1      47.270   7.311  11.475  0.00  0.00    +0.000 A 
BRANCH   4  13
ATOM     10  C   UNL     1      44.603   3.222   9.675  0.00  0.00    +0.000 A 
ATOM     11  C   UNL     1      45.393   4.134   8.968  0.00  0.00    +0.000 A 
ATOM     12  C   UNL     1      45.809   5.338   9.551  0.00  0.00    +0.000 A 
ATOM     13  C   UNL     1      45.445   5.679  10.864  0.00  0.00    +0.000 A 
ATOM     14  C   UNL     1      44.641   4.759  11.555  0.00  0.00    +0.000 A 
ATOM     15  C   UNL     1      44.237   3.539  10.986  0.00  0.00    +0.000 A 
ATOM     16 CL   UNL     1      43.373   2.481  12.047  0.00  0.00    +0.000 Cl
BRANCH  10  18
ATOM     17  C   UNL     1      45.490   1.342   8.511  0.00  0.00    +0.000 C 
ATOM     18  O   UNL     1      44.361   2.069   8.980  0.00  0.00    +0.000 OA
ENDBRANCH  10  18
ENDBRANCH   4  13
ENDBRANCH   1   8
BRANCH   1  19
ATOM     19  C   UNL     1      49.837   8.921  13.647  0.00  0.00    +0.000 C 
BRANCH  19  20
ATOM     20  N   UNL     1      50.336   7.638  14.137  0.00  0.00    +0.000 N 
ATOM     21  H   UNL     1      51.110   7.211  13.638  0.00  0.00    +0.000 HD
BRANCH  20  22
ATOM     22  C   UNL     1      49.651   6.849  15.043  0.00  0.00    +0.000 A 
ATOM     23  C   UNL     1      50.086   6.617  16.350  0.00  0.00    +0.000 A 
ATOM     24  C   UNL     1      49.371   5.774  17.200  0.00  0.00    +0.000 A 
ATOM     25  C   UNL     1      48.232   5.155  16.707  0.00  0.00    +0.000 A 
ATOM     26  N   UNL     1      47.776   5.316  15.437  0.00  0.00    +0.000 NA
ATOM     27  C   UNL     1      48.503   6.149  14.651  0.00  0.00    +0.000 A 
BRANCH  25  28
ATOM     28  C   UNL     1      47.431   4.262  17.603  0.00  0.00    +0.000 C 
ATOM     29  N   UNL     1      47.703   4.374  18.940  0.00  0.00    +0.000 N 
ATOM     30  O   UNL     1      46.596   3.477  17.174  0.00  0.00    +0.000 OA
ATOM     31  H   UNL     1      48.417   5.022  19.252  0.00  0.00    +0.000 HD
ATOM     32  H   UNL     1      47.221   3.781  19.599  0.00  0.00    +0.000 HD
ENDBRANCH  25  28
ENDBRANCH  20  22
ENDBRANCH  19  20
ENDBRANCH   1  19
TORSDOF 7
ENDMDL
MODEL 4
REMARK VINA RESULT:    -6.875      4.373      9.106
REMARK INTER + INTRA:         -10.733
REMARK INTER:                 -10.195
REMARK INTRA:                  -0.538
REMARK UNBOUND:                -1.044
REMARK  Name = 
REMARK  10 active torsions:
REMARK  status: ('A' for Active; 'I' for Inactive)
REMARK    1  A    between atoms: C_1  and  O_2
REMARK    2  A    between atoms: O_2  and  C_3
REMARK    3  A    between atoms: C_6  and  C_7
REMARK    4  A    between atoms: C_11  and  C_12
REMARK    5  A    between atoms: C_12  and  C_13
REMARK    6  A    between atoms: C_12  and  C_14
REMARK    7  A    between atoms: C_12  and  C_15
REMARK    8  A    between atoms: C_15  and  N_16
REMARK    9  A    between atoms: N_16  and  C_17
REMARK   10  A    between atoms: C_20  and  C_21
REMARK                            x       y       z     vdW  Elec       q    Type
REMARK                         _______ _______ _______ _____ _____    ______ ____
ROOT
ATOM      1  C   UNL     1      48.049   4.717  17.639  0.00  0.00    +0.000 C 
ATOM      2  C   UNL     1      47.071   5.515  18.536  0.00  0.00    +0.000 C 
ATOM      3  C   UNL     1      47.503   3.276  17.491  0.00  0.00    +0.000 C 
ENDROOT
BRANCH   1   8
ATOM      4  C   UNL     1      47.312   5.724  13.961  0.00  0.00    +0.000 A 
ATOM      5  C   UNL     1      48.247   6.753  13.871  0.00  0.00    +0.000 A 
ATOM      6  N   UNL     1      49.104   7.114  14.855  0.00  0.00    +0.000 NA
ATOM      7  C   UNL     1      49.014   6.436  16.017  0.00  0.00    +0.000 A 
ATOM      8  C   UNL     1      48.115   5.398  16.264  0.00  0.00    +0.000 A 
ATOM      9  C   UNL     1      47.294   5.035  15.184  0.00  0.00    +0.000 A 
BRANCH   4  13
ATOM     10  C   UNL     1      44.645   4.669  10.709  0.00  0.00    +0.000 A 
ATOM     11  C   UNL     1      45.586   5.695  10.565  0.00  0.00    +0.000 A 
ATOM     12  C   UNL     1      46.440   6.048  11.618  0.00  0.00    +0.000 A 
ATOM     13  C   UNL     1      46.381   5.392  12.859  0.00  0.00    +0.000 A 
ATOM     14  C   UNL     1      45.422   4.376  12.991  0.00  0.00    +0.000 A 
ATOM     15  C   UNL     1      44.577   3.999  11.933  0.00  0.00    +0.000 A 
ATOM     16 CL   UNL     1      43.567   2.632  12.248  0.00  0.00    +0.000 Cl
BRANCH  10  18
ATOM     17  C   UNL     1      44.702   3.911   8.450  0.00  0.00    +0.000 C 
ATOM     18  O   UNL     1      43.957   4.407   9.556  0.00  0.00    +0.000 OA
ENDBRANCH  10  18
ENDBRANCH   4  13
ENDBRANCH   1   8
BRANCH   1  19
ATOM     19  C   UNL     1      49.411   4.654  18.411  0.00  0.00    +0.000 C 
BRANCH  19  20
ATOM     20  N   UNL     1      50.551   4.355  17.546  0.00  0.00    +0.000 N 
ATOM     21  H   UNL     1      50.615   4.850  16.662  0.00  0.00    +0.000 HD
BRANCH  20  22
ATOM     22  C   UNL     1      51.374   3.258  17.722  0.00  0.00    +0.000 A 
ATOM     23  C   UNL     1      52.691   3.345  18.180  0.00  0.00    +0.000 A 
ATOM     24  C   UNL     1      53.483   2.204  18.292  0.00  0.00    +0.000 A 
ATOM     25  C   UNL     1      52.939   0.984  17.918  0.00  0.00    +0.000 A 
ATOM     26  N   UNL     1      51.676   0.840  17.437  0.00  0.00    +0.000 NA
ATOM     27  C   UNL     1      50.944   1.978  17.350  0.00  0.00    +0.000 A 
BRANCH  25  28
ATOM     28  C   UNL     1      53.757  -0.262  18.050  0.00  0.00    +0.000 C 
ATOM     29  N   UNL     1      53.223  -1.234  18.850  0.00  0.00    +0.000 N 
ATOM     30  O   UNL     1      54.836  -0.403  17.490  0.00  0.00    +0.000 OA
ATOM     31  H   UNL     1      52.336  -1.069  19.312  0.00  0.00    +0.000 HD
ATOM     32  H   UNL     1      53.735  -2.089  19.008  0.00  0.00    +0.000 HD
ENDBRANCH  25  28
ENDBRANCH  20  22
ENDBRANCH  19  20
ENDBRANCH   1  19
TORSDOF 7
ENDMDL
MODEL 5
REMARK VINA RESULT:    -6.864      4.304      8.378
REMARK INTER + INTRA:         -10.717
REMARK INTER:                  -9.326
REMARK INTRA:                  -1.391
REMARK UNBOUND:                -1.044
REMARK  Name = 
REMARK  10 active torsions:
REMARK  status: ('A' for Active; 'I' for Inactive)
REMARK    1  A    between atoms: C_1  and  O_2
REMARK    2  A    between atoms: O_2  and  C_3
REMARK    3  A    between atoms: C_6  and  C_7
REMARK    4  A    between atoms: C_11  and  C_12
REMARK    5  A    between atoms: C_12  and  C_13
REMARK    6  A    between atoms: C_12  and  C_14
REMARK    7  A    between atoms: C_12  and  C_15
REMARK    8  A    between atoms: C_15  and  N_16
REMARK    9  A    between atoms: N_16  and  C_17
REMARK   10  A    between atoms: C_20  and  C_21
REMARK                            x       y       z     vdW  Elec       q    Type
REMARK                         _______ _______ _______ _____ _____    ______ ____
ROOT
ATOM      1  C   UNL     1      50.149   8.743  12.585  0.00  0.00    +0.000 C 
ATOM      2  C   UNL     1      50.790   8.005  11.383  0.00  0.00    +0.000 C 
ATOM      3  C   UNL     1      50.743  10.172  12.647  0.00  0.00    +0.000 C 
ENDROOT
BRANCH   1   8
ATOM      4  C   UNL     1      46.443   7.762  11.960  0.00  0.00    +0.000 A 
ATOM      5  C   UNL     1      45.902   9.042  12.070  0.00  0.00    +0.000 A 
ATOM      6  N   UNL     1      46.617  10.173  12.281  0.00  0.00    +0.000 NA
ATOM      7  C   UNL     1      47.951  10.031  12.423  0.00  0.00    +0.000 A 
ATOM      8  C   UNL     1      48.632   8.814  12.359  0.00  0.00    +0.000 A 
ATOM      9  C   UNL     1      47.839   7.688  12.081  0.00  0.00    +0.000 A 
BRANCH   4  13
ATOM     10  C   UNL     1      43.924   4.293  11.309  0.00  0.00    +0.000 A 
ATOM     11  C   UNL     1      43.929   4.959  12.540  0.00  0.00    +0.000 A 
ATOM     12  C   UNL     1      44.752   6.071  12.759  0.00  0.00    +0.000 A 
ATOM     13  C   UNL     1      45.607   6.558  11.756  0.00  0.00    +0.000 A 
ATOM     14  C   UNL     1      45.600   5.870  10.532  0.00  0.00    +0.000 A 
ATOM     15  C   UNL     1      44.761   4.767  10.296  0.00  0.00    +0.000 A 
ATOM     16 CL   UNL     1      44.794   4.149   8.681  0.00  0.00    +0.000 Cl
BRANCH  10  18
ATOM     17  C   UNL     1      43.328   2.064  11.902  0.00  0.00    +0.000 C 
ATOM     18  O   UNL     1      43.002   3.284  11.249  0.00  0.00    +0.000 OA
ENDBRANCH  10  18
ENDBRANCH   4  13
ENDBRANCH   1   8
BRANCH   1  19
ATOM     19  C   UNL     1      50.590   7.966  13.871  0.00  0.00    +0.000 C 
BRANCH  19  20
ATOM     20  N   UNL     1      49.596   8.013  14.942  0.00  0.00    +0.000 N 
ATOM     21  H   UNL     1      49.425   8.908  15.389  0.00  0.00    +0.000 HD
BRANCH  20  22
ATOM     22  C   UNL     1      49.094   6.885  15.566  0.00  0.00    +0.000 A 
ATOM     23  C   UNL     1      48.140   6.044  14.990  0.00  0.00    +0.000 A 
ATOM     24  C   UNL     1      47.641   4.947  15.691  0.00  0.00    +0.000 A 
ATOM     25  C   UNL     1      48.099   4.726  16.981  0.00  0.00    +0.000 A 
ATOM     26  N   UNL     1      49.002   5.526  17.607  0.00  0.00    +0.000 NA
ATOM     27  C   UNL     1      49.461   6.576  16.882  0.00  0.00    +0.000 A 
BRANCH  25  28
ATOM     28  C   UNL     1      47.599   3.543  17.750  0.00  0.00    +0.000 C 
ATOM     29  N   UNL     1      48.333   3.209  18.856  0.00  0.00    +0.000 N 
ATOM     30  O   UNL     1      46.609   2.908  17.412  0.00  0.00    +0.000 OA
ATOM     31  H   UNL     1      49.158   3.748  19.090  0.00  0.00    +0.000 HD
ATOM     32  H   UNL     1      48.070   2.403  19.405  0.00  0.00    +0.000 HD
ENDBRANCH  25  28
ENDBRANCH  20  22
ENDBRANCH  19  20
ENDBRANCH   1  19
TORSDOF 7
ENDMDL
MODEL 6
REMARK VINA RESULT:    -6.375      3.096      4.983
REMARK INTER + INTRA:         -10.028
REMARK INTER:                  -8.850
REMARK INTRA:                  -1.178
REMARK UNBOUND:                -1.044
REMARK  Name = 
REMARK  10 active torsions:
REMARK  status: ('A' for Active; 'I' for Inactive)
REMARK    1  A    between atoms: C_1  and  O_2
REMARK    2  A    between atoms: O_2  and  C_3
REMARK    3  A    between atoms: C_6  and  C_7
REMARK    4  A    between atoms: C_11  and  C_12
REMARK    5  A    between atoms: C_12  and  C_13
REMARK    6  A    between atoms: C_12  and  C_14
REMARK    7  A    between atoms: C_12  and  C_15
REMARK    8  A    between atoms: C_15  and  N_16
REMARK    9  A    between atoms: N_16  and  C_17
REMARK   10  A    between atoms: C_20  and  C_21
REMARK                            x       y       z     vdW  Elec       q    Type
REMARK                         _______ _______ _______ _____ _____    ______ ____
ROOT
ATOM      1  C   UNL     1      48.149   8.825  12.483  0.00  0.00    +0.000 C 
ATOM      2  C   UNL     1      48.640  10.144  11.837  0.00  0.00    +0.000 C 
ATOM      3  C   UNL     1      48.760   7.643  11.691  0.00  0.00    +0.000 C 
ENDROOT
BRANCH   1   8
ATOM      4  C   UNL     1      49.620   7.624  15.872  0.00  0.00    +0.000 A 
ATOM      5  C   UNL     1      49.573   8.852  16.528  0.00  0.00    +0.000 A 
ATOM      6  N   UNL     1      49.081   9.998  16.000  0.00  0.00    +0.000 NA
ATOM      7  C   UNL     1      48.632   9.937  14.729  0.00  0.00    +0.000 A 
ATOM      8  C   UNL     1      48.634   8.786  13.940  0.00  0.00    +0.000 A 
ATOM      9  C   UNL     1      49.104   7.621  14.566  0.00  0.00    +0.000 A 
BRANCH   4  13
ATOM     10  C   UNL     1      51.280   4.104  17.783  0.00  0.00    +0.000 A 
ATOM     11  C   UNL     1      52.110   5.127  17.314  0.00  0.00    +0.000 A 
ATOM     12  C   UNL     1      51.579   6.260  16.683  0.00  0.00    +0.000 A 
ATOM     13  C   UNL     1      50.195   6.409  16.492  0.00  0.00    +0.000 A 
ATOM     14  C   UNL     1      49.378   5.367  16.956  0.00  0.00    +0.000 A 
ATOM     15  C   UNL     1      49.900   4.237  17.610  0.00  0.00    +0.000 A 
ATOM     16 CL   UNL     1      48.722   3.137  18.234  0.00  0.00    +0.000 Cl
BRANCH  10  18
ATOM     17  C   UNL     1      53.371   3.058  18.247  0.00  0.00    +0.000 C 
ATOM     18  O   UNL     1      51.964   3.119  18.443  0.00  0.00    +0.000 OA
ENDBRANCH  10  18
ENDBRANCH   4  13
ENDBRANCH   1   8
BRANCH   1  19
ATOM     19  C   UNL     1      46.594   8.791  12.303  0.00  0.00    +0.000 C 
BRANCH  19  20
ATOM     20  N   UNL     1      45.932   7.830  13.183  0.00  0.00    +0.000 N 
ATOM     21  H   UNL     1      46.004   7.979  14.185  0.00  0.00    +0.000 HD
BRANCH  20  22
ATOM     22  C   UNL     1      45.466   6.600  12.755  0.00  0.00    +0.000 A 
ATOM     23  C   UNL     1      45.923   5.382  13.261  0.00  0.00    +0.000 A 
ATOM     24  C   UNL     1      45.444   4.174  12.754  0.00  0.00    +0.000 A 
ATOM     25  C   UNL     1      44.520   4.215  11.721  0.00  0.00    +0.000 A 
ATOM     26  N   UNL     1      44.060   5.367  11.166  0.00  0.00    +0.000 NA
ATOM     27  C   UNL     1      44.552   6.514  11.696  0.00  0.00    +0.000 A 
BRANCH  25  28
ATOM     28  C   UNL     1      43.970   2.935  11.172  0.00  0.00    +0.000 C 
ATOM     29  N   UNL     1      44.643   2.420  10.098  0.00  0.00    +0.000 N 
ATOM     30  O   UNL     1      42.981   2.389  11.641  0.00  0.00    +0.000 OA
ATOM     31  H   UNL     1      45.446   2.915   9.727  0.00  0.00    +0.000 HD
ATOM     32  H   UNL     1      44.310   1.575   9.657  0.00  0.00    +0.000 HD
ENDBRANCH  25  28
ENDBRANCH  20  22
ENDBRANCH  19  20
ENDBRANCH   1  19
TORSDOF 7
ENDMDL
MODEL 7
REMARK VINA RESULT:    -6.337      3.926      6.519
REMARK INTER + INTRA:          -9.974
REMARK INTER:                  -8.910
REMARK INTRA:                  -1.064
REMARK UNBOUND:                -1.044
REMARK  Name = 
REMARK  10 active torsions:
REMARK  status: ('A' for Active; 'I' for Inactive)
REMARK    1  A    between atoms: C_1  and  O_2
REMARK    2  A    between atoms: O_2  and  C_3
REMARK    3  A    between atoms: C_6  and  C_7
REMARK    4  A    between atoms: C_11  and  C_12
REMARK    5  A    between atoms: C_12  and  C_13
REMARK    6  A    between atoms: C_12  and  C_14
REMARK    7  A    between atoms: C_12  and  C_15
REMARK    8  A    between atoms: C_15  and  N_16
REMARK    9  A    between atoms: N_16  and  C_17
REMARK   10  A    between atoms: C_20  and  C_21
REMARK                            x       y       z     vdW  Elec       q    Type
REMARK                         _______ _______ _______ _____ _____    ______ ____
ROOT
ATOM      1  C   UNL     1      49.262   7.332  16.102  0.00  0.00    +0.000 C 
ATOM      2  C   UNL     1      48.909   8.430  17.137  0.00  0.00    +0.000 C 
ATOM      3  C   UNL     1      50.717   7.567  15.627  0.00  0.00    +0.000 C 
ENDROOT
BRANCH   1   8
ATOM      4  C   UNL     1      50.123   3.857  17.610  0.00  0.00    +0.000 A 
ATOM      5  C   UNL     1      48.860   3.573  18.126  0.00  0.00    +0.000 A 
ATOM      6  N   UNL     1      47.770   4.365  17.996  0.00  0.00    +0.000 NA
ATOM      7  C   UNL     1      47.942   5.532  17.340  0.00  0.00    +0.000 A 
ATOM      8  C   UNL     1      49.149   5.963  16.788  0.00  0.00    +0.000 A 
ATOM      9  C   UNL     1      50.225   5.068  16.908  0.00  0.00    +0.000 A 
BRANCH   4  13
ATOM     10  C   UNL     1      53.576   1.282  18.106  0.00  0.00    +0.000 A 
ATOM     11  C   UNL     1      52.409   0.812  17.494  0.00  0.00    +0.000 A 
ATOM     12  C   UNL     1      51.286   1.636  17.345  0.00  0.00    +0.000 A 
ATOM     13  C   UNL     1      51.285   2.963  17.808  0.00  0.00    +0.000 A 
ATOM     14  C   UNL     1      52.459   3.414  18.432  0.00  0.00    +0.000 A 
ATOM     15  C   UNL     1      53.598   2.601  18.566  0.00  0.00    +0.000 A 
ATOM     16 CL   UNL     1      54.988   3.385  19.232  0.00  0.00    +0.000 Cl
BRANCH  10  18
ATOM     17  C   UNL     1      54.640  -0.540  16.998  0.00  0.00    +0.000 C 
ATOM     18  O   UNL     1      54.595   0.369  18.091  0.00  0.00    +0.000 OA
ENDBRANCH  10  18
ENDBRANCH   4  13
ENDBRANCH   1   8
BRANCH   1  19
ATOM     19  C   UNL     1      48.302   7.542  14.883  0.00  0.00    +0.000 C 
BRANCH  19  20
ATOM     20  N   UNL     1      48.477   6.542  13.832  0.00  0.00    +0.000 N 
ATOM     21  H   UNL     1      49.369   6.516  13.349  0.00  0.00    +0.000 HD
BRANCH  20  22
ATOM     22  C   UNL     1      47.429   5.835  13.271  0.00  0.00    +0.000 A 
ATOM     23  C   UNL     1      46.768   6.228  12.105  0.00  0.00    +0.000 A 
ATOM     24  C   UNL     1      45.688   5.495  11.616  0.00  0.00    +0.000 A 
ATOM     25  C   UNL     1      45.274   4.379  12.328  0.00  0.00    +0.000 A 
ATOM     26  N   UNL     1      45.856   3.964  13.483  0.00  0.00    +0.000 NA
ATOM     27  C   UNL     1      46.904   4.707  13.916  0.00  0.00    +0.000 A 
BRANCH  25  28
ATOM     28  C   UNL     1      44.132   3.557  11.815  0.00  0.00    +0.000 C 
ATOM     29  N   UNL     1      43.828   2.447  12.555  0.00  0.00    +0.000 N 
ATOM     30  O   UNL     1      43.516   3.849  10.798  0.00  0.00    +0.000 OA
ATOM     31  H   UNL     1      44.376   2.231  13.379  0.00  0.00    +0.000 HD
ATOM     32  H   UNL     1      43.088   1.831  12.251  0.00  0.00    +0.000 HD
ENDBRANCH  25  28
ENDBRANCH  20  22
ENDBRANCH  19  20
ENDBRANCH   1  19
TORSDOF 7
ENDMDL
MODEL 8
REMARK VINA RESULT:    -6.322      5.026      7.177
REMARK INTER + INTRA:          -9.954
REMARK INTER:                  -9.193
REMARK INTRA:                  -0.762
REMARK UNBOUND:                -1.044
REMARK  Name = 
REMARK  10 active torsions:
REMARK  status: ('A' for Active; 'I' for Inactive)
REMARK    1  A    between atoms: C_1  and  O_2
REMARK    2  A    between atoms: O_2  and  C_3
REMARK    3  A    between atoms: C_6  and  C_7
REMARK    4  A    between atoms: C_11  and  C_12
REMARK    5  A    between atoms: C_12  and  C_13
REMARK    6  A    between atoms: C_12  and  C_14
REMARK    7  A    between atoms: C_12  and  C_15
REMARK    8  A    between atoms: C_15  and  N_16
REMARK    9  A    between atoms: N_16  and  C_17
REMARK   10  A    between atoms: C_20  and  C_21
REMARK                            x       y       z     vdW  Elec       q    Type
REMARK                         _______ _______ _______ _____ _____    ______ ____
ROOT
ATOM      1  C   UNL     1      50.963   9.113  11.413  0.00  0.00    +0.000 C 
ATOM      2  C   UNL     1      51.365  10.196  10.381  0.00  0.00    +0.000 C 
ATOM      3  C   UNL     1      51.753   9.375  12.719  0.00  0.00    +0.000 C 
ENDROOT
BRANCH   1   8
ATOM      4  C   UNL     1      47.246   8.244  12.131  0.00  0.00    +0.000 A 
ATOM      5  C   UNL     1      46.781   9.552  12.256  0.00  0.00    +0.000 A 
ATOM      6  N   UNL     1      47.535  10.664  12.091  0.00  0.00    +0.000 NA
ATOM      7  C   UNL     1      48.842  10.477  11.814  0.00  0.00    +0.000 A 
ATOM      8  C   UNL     1      49.455   9.230  11.679  0.00  0.00    +0.000 A 
ATOM      9  C   UNL     1      48.606   8.119  11.806  0.00  0.00    +0.000 A 
BRANCH   4  13
ATOM     10  C   UNL     1      44.652   4.844  12.845  0.00  0.00    +0.000 A 
ATOM     11  C   UNL     1      45.940   4.894  13.389  0.00  0.00    +0.000 A 
ATOM     12  C   UNL     1      46.786   5.984  13.150  0.00  0.00    +0.000 A 
ATOM     13  C   UNL     1      46.378   7.065  12.350  0.00  0.00    +0.000 A 
ATOM     14  C   UNL     1      45.089   6.992  11.800  0.00  0.00    +0.000 A 
ATOM     15  C   UNL     1      44.224   5.913  12.053  0.00  0.00    +0.000 A 
ATOM     16 CL   UNL     1      42.630   6.078  11.405  0.00  0.00    +0.000 Cl
BRANCH  10  18
ATOM     17  C   UNL     1      43.636   2.767  12.266  0.00  0.00    +0.000 C 
ATOM     18  O   UNL     1      43.940   3.747  13.250  0.00  0.00    +0.000 OA
ENDBRANCH  10  18
ENDBRANCH   4  13
ENDBRANCH   1   8
BRANCH   1  19
ATOM     19  C   UNL     1      51.425   7.739  10.821  0.00  0.00    +0.000 C 
BRANCH  19  20
ATOM     20  N   UNL     1      52.397   7.875   9.739  0.00  0.00    +0.000 N 
ATOM     21  H   UNL     1      52.626   8.813   9.425  0.00  0.00    +0.000 HD
BRANCH  20  22
ATOM     22  C   UNL     1      52.800   6.821   8.939  0.00  0.00    +0.000 A 
ATOM     23  C   UNL     1      53.842   5.954   9.271  0.00  0.00    +0.000 A 
ATOM     24  C   UNL     1      54.229   4.937   8.398  0.00  0.00    +0.000 A 
ATOM     25  C   UNL     1      53.568   4.824   7.185  0.00  0.00    +0.000 A 
ATOM     26  N   UNL     1      52.567   5.656   6.792  0.00  0.00    +0.000 NA
ATOM     27  C   UNL     1      52.225   6.625   7.676  0.00  0.00    +0.000 A 
BRANCH  25  28
ATOM     28  C   UNL     1      53.945   3.728   6.237  0.00  0.00    +0.000 C 
ATOM     29  N   UNL     1      53.527   2.474   6.593  0.00  0.00    +0.000 N 
ATOM     30  O   UNL     1      54.590   3.932   5.218  0.00  0.00    +0.000 OA
ATOM     31  H   UNL     1      53.012   2.345   7.457  0.00  0.00    +0.000 HD
ATOM     32  H   UNL     1      53.772   1.683   6.016  0.00  0.00    +0.000 HD
ENDBRANCH  25  28
ENDBRANCH  20  22
ENDBRANCH  19  20
ENDBRANCH   1  19
TORSDOF 7
ENDMDL
MODEL 9
REMARK VINA RESULT:    -6.229      4.559      8.642
REMARK INTER + INTRA:          -9.823
REMARK INTER:                  -8.475
REMARK INTRA:                  -1.348
REMARK UNBOUND:                -1.044
REMARK  Name = 
REMARK  10 active torsions:
REMARK  status: ('A' for Active; 'I' for Inactive)
REMARK    1  A    between atoms: C_1  and  O_2
REMARK    2  A    between atoms: O_2  and  C_3
REMARK    3  A    between atoms: C_6  and  C_7
REMARK    4  A    between atoms: C_11  and  C_12
REMARK    5  A    between atoms: C_12  and  C_13
REMARK    6  A    between atoms: C_12  and  C_14
REMARK    7  A    between atoms: C_12  and  C_15
REMARK    8  A    between atoms: C_15  and  N_16
REMARK    9  A    between atoms: N_16  and  C_17
REMARK   10  A    between atoms: C_20  and  C_21
REMARK                            x       y       z     vdW  Elec       q    Type
REMARK                         _______ _______ _______ _____ _____    ______ ____
ROOT
ATOM      1  C   UNL     1      49.126   9.192  17.376  0.00  0.00    +0.000 C 
ATOM      2  C   UNL     1      50.513   9.634  17.905  0.00  0.00    +0.000 C 
ATOM      3  C   UNL     1      48.212  10.441  17.315  0.00  0.00    +0.000 C 
ENDROOT
BRANCH   1   8
ATOM      4  C   UNL     1      48.444   7.475  13.959  0.00  0.00    +0.000 A 
ATOM      5  C   UNL     1      49.707   7.676  13.407  0.00  0.00    +0.000 A 
ATOM      6  N   UNL     1      50.748   8.265  14.041  0.00  0.00    +0.000 NA
ATOM      7  C   UNL     1      50.522   8.714  15.293  0.00  0.00    +0.000 A 
ATOM      8  C   UNL     1      49.306   8.604  15.969  0.00  0.00    +0.000 A 
ATOM      9  C   UNL     1      48.285   7.932  15.277  0.00  0.00    +0.000 A 
BRANCH   4  13
ATOM     10  C   UNL     1      45.265   5.594  11.688  0.00  0.00    +0.000 A 
ATOM     11  C   UNL     1      45.566   6.950  11.519  0.00  0.00    +0.000 A 
ATOM     12  C   UNL     1      46.582   7.565  12.260  0.00  0.00    +0.000 A 
ATOM     13  C   UNL     1      47.334   6.847  13.206  0.00  0.00    +0.000 A 
ATOM     14  C   UNL     1      47.010   5.492  13.374  0.00  0.00    +0.000 A 
ATOM     15  C   UNL     1      46.007   4.861  12.618  0.00  0.00    +0.000 A 
ATOM     16 CL   UNL     1      45.857   3.157  12.868  0.00  0.00    +0.000 Cl
BRANCH  10  18
ATOM     17  C   UNL     1      43.066   4.726  11.387  0.00  0.00    +0.000 C 
ATOM     18  O   UNL     1      44.302   5.146  10.824  0.00  0.00    +0.000 OA
ENDBRANCH  10  18
ENDBRANCH   4  13
ENDBRANCH   1   8
BRANCH   1  19
ATOM     19  C   UNL     1      48.539   8.200  18.436  0.00  0.00    +0.000 C 
BRANCH  19  20
ATOM     20  N   UNL     1      49.542   7.297  18.997  0.00  0.00    +0.000 N 
ATOM     21  H   UNL     1      50.254   7.697  19.600  0.00  0.00    +0.000 HD
BRANCH  20  22
ATOM     22  C   UNL     1      49.748   6.008  18.540  0.00  0.00    +0.000 A 
ATOM     23  C   UNL     1      50.992   5.375  18.546  0.00  0.00    +0.000 A 
ATOM     24  C   UNL     1      51.141   4.089  18.028  0.00  0.00    +0.000 A 
ATOM     25  C   UNL     1      50.028   3.464  17.487  0.00  0.00    +0.000 A 
ATOM     26  N   UNL     1      48.798   4.039  17.424  0.00  0.00    +0.000 NA
ATOM     27  C   UNL     1      48.703   5.288  17.945  0.00  0.00    +0.000 A 
BRANCH  25  28
ATOM     28  C   UNL     1      50.151   2.075  16.945  0.00  0.00    +0.000 C 
ATOM     29  N   UNL     1      51.039   1.265  17.599  0.00  0.00    +0.000 N 
ATOM     30  O   UNL     1      49.511   1.687  15.976  0.00  0.00    +0.000 OA
ATOM     31  H   UNL     1      51.564   1.632  18.385  0.00  0.00    +0.000 HD
ATOM     32  H   UNL     1      51.195   0.324  17.269  0.00  0.00    +0.000 HD
ENDBRANCH  25  28
ENDBRANCH  20  22
ENDBRANCH  19  20
ENDBRANCH   1  19
TORSDOF 7
ENDMDL
