MODEL 1
REMARK VINA RESULT:    -7.798      0.000      0.000
REMARK INTER + INTRA:         -10.449
REMARK INTER:                  -9.849
REMARK INTRA:                  -0.600
REMARK UNBOUND:                -0.600
REMARK  Name = 
REMARK  5 active torsions:
REMARK  status: ('A' for Active; 'I' for Inactive)
REMARK    1  A    between atoms: N_1  and  C_2
REMARK    2  A    between atoms: C_2  and  C_3
REMARK    3  A    between atoms: C_5  and  C_6
REMARK    4  A    between atoms: C_6  and  N_7
REMARK    5  A    between atoms: C_12  and  C_13
REMARK                            x       y       z     vdW  Elec       q    Type
REMARK                         _______ _______ _______ _____ _____    ______ ____
ROOT
ATOM      1  N   UNL     1      44.059   4.677  10.851  0.00  0.00    +0.000 N 
ATOM      2  C   UNL     1      43.426   3.640  11.490  0.00  0.00    +0.000 A 
ATOM      3  C   UNL     1      43.806   2.468  10.880  0.00  0.00    +0.000 A 
ATOM      4  C   UNL     1      44.693   2.802   9.823  0.00  0.00    +0.000 A 
ATOM      5  C   UNL     1      45.390   2.035   8.870  0.00  0.00    +0.000 A 
ATOM      6  C   UNL     1      46.206   2.669   7.916  0.00  0.00    +0.000 A 
ATOM      7  C   UNL     1      46.328   4.065   7.937  0.00  0.00    +0.000 A 
ATOM      8  C   UNL     1      45.653   4.847   8.882  0.00  0.00    +0.000 A 
ATOM      9  C   UNL     1      44.835   4.192   9.815  0.00  0.00    +0.000 A 
ENDROOT
BRANCH   6  10
ATOM     10  C   UNL     1      46.932   1.860   6.870  0.00  0.00    +0.000 C 
ATOM     11  F   UNL     1      46.704   0.519   6.956  0.00  0.00    +0.000 F 
ATOM     12  F   UNL     1      46.579   2.214   5.603  0.00  0.00    +0.000 F 
ATOM     13  F   UNL     1      48.284   2.012   6.935  0.00  0.00    +0.000 F 
ENDBRANCH   6  10
BRANCH   1  14
ATOM     14  C   UNL     1      43.980   6.062  11.286  0.00  0.00    +0.000 C 
BRANCH  14  17
ATOM     15  C   UNL     1      47.120   6.685  13.240  0.00  0.00    +0.000 C 
ATOM     16  C   UNL     1      46.251   5.736  12.427  0.00  0.00    +0.000 C 
ATOM     17  C   UNL     1      44.894   6.407  12.458  0.00  0.00    +0.000 C 
ATOM     18  C   UNL     1      45.275   7.879  12.451  0.00  0.00    +0.000 C 
ATOM     19  O   UNL     1      46.538   8.000  13.115  0.00  0.00    +0.000 OA
BRANCH  15  20
ATOM     20  C   UNL     1      48.596   6.712  12.813  0.00  0.00    +0.000 C 
BRANCH  20  21
ATOM     21  N   UNL     1      49.514   6.754  13.959  0.00  0.00    +0.000 NA
ATOM     22  H   UNL     1      49.489   7.685  14.374  0.00  0.00    +0.000 HD
ATOM     23  H   UNL     1      50.462   6.629  13.597  0.00  0.00    +0.000 HD
ENDBRANCH  20  21
ENDBRANCH  15  20
ENDBRANCH  14  17
ENDBRANCH   1  14
TORSDOF 5
ENDMDL
MODEL 2
REMARK VINA RESULT:    -7.364      1.845      2.119
REMARK INTER + INTRA:          -9.901
REMARK INTER:                  -9.460
REMARK INTRA:                  -0.441
REMARK UNBOUND:                -0.600
REMARK  Name = 
REMARK  5 active torsions:
REMARK  status: ('A' for Active; 'I' for Inactive)
REMARK    1  A    between atoms: N_1  and  C_2
REMARK    2  A    between atoms: C_2  and  C_3
REMARK    3  A    between atoms: C_5  and  C_6
REMARK    4  A    between atoms: C_6  and  N_7
REMARK    5  A    between atoms: C_12  and  C_13
REMARK                            x       y       z     vdW  Elec       q    Type
REMARK                         _______ _______ _______ _____ _____    ______ ____
ROOT
ATOM      1  N   UNL     1      43.750   4.310  10.843  0.00  0.00    +0.000 N 
ATOM      2  C   UNL     1      43.272   3.195  11.486  0.00  0.00    +0.000 A 
ATOM      3  C   UNL     1      43.807   2.087  10.872  0.00  0.00    +0.000 A 
ATOM      4  C   UNL     1      44.630   2.541   9.807  0.00  0.00    +0.000 A 
ATOM      5  C   UNL     1      45.418   1.878   8.847  0.00  0.00    +0.000 A 
ATOM      6  C   UNL     1      46.129   2.620   7.887  0.00  0.00    +0.000 A 
ATOM      7  C   UNL     1      46.056   4.019   7.908  0.00  0.00    +0.000 A 
ATOM      8  C   UNL     1      45.287   4.699   8.860  0.00  0.00    +0.000 A 
ATOM      9  C   UNL     1      44.576   3.937   9.800  0.00  0.00    +0.000 A 
ENDROOT
BRANCH   6  10
ATOM     10  C   UNL     1      46.951   1.919   6.833  0.00  0.00    +0.000 C 
ATOM     11  F   UNL     1      46.802   0.564   6.831  0.00  0.00    +0.000 F 
ATOM     12  F   UNL     1      46.637   2.328   5.573  0.00  0.00    +0.000 F 
ATOM     13  F   UNL     1      48.287   2.145   6.976  0.00  0.00    +0.000 F 
ENDBRANCH   6  10
BRANCH   1  14
ATOM     14  C   UNL     1      43.482   5.671  11.279  0.00  0.00    +0.000 C 
BRANCH  14  17
ATOM     15  C   UNL     1      45.629   8.682  11.904  0.00  0.00    +0.000 C 
ATOM     16  C   UNL     1      44.595   7.968  11.047  0.00  0.00    +0.000 C 
ATOM     17  C   UNL     1      44.732   6.524  11.480  0.00  0.00    +0.000 C 
ATOM     18  C   UNL     1      45.071   6.674  12.955  0.00  0.00    +0.000 C 
ATOM     19  O   UNL     1      45.787   7.904  13.110  0.00  0.00    +0.000 OA
BRANCH  15  20
ATOM     20  C   UNL     1      45.269  10.135  12.250  0.00  0.00    +0.000 C 
BRANCH  20  21
ATOM     21  N   UNL     1      43.822  10.385  12.202  0.00  0.00    +0.000 NA
ATOM     22  H   UNL     1      43.330   9.575  12.575  0.00  0.00    +0.000 HD
ATOM     23  H   UNL     1      43.556  10.453  11.217  0.00  0.00    +0.000 HD
ENDBRANCH  20  21
ENDBRANCH  15  20
ENDBRANCH  14  17
ENDBRANCH   1  14
TORSDOF 5
ENDMDL
MODEL 3
REMARK VINA RESULT:    -7.226      4.349      6.461
REMARK INTER + INTRA:          -9.727
REMARK INTER:                  -9.634
REMARK INTRA:                  -0.092
REMARK UNBOUND:                -0.600
REMARK  Name = 
REMARK  5 active torsions:
REMARK  status: ('A' for Active; 'I' for Inactive)
REMARK    1  A    between atoms: N_1  and  C_2
REMARK    2  A    between atoms: C_2  and  C_3
REMARK    3  A    between atoms: C_5  and  C_6
REMARK    4  A    between atoms: C_6  and  N_7
REMARK    5  A    between atoms: C_12  and  C_13
REMARK                            x       y       z     vdW  Elec       q    Type
REMARK                         _______ _______ _______ _____ _____    ______ ____
ROOT
ATOM      1  N   UNL     1      44.529   4.192  10.586  0.00  0.00    +0.000 N 
ATOM      2  C   UNL     1      43.927   3.297  11.434  0.00  0.00    +0.000 A 
ATOM      3  C   UNL     1      44.440   3.493  12.694  0.00  0.00    +0.000 A 
ATOM      4  C   UNL     1      45.401   4.535  12.610  0.00  0.00    +0.000 A 
ATOM      5  C   UNL     1      46.235   5.157  13.559  0.00  0.00    +0.000 A 
ATOM      6  C   UNL     1      47.113   6.181  13.159  0.00  0.00    +0.000 A 
ATOM      7  C   UNL     1      47.134   6.582  11.817  0.00  0.00    +0.000 A 
ATOM      8  C   UNL     1      46.306   5.985  10.859  0.00  0.00    +0.000 A 
ATOM      9  C   UNL     1      45.448   4.957  11.279  0.00  0.00    +0.000 A 
ENDROOT
BRANCH   6  10
ATOM     10  C   UNL     1      48.034   6.832  14.161  0.00  0.00    +0.000 C 
ATOM     11  F   UNL     1      48.110   6.170  15.349  0.00  0.00    +0.000 F 
ATOM     12  F   UNL     1      49.315   6.923  13.705  0.00  0.00    +0.000 F 
ATOM     13  F   UNL     1      47.658   8.105  14.468  0.00  0.00    +0.000 F 
ENDBRANCH   6  10
BRANCH   1  14
ATOM     14  C   UNL     1      44.163   4.352   9.187  0.00  0.00    +0.000 C 
BRANCH  14  17
ATOM     15  C   UNL     1      46.524   2.319   7.098  0.00  0.00    +0.000 C 
ATOM     16  C   UNL     1      45.825   3.643   7.369  0.00  0.00    +0.000 C 
ATOM     17  C   UNL     1      44.677   3.244   8.272  0.00  0.00    +0.000 C 
ATOM     18  C   UNL     1      45.293   2.105   9.070  0.00  0.00    +0.000 C 
ATOM     19  O   UNL     1      46.260   1.464   8.231  0.00  0.00    +0.000 OA
BRANCH  15  20
ATOM     20  C   UNL     1      48.037   2.441   6.862  0.00  0.00    +0.000 C 
BRANCH  20  21
ATOM     21  N   UNL     1      48.457   1.865   5.578  0.00  0.00    +0.000 NA
ATOM     22  H   UNL     1      48.943   0.986   5.747  0.00  0.00    +0.000 HD
ATOM     23  H   UNL     1      49.146   2.499   5.169  0.00  0.00    +0.000 HD
ENDBRANCH  20  21
ENDBRANCH  15  20
ENDBRANCH  14  17
ENDBRANCH   1  14
TORSDOF 5
ENDMDL
MODEL 4
REMARK VINA RESULT:    -6.268      4.479      6.634
REMARK INTER + INTRA:          -8.517
REMARK INTER:                  -7.868
REMARK INTRA:                  -0.650
REMARK UNBOUND:                -0.600
REMARK  Name = 
REMARK  5 active torsions:
REMARK  status: ('A' for Active; 'I' for Inactive)
REMARK    1  A    between atoms: N_1  and  C_2
REMARK    2  A    between atoms: C_2  and  C_3
REMARK    3  A    between atoms: C_5  and  C_6
REMARK    4  A    between atoms: C_6  and  N_7
REMARK    5  A    between atoms: C_12  and  C_13
REMARK                            x       y       z     vdW  Elec       q    Type
REMARK                         _______ _______ _______ _____ _____    ______ ____
ROOT
ATOM      1  N   UNL     1      44.264   4.682  11.090  0.00  0.00    +0.000 N 
ATOM      2  C   UNL     1      42.972   5.143  11.048  0.00  0.00    +0.000 A 
ATOM      3  C   UNL     1      42.990   6.488  11.334  0.00  0.00    +0.000 A 
ATOM      4  C   UNL     1      44.340   6.859  11.573  0.00  0.00    +0.000 A 
ATOM      5  C   UNL     1      44.961   8.078  11.905  0.00  0.00    +0.000 A 
ATOM      6  C   UNL     1      46.353   8.129  12.094  0.00  0.00    +0.000 A 
ATOM      7  C   UNL     1      47.112   6.962  11.933  0.00  0.00    +0.000 A 
ATOM      8  C   UNL     1      46.517   5.741  11.594  0.00  0.00    +0.000 A 
ATOM      9  C   UNL     1      45.124   5.712  11.422  0.00  0.00    +0.000 A 
ENDROOT
BRANCH   6  10
ATOM     10  C   UNL     1      47.026   9.423  12.482  0.00  0.00    +0.000 C 
ATOM     11  F   UNL     1      48.134   9.709  11.742  0.00  0.00    +0.000 F 
ATOM     12  F   UNL     1      46.201  10.498  12.344  0.00  0.00    +0.000 F 
ATOM     13  F   UNL     1      47.435   9.432  13.781  0.00  0.00    +0.000 F 
ENDBRANCH   6  10
BRANCH   1  14
ATOM     14  C   UNL     1      44.650   3.325  10.738  0.00  0.00    +0.000 C 
BRANCH  14  17
ATOM     15  C   UNL     1      46.047   3.274   7.258  0.00  0.00    +0.000 C 
ATOM     16  C   UNL     1      45.593   4.068   8.474  0.00  0.00    +0.000 C 
ATOM     17  C   UNL     1      44.749   3.069   9.237  0.00  0.00    +0.000 C 
ATOM     18  C   UNL     1      45.472   1.764   8.942  0.00  0.00    +0.000 C 
ATOM     19  O   UNL     1      46.068   1.884   7.646  0.00  0.00    +0.000 OA
BRANCH  15  20
ATOM     20  C   UNL     1      47.418   3.694   6.705  0.00  0.00    +0.000 C 
BRANCH  20  21
ATOM     21  N   UNL     1      48.302   2.548   6.455  0.00  0.00    +0.000 NA
ATOM     22  H   UNL     1      48.062   1.793   7.096  0.00  0.00    +0.000 HD
ATOM     23  H   UNL     1      49.253   2.836   6.697  0.00  0.00    +0.000 HD
ENDBRANCH  20  21
ENDBRANCH  15  20
ENDBRANCH  14  17
ENDBRANCH   1  14
TORSDOF 5
ENDMDL
MODEL 5
REMARK VINA RESULT:    -6.070      4.389      6.644
REMARK INTER + INTRA:          -8.266
REMARK INTER:                  -7.724
REMARK INTRA:                  -0.542
REMARK UNBOUND:                -0.600
REMARK  Name = 
REMARK  5 active torsions:
REMARK  status: ('A' for Active; 'I' for Inactive)
REMARK    1  A    between atoms: N_1  and  C_2
REMARK    2  A    between atoms: C_2  and  C_3
REMARK    3  A    between atoms: C_5  and  C_6
REMARK    4  A    between atoms: C_6  and  N_7
REMARK    5  A    between atoms: C_12  and  C_13
REMARK                            x       y       z     vdW  Elec       q    Type
REMARK                         _______ _______ _______ _____ _____    ______ ____
ROOT
ATOM      1  N   UNL     1      45.040   5.405  13.036  0.00  0.00    +0.000 N 
ATOM      2  C   UNL     1      45.921   4.523  13.609  0.00  0.00    +0.000 A 
ATOM      3  C   UNL     1      47.137   5.153  13.732  0.00  0.00    +0.000 A 
ATOM      4  C   UNL     1      46.997   6.463  13.201  0.00  0.00    +0.000 A 
ATOM      5  C   UNL     1      47.886   7.546  13.058  0.00  0.00    +0.000 A 
ATOM      6  C   UNL     1      47.446   8.743  12.467  0.00  0.00    +0.000 A 
ATOM      7  C   UNL     1      46.115   8.850  12.040  0.00  0.00    +0.000 A 
ATOM      8  C   UNL     1      45.212   7.790  12.182  0.00  0.00    +0.000 A 
ATOM      9  C   UNL     1      45.677   6.601  12.763  0.00  0.00    +0.000 A 
ENDROOT
BRANCH   6  10
ATOM     10  C   UNL     1      48.398   9.899  12.279  0.00  0.00    +0.000 C 
ATOM     11  F   UNL     1      48.163  10.946  13.118  0.00  0.00    +0.000 F 
ATOM     12  F   UNL     1      49.695   9.541  12.487  0.00  0.00    +0.000 F 
ATOM     13  F   UNL     1      48.352  10.415  11.019  0.00  0.00    +0.000 F 
ENDBRANCH   6  10
BRANCH   1  14
ATOM     14  C   UNL     1      43.626   5.125  12.844  0.00  0.00    +0.000 C 
BRANCH  14  17
ATOM     15  C   UNL     1      44.106   3.559   9.470  0.00  0.00    +0.000 C 
ATOM     16  C   UNL     1      44.224   4.776  10.376  0.00  0.00    +0.000 C 
ATOM     17  C   UNL     1      43.295   4.437  11.523  0.00  0.00    +0.000 C 
ATOM     18  C   UNL     1      43.464   2.929  11.624  0.00  0.00    +0.000 C 
ATOM     19  O   UNL     1      43.757   2.439  10.311  0.00  0.00    +0.000 OA
BRANCH  15  20
ATOM     20  C   UNL     1      45.377   3.246   8.665  0.00  0.00    +0.000 C 
BRANCH  20  21
ATOM     21  N   UNL     1      45.916   4.428   7.979  0.00  0.00    +0.000 NA
ATOM     22  H   UNL     1      45.152   4.939   7.540  0.00  0.00    +0.000 HD
ATOM     23  H   UNL     1      46.512   4.096   7.219  0.00  0.00    +0.000 HD
ENDBRANCH  20  21
ENDBRANCH  15  20
ENDBRANCH  14  17
ENDBRANCH   1  14
TORSDOF 5
ENDMDL
MODEL 6
REMARK VINA RESULT:    -6.053      3.992      5.831
REMARK INTER + INTRA:          -8.245
REMARK INTER:                  -7.678
REMARK INTRA:                  -0.568
REMARK UNBOUND:                -0.600
REMARK  Name = 
REMARK  5 active torsions:
REMARK  status: ('A' for Active; 'I' for Inactive)
REMARK    1  A    between atoms: N_1  and  C_2
REMARK    2  A    between atoms: C_2  and  C_3
REMARK    3  A    between atoms: C_5  and  C_6
REMARK    4  A    between atoms: C_6  and  N_7
REMARK    5  A    between atoms: C_12  and  C_13
REMARK                            x       y       z     vdW  Elec       q    Type
REMARK                         _______ _______ _______ _____ _____    ______ ____
ROOT
ATOM      1  N   UNL     1      47.660   7.184  13.763  0.00  0.00    +0.000 N 
ATOM      2  C   UNL     1      47.299   8.506  13.696  0.00  0.00    +0.000 A 
ATOM      3  C   UNL     1      46.071   8.582  13.083  0.00  0.00    +0.000 A 
ATOM      4  C   UNL     1      45.673   7.260  12.751  0.00  0.00    +0.000 A 
ATOM      5  C   UNL     1      44.534   6.725  12.121  0.00  0.00    +0.000 A 
ATOM      6  C   UNL     1      44.429   5.338  11.917  0.00  0.00    +0.000 A 
ATOM      7  C   UNL     1      45.460   4.499  12.360  0.00  0.00    +0.000 A 
ATOM      8  C   UNL     1      46.598   5.008  12.998  0.00  0.00    +0.000 A 
ATOM      9  C   UNL     1      46.685   6.397  13.179  0.00  0.00    +0.000 A 
ENDROOT
BRANCH   6  10
ATOM     10  C   UNL     1      43.227   4.756  11.215  0.00  0.00    +0.000 C 
ATOM     11  F   UNL     1      42.986   3.452  11.528  0.00  0.00    +0.000 F 
ATOM     12  F   UNL     1      42.079   5.426  11.510  0.00  0.00    +0.000 F 
ATOM     13  F   UNL     1      43.343   4.796   9.858  0.00  0.00    +0.000 F 
ENDBRANCH   6  10
BRANCH   1  14
ATOM     14  C   UNL     1      48.854   6.705  14.442  0.00  0.00    +0.000 C 
BRANCH  14  17
ATOM     15  C   UNL     1      48.286   4.815  17.631  0.00  0.00    +0.000 C 
ATOM     16  C   UNL     1      47.795   5.232  16.253  0.00  0.00    +0.000 C 
ATOM     17  C   UNL     1      48.664   6.430  15.931  0.00  0.00    +0.000 C 
ATOM     18  C   UNL     1      49.977   6.049  16.597  0.00  0.00    +0.000 C 
ATOM     19  O   UNL     1      49.663   5.237  17.733  0.00  0.00    +0.000 OA
BRANCH  15  20
ATOM     20  C   UNL     1      48.166   3.309  17.914  0.00  0.00    +0.000 C 
BRANCH  20  21
ATOM     21  N   UNL     1      46.802   2.804  17.714  0.00  0.00    +0.000 NA
ATOM     22  H   UNL     1      46.135   3.537  17.951  0.00  0.00    +0.000 HD
ATOM     23  H   UNL     1      46.652   2.051  18.389  0.00  0.00    +0.000 HD
ENDBRANCH  20  21
ENDBRANCH  15  20
ENDBRANCH  14  17
ENDBRANCH   1  14
TORSDOF 5
ENDMDL
MODEL 7
REMARK VINA RESULT:    -5.928      4.360      6.730
REMARK INTER + INTRA:          -8.088
REMARK INTER:                  -7.446
REMARK INTRA:                  -0.642
REMARK UNBOUND:                -0.600
REMARK  Name = 
REMARK  5 active torsions:
REMARK  status: ('A' for Active; 'I' for Inactive)
REMARK    1  A    between atoms: N_1  and  C_2
REMARK    2  A    between atoms: C_2  and  C_3
REMARK    3  A    between atoms: C_5  and  C_6
REMARK    4  A    between atoms: C_6  and  N_7
REMARK    5  A    between atoms: C_12  and  C_13
REMARK                            x       y       z     vdW  Elec       q    Type
REMARK                         _______ _______ _______ _____ _____    ______ ____
ROOT
ATOM      1  N   UNL     1      44.802   6.008  11.794  0.00  0.00    +0.000 N 
ATOM      2  C   UNL     1      44.001   7.052  11.404  0.00  0.00    +0.000 A 
ATOM      3  C   UNL     1      44.733   8.211  11.506  0.00  0.00    +0.000 A 
ATOM      4  C   UNL     1      46.023   7.865  11.989  0.00  0.00    +0.000 A 
ATOM      5  C   UNL     1      47.176   8.616  12.287  0.00  0.00    +0.000 A 
ATOM      6  C   UNL     1      48.328   7.973  12.773  0.00  0.00    +0.000 A 
ATOM      7  C   UNL     1      48.319   6.582  12.941  0.00  0.00    +0.000 A 
ATOM      8  C   UNL     1      47.187   5.814  12.642  0.00  0.00    +0.000 A 
ATOM      9  C   UNL     1      46.045   6.479  12.170  0.00  0.00    +0.000 A 
ENDROOT
BRANCH   6  10
ATOM     10  C   UNL     1      49.559   8.772  13.126  0.00  0.00    +0.000 C 
ATOM     11  F   UNL     1      50.716   8.055  13.060  0.00  0.00    +0.000 F 
ATOM     12  F   UNL     1      49.738   9.841  12.301  0.00  0.00    +0.000 F 
ATOM     13  F   UNL     1      49.508   9.280  14.389  0.00  0.00    +0.000 F 
ENDBRANCH   6  10
BRANCH   1  14
ATOM     14  C   UNL     1      44.402   4.612  11.719  0.00  0.00    +0.000 C 
BRANCH  14  17
ATOM     15  C   UNL     1      44.883   3.462   8.182  0.00  0.00    +0.000 C 
ATOM     16  C   UNL     1      45.059   4.538   9.243  0.00  0.00    +0.000 C 
ATOM     17  C   UNL     1      44.067   4.128  10.311  0.00  0.00    +0.000 C 
ATOM     18  C   UNL     1      44.121   2.611  10.217  0.00  0.00    +0.000 C 
ATOM     19  O   UNL     1      44.423   2.274   8.859  0.00  0.00    +0.000 OA
BRANCH  15  20
ATOM     20  C   UNL     1      46.155   3.158   7.374  0.00  0.00    +0.000 C 
BRANCH  20  21
ATOM     21  N   UNL     1      46.975   4.353   7.141  0.00  0.00    +0.000 NA
ATOM     22  H   UNL     1      46.765   4.729   6.217  0.00  0.00    +0.000 HD
ATOM     23  H   UNL     1      47.952   4.054   7.111  0.00  0.00    +0.000 HD
ENDBRANCH  20  21
ENDBRANCH  15  20
ENDBRANCH  14  17
ENDBRANCH   1  14
TORSDOF 5
ENDMDL
MODEL 8
REMARK VINA RESULT:    -5.541      4.100      6.678
REMARK INTER + INTRA:          -7.599
REMARK INTER:                  -6.876
REMARK INTRA:                  -0.723
REMARK UNBOUND:                -0.600
REMARK  Name = 
REMARK  5 active torsions:
REMARK  status: ('A' for Active; 'I' for Inactive)
REMARK    1  A    between atoms: N_1  and  C_2
REMARK    2  A    between atoms: C_2  and  C_3
REMARK    3  A    between atoms: C_5  and  C_6
REMARK    4  A    between atoms: C_6  and  N_7
REMARK    5  A    between atoms: C_12  and  C_13
REMARK                            x       y       z     vdW  Elec       q    Type
REMARK                         _______ _______ _______ _____ _____    ______ ____
ROOT
ATOM      1  N   UNL     1      45.689   7.434  12.680  0.00  0.00    +0.000 N 
ATOM      2  C   UNL     1      45.063   8.637  12.471  0.00  0.00    +0.000 A 
ATOM      3  C   UNL     1      46.014   9.550  12.083  0.00  0.00    +0.000 A 
ATOM      4  C   UNL     1      47.269   8.885  12.070  0.00  0.00    +0.000 A 
ATOM      5  C   UNL     1      48.578   9.301  11.760  0.00  0.00    +0.000 A 
ATOM      6  C   UNL     1      49.646   8.390  11.853  0.00  0.00    +0.000 A 
ATOM      7  C   UNL     1      49.389   7.068  12.239  0.00  0.00    +0.000 A 
ATOM      8  C   UNL     1      48.094   6.630  12.541  0.00  0.00    +0.000 A 
ATOM      9  C   UNL     1      47.046   7.560  12.453  0.00  0.00    +0.000 A 
ENDROOT
BRANCH   6  10
ATOM     10  C   UNL     1      51.057   8.833  11.556  0.00  0.00    +0.000 C 
ATOM     11  F   UNL     1      51.855   7.838  11.075  0.00  0.00    +0.000 F 
ATOM     12  F   UNL     1      51.104   9.827  10.626  0.00  0.00    +0.000 F 
ATOM     13  F   UNL     1      51.695   9.322  12.656  0.00  0.00    +0.000 F 
ENDBRANCH   6  10
BRANCH   1  14
ATOM     14  C   UNL     1      44.985   6.202  13.001  0.00  0.00    +0.000 C 
BRANCH  14  17
ATOM     15  C   UNL     1      43.885   4.135  10.072  0.00  0.00    +0.000 C 
ATOM     16  C   UNL     1      44.864   5.130  10.676  0.00  0.00    +0.000 C 
ATOM     17  C   UNL     1      44.108   5.667  11.873  0.00  0.00    +0.000 C 
ATOM     18  C   UNL     1      43.318   4.445  12.316  0.00  0.00    +0.000 C 
ATOM     19  O   UNL     1      43.046   3.662  11.148  0.00  0.00    +0.000 OA
BRANCH  15  20
ATOM     20  C   UNL     1      44.551   2.950   9.355  0.00  0.00    +0.000 C 
BRANCH  20  21
ATOM     21  N   UNL     1      45.565   3.377   8.382  0.00  0.00    +0.000 NA
ATOM     22  H   UNL     1      46.486   3.337   8.818  0.00  0.00    +0.000 HD
ATOM     23  H   UNL     1      45.392   4.362   8.171  0.00  0.00    +0.000 HD
ENDBRANCH  20  21
ENDBRANCH  15  20
ENDBRANCH  14  17
ENDBRANCH   1  14
TORSDOF 5
ENDMDL
MODEL 9
REMARK VINA RESULT:    -5.466      3.157      4.786
REMARK INTER + INTRA:          -7.503
REMARK INTER:                  -6.786
REMARK INTRA:                  -0.718
REMARK UNBOUND:                -0.600
REMARK  Name = 
REMARK  5 active torsions:
REMARK  status: ('A' for Active; 'I' for Inactive)
REMARK    1  A    between atoms: N_1  and  C_2
REMARK    2  A    between atoms: C_2  and  C_3
REMARK    3  A    between atoms: C_5  and  C_6
REMARK    4  A    between atoms: C_6  and  N_7
REMARK    5  A    between atoms: C_12  and  C_13
REMARK                            x       y       z     vdW  Elec       q    Type
REMARK                         _______ _______ _______ _____ _____    ______ ____
ROOT
ATOM      1  N   UNL     1      47.533   6.280  13.966  0.00  0.00    +0.000 N 
ATOM      2  C   UNL     1      47.608   5.401  15.016  0.00  0.00    +0.000 A 
ATOM      3  C   UNL     1      46.868   4.288  14.693  0.00  0.00    +0.000 A 
ATOM      4  C   UNL     1      46.310   4.501  13.405  0.00  0.00    +0.000 A 
ATOM      5  C   UNL     1      45.480   3.726  12.572  0.00  0.00    +0.000 A 
ATOM      6  C   UNL     1      45.074   4.226  11.322  0.00  0.00    +0.000 A 
ATOM      7  C   UNL     1      45.517   5.491  10.911  0.00  0.00    +0.000 A 
ATOM      8  C   UNL     1      46.351   6.274  11.718  0.00  0.00    +0.000 A 
ATOM      9  C   UNL     1      46.733   5.759  12.967  0.00  0.00    +0.000 A 
ENDROOT
BRANCH   6  10
ATOM     10  C   UNL     1      44.159   3.418  10.436  0.00  0.00    +0.000 C 
ATOM     11  F   UNL     1      44.721   2.268   9.968  0.00  0.00    +0.000 F 
ATOM     12  F   UNL     1      43.018   3.038  11.076  0.00  0.00    +0.000 F 
ATOM     13  F   UNL     1      43.754   4.109   9.333  0.00  0.00    +0.000 F 
ENDBRANCH   6  10
BRANCH   1  14
ATOM     14  C   UNL     1      48.276   7.529  13.903  0.00  0.00    +0.000 C 
BRANCH  14  17
ATOM     15  C   UNL     1      51.088   8.453  11.599  0.00  0.00    +0.000 C 
ATOM     16  C   UNL     1      49.613   8.138  11.803  0.00  0.00    +0.000 C 
ATOM     17  C   UNL     1      49.597   7.437  13.145  0.00  0.00    +0.000 C 
ATOM     18  C   UNL     1      50.714   8.157  13.884  0.00  0.00    +0.000 C 
ATOM     19  O   UNL     1      51.679   8.571  12.910  0.00  0.00    +0.000 OA
BRANCH  15  20
ATOM     20  C   UNL     1      51.354   9.723  10.777  0.00  0.00    +0.000 C 
BRANCH  20  21
ATOM     21  N   UNL     1      50.233  10.672  10.823  0.00  0.00    +0.000 NA
ATOM     22  H   UNL     1      50.019  10.890  11.795  0.00  0.00    +0.000 HD
ATOM     23  H   UNL     1      49.411  10.193  10.449  0.00  0.00    +0.000 HD
ENDBRANCH  20  21
ENDBRANCH  15  20
ENDBRANCH  14  17
ENDBRANCH   1  14
TORSDOF 5
ENDMDL
