MODEL 1
REMARK VINA RESULT:    -8.257      0.000      0.000
REMARK INTER + INTRA:         -11.997
REMARK INTER:                 -11.153
REMARK INTRA:                  -0.845
REMARK UNBOUND:                -0.845
REMARK  Name = 
REMARK  9 active torsions:
REMARK  status: ('A' for Active; 'I' for Inactive)
REMARK    1  A    between atoms: C_1  and  C_2
REMARK    2  A    between atoms: C_2  and  C_3
REMARK    3  A    between atoms: C_2  and  C_4
REMARK    4  A    between atoms: C_2  and  O_5
REMARK    5  A    between atoms: O_5  and  C_6
REMARK    6  A    between atoms: C_6  and  C_7
REMARK    7  A    between atoms: C_10  and  C_11
REMARK    8  A    between atoms: C_11  and  N_12
REMARK    9  A    between atoms: C_17  and  C_18
REMARK                            x       y       z     vdW  Elec       q    Type
REMARK                         _______ _______ _______ _____ _____    ______ ____
ROOT
ATOM      1  N   UNL     1      44.256   4.548  10.431  0.00  0.00    +0.000 N 
ATOM      2  N   UNL     1      43.505   3.572  11.008  0.00  0.00    +0.000 NA
ATOM      3  C   UNL     1      43.911   2.466  10.379  0.00  0.00    +0.000 A 
ATOM      4  C   UNL     1      44.877   2.727   9.384  0.00  0.00    +0.000 A 
ATOM      5  C   UNL     1      45.695   1.987   8.524  0.00  0.00    +0.000 A 
ATOM      6  C   UNL     1      46.532   2.693   7.647  0.00  0.00    +0.000 A 
ATOM      7  C   UNL     1      46.448   4.084   7.636  0.00  0.00    +0.000 A 
ATOM      8  N   UNL     1      45.703   4.846   8.481  0.00  0.00    +0.000 NA
ATOM      9  C   UNL     1      44.976   4.111   9.348  0.00  0.00    +0.000 A 
ENDROOT
BRANCH   6  10
ATOM     10  C   UNL     1      47.499   1.911   6.837  0.00  0.00    +0.000 C 
ATOM     11  N   UNL     1      48.612   2.523   6.336  0.00  0.00    +0.000 N 
ATOM     12  O   UNL     1      47.324   0.714   6.636  0.00  0.00    +0.000 OA
ATOM     13  H   UNL     1      48.866   3.492   6.446  0.00  0.00    +0.000 HD
ATOM     14  H   UNL     1      49.263   1.922   5.845  0.00  0.00    +0.000 HD
ENDBRANCH   6  10
BRANCH   1  15
ATOM     15  C   UNL     1      44.340   5.855  11.054  0.00  0.00    +0.000 C 
BRANCH  15  19
ATOM     16  C   UNL     1      47.601   6.363  13.785  0.00  0.00    +0.000 A 
ATOM     17  C   UNL     1      46.892   5.163  13.817  0.00  0.00    +0.000 A 
ATOM     18  C   UNL     1      45.837   4.961  12.915  0.00  0.00    +0.000 A 
ATOM     19  C   UNL     1      45.527   5.959  11.989  0.00  0.00    +0.000 A 
ATOM     20  N   UNL     1      46.225   7.117  11.927  0.00  0.00    +0.000 NA
ATOM     21  C   UNL     1      47.239   7.286  12.814  0.00  0.00    +0.000 A 
BRANCH  16  22
ATOM     22  C   UNL     1      48.602   6.753  14.840  0.00  0.00    +0.000 C 
BRANCH  22  23
ATOM     23  O   UNL     1      49.104   5.648  15.589  0.00  0.00    +0.000 OA
BRANCH  23  25
ATOM     24  C   UNL     1      47.689   4.841  17.438  0.00  0.00    +0.000 C 
ATOM     25  C   UNL     1      48.877   5.719  17.016  0.00  0.00    +0.000 C 
ATOM     26  C   UNL     1      48.676   7.167  17.494  0.00  0.00    +0.000 C 
ATOM     27  C   UNL     1      50.141   5.169  17.695  0.00  0.00    +0.000 C 
ENDBRANCH  23  25
ENDBRANCH  22  23
ENDBRANCH  16  22
ENDBRANCH  15  19
ENDBRANCH   1  15
TORSDOF 6
ENDMDL
MODEL 2
REMARK VINA RESULT:    -7.802      1.382      1.906
REMARK INTER + INTRA:         -11.383
REMARK INTER:                 -10.582
REMARK INTRA:                  -0.800
REMARK UNBOUND:                -0.845
REMARK  Name = 
REMARK  9 active torsions:
REMARK  status: ('A' for Active; 'I' for Inactive)
REMARK    1  A    between atoms: C_1  and  C_2
REMARK    2  A    between atoms: C_2  and  C_3
REMARK    3  A    between atoms: C_2  and  C_4
REMARK    4  A    between atoms: C_2  and  O_5
REMARK    5  A    between atoms: O_5  and  C_6
REMARK    6  A    between atoms: C_6  and  C_7
REMARK    7  A    between atoms: C_10  and  C_11
REMARK    8  A    between atoms: C_11  and  N_12
REMARK    9  A    between atoms: C_17  and  C_18
REMARK                            x       y       z     vdW  Elec       q    Type
REMARK                         _______ _______ _______ _____ _____    ______ ____
ROOT
ATOM      1  N   UNL     1      44.184   4.371  10.419  0.00  0.00    +0.000 N 
ATOM      2  N   UNL     1      43.454   3.373  10.986  0.00  0.00    +0.000 NA
ATOM      3  C   UNL     1      43.888   2.282  10.348  0.00  0.00    +0.000 A 
ATOM      4  C   UNL     1      44.850   2.574   9.358  0.00  0.00    +0.000 A 
ATOM      5  C   UNL     1      45.687   1.860   8.495  0.00  0.00    +0.000 A 
ATOM      6  C   UNL     1      46.510   2.592   7.627  0.00  0.00    +0.000 A 
ATOM      7  C   UNL     1      46.395   3.981   7.627  0.00  0.00    +0.000 A 
ATOM      8  N   UNL     1      45.630   4.719   8.476  0.00  0.00    +0.000 NA
ATOM      9  C   UNL     1      44.917   3.959   9.334  0.00  0.00    +0.000 A 
ENDROOT
BRANCH   6  10
ATOM     10  C   UNL     1      47.497   1.840   6.814  0.00  0.00    +0.000 C 
ATOM     11  N   UNL     1      48.620   2.470   6.358  0.00  0.00    +0.000 N 
ATOM     12  O   UNL     1      47.330   0.649   6.569  0.00  0.00    +0.000 OA
ATOM     13  H   UNL     1      48.868   3.435   6.505  0.00  0.00    +0.000 HD
ATOM     14  H   UNL     1      49.283   1.887   5.861  0.00  0.00    +0.000 HD
ENDBRANCH   6  10
BRANCH   1  15
ATOM     15  C   UNL     1      44.237   5.675  11.053  0.00  0.00    +0.000 C 
BRANCH  15  19
ATOM     16  C   UNL     1      47.573   6.299  13.665  0.00  0.00    +0.000 A 
ATOM     17  C   UNL     1      46.722   5.227  13.925  0.00  0.00    +0.000 A 
ATOM     18  C   UNL     1      45.637   4.985  13.070  0.00  0.00    +0.000 A 
ATOM     19  C   UNL     1      45.440   5.811  11.961  0.00  0.00    +0.000 A 
ATOM     20  N   UNL     1      46.275   6.839  11.680  0.00  0.00    +0.000 NA
ATOM     21  C   UNL     1      47.315   7.052  12.527  0.00  0.00    +0.000 A 
BRANCH  16  22
ATOM     22  C   UNL     1      48.631   6.762  14.633  0.00  0.00    +0.000 C 
BRANCH  22  23
ATOM     23  O   UNL     1      49.875   7.080  14.013  0.00  0.00    +0.000 OA
BRANCH  23  25
ATOM     24  C   UNL     1      49.518   9.138  15.320  0.00  0.00    +0.000 C 
ATOM     25  C   UNL     1      50.485   8.314  14.456  0.00  0.00    +0.000 C 
ATOM     26  C   UNL     1      51.006   9.152  13.277  0.00  0.00    +0.000 C 
ATOM     27  C   UNL     1      51.689   7.926  15.328  0.00  0.00    +0.000 C 
ENDBRANCH  23  25
ENDBRANCH  22  23
ENDBRANCH  16  22
ENDBRANCH  15  19
ENDBRANCH   1  15
TORSDOF 6
ENDMDL
MODEL 3
REMARK VINA RESULT:    -6.688      3.771      6.094
REMARK INTER + INTRA:          -9.878
REMARK INTER:                  -9.056
REMARK INTRA:                  -0.821
REMARK UNBOUND:                -0.845
REMARK  Name = 
REMARK  9 active torsions:
REMARK  status: ('A' for Active; 'I' for Inactive)
REMARK    1  A    between atoms: C_1  and  C_2
REMARK    2  A    between atoms: C_2  and  C_3
REMARK    3  A    between atoms: C_2  and  C_4
REMARK    4  A    between atoms: C_2  and  O_5
REMARK    5  A    between atoms: O_5  and  C_6
REMARK    6  A    between atoms: C_6  and  C_7
REMARK    7  A    between atoms: C_10  and  C_11
REMARK    8  A    between atoms: C_11  and  N_12
REMARK    9  A    between atoms: C_17  and  C_18
REMARK                            x       y       z     vdW  Elec       q    Type
REMARK                         _______ _______ _______ _____ _____    ______ ____
ROOT
ATOM      1  N   UNL     1      47.439   5.043  14.923  0.00  0.00    +0.000 N 
ATOM      2  N   UNL     1      48.309   6.070  14.726  0.00  0.00    +0.000 NA
ATOM      3  C   UNL     1      47.992   6.503  13.502  0.00  0.00    +0.000 A 
ATOM      4  C   UNL     1      46.966   5.743  12.902  0.00  0.00    +0.000 A 
ATOM      5  C   UNL     1      46.195   5.795  11.737  0.00  0.00    +0.000 A 
ATOM      6  C   UNL     1      45.255   4.774  11.528  0.00  0.00    +0.000 A 
ATOM      7  C   UNL     1      45.195   3.736  12.455  0.00  0.00    +0.000 A 
ATOM      8  N   UNL     1      45.892   3.666  13.622  0.00  0.00    +0.000 NA
ATOM      9  C   UNL     1      46.725   4.713  13.799  0.00  0.00    +0.000 A 
ENDROOT
BRANCH   6  10
ATOM     10  C   UNL     1      44.341   4.906  10.366  0.00  0.00    +0.000 C 
ATOM     11  N   UNL     1      44.833   4.765   9.099  0.00  0.00    +0.000 N 
ATOM     12  O   UNL     1      43.143   5.111  10.531  0.00  0.00    +0.000 OA
ATOM     13  H   UNL     1      45.790   4.585   8.843  0.00  0.00    +0.000 HD
ATOM     14  H   UNL     1      44.148   4.805   8.353  0.00  0.00    +0.000 HD
ENDBRANCH   6  10
BRANCH   1  15
ATOM     15  C   UNL     1      47.246   4.509  16.258  0.00  0.00    +0.000 C 
BRANCH  15  19
ATOM     16  C   UNL     1      50.681   2.179  17.316  0.00  0.00    +0.000 A 
ATOM     17  C   UNL     1      50.518   3.426  17.916  0.00  0.00    +0.000 A 
ATOM     18  C   UNL     1      49.388   4.198  17.607  0.00  0.00    +0.000 A 
ATOM     19  C   UNL     1      48.437   3.694  16.717  0.00  0.00    +0.000 A 
ATOM     20  N   UNL     1      48.568   2.472  16.148  0.00  0.00    +0.000 NA
ATOM     21  C   UNL     1      49.673   1.749  16.464  0.00  0.00    +0.000 A 
BRANCH  16  22
ATOM     22  C   UNL     1      51.951   1.377  17.422  0.00  0.00    +0.000 C 
BRANCH  22  23
ATOM     23  O   UNL     1      52.769   1.743  18.532  0.00  0.00    +0.000 OA
BRANCH  23  25
ATOM     24  C   UNL     1      55.069   1.724  19.413  0.00  0.00    +0.000 C 
ATOM     25  C   UNL     1      54.154   2.012  18.213  0.00  0.00    +0.000 C 
ATOM     26  C   UNL     1      54.357   3.450  17.709  0.00  0.00    +0.000 C 
ATOM     27  C   UNL     1      54.542   1.053  17.077  0.00  0.00    +0.000 C 
ENDBRANCH  23  25
ENDBRANCH  22  23
ENDBRANCH  16  22
ENDBRANCH  15  19
ENDBRANCH   1  15
TORSDOF 6
ENDMDL
MODEL 4
REMARK VINA RESULT:    -5.893      2.858      7.482
REMARK INTER + INTRA:          -8.805
REMARK INTER:                  -8.250
REMARK INTRA:                  -0.555
REMARK UNBOUND:                -0.845
REMARK  Name = 
REMARK  9 active torsions:
REMARK  status: ('A' for Active; 'I' for Inactive)
REMARK    1  A    between atoms: C_1  and  C_2
REMARK    2  A    between atoms: C_2  and  C_3
REMARK    3  A    between atoms: C_2  and  C_4
REMARK    4  A    between atoms: C_2  and  O_5
REMARK    5  A    between atoms: O_5  and  C_6
REMARK    6  A    between atoms: C_6  and  C_7
REMARK    7  A    between atoms: C_10  and  C_11
REMARK    8  A    between atoms: C_11  and  N_12
REMARK    9  A    between atoms: C_17  and  C_18
REMARK                            x       y       z     vdW  Elec       q    Type
REMARK                         _______ _______ _______ _____ _____    ______ ____
ROOT
ATOM      1  N   UNL     1      45.461   7.243  12.804  0.00  0.00    +0.000 N 
ATOM      2  N   UNL     1      44.854   8.393  12.402  0.00  0.00    +0.000 NA
ATOM      3  C   UNL     1      45.880   9.157  12.018  0.00  0.00    +0.000 A 
ATOM      4  C   UNL     1      47.129   8.531  12.205  0.00  0.00    +0.000 A 
ATOM      5  C   UNL     1      48.468   8.795  11.902  0.00  0.00    +0.000 A 
ATOM      6  C   UNL     1      49.430   7.857  12.309  0.00  0.00    +0.000 A 
ATOM      7  C   UNL     1      49.002   6.757  13.050  0.00  0.00    +0.000 A 
ATOM      8  N   UNL     1      47.709   6.436  13.330  0.00  0.00    +0.000 NA
ATOM      9  C   UNL     1      46.829   7.339  12.849  0.00  0.00    +0.000 A 
ENDROOT
BRANCH   6  10
ATOM     10  C   UNL     1      50.830   8.067  11.865  0.00  0.00    +0.000 C 
ATOM     11  N   UNL     1      51.343   7.299  10.859  0.00  0.00    +0.000 N 
ATOM     12  O   UNL     1      51.523   8.943  12.372  0.00  0.00    +0.000 OA
ATOM     13  H   UNL     1      50.867   6.563  10.363  0.00  0.00    +0.000 HD
ATOM     14  H   UNL     1      52.283   7.533  10.561  0.00  0.00    +0.000 HD
ENDBRANCH   6  10
BRANCH   1  15
ATOM     15  C   UNL     1      44.672   6.042  12.999  0.00  0.00    +0.000 C 
BRANCH  15  19
ATOM     16  C   UNL     1      44.890   3.589   9.495  0.00  0.00    +0.000 A 
ATOM     17  C   UNL     1      44.232   3.084  10.616  0.00  0.00    +0.000 A 
ATOM     18  C   UNL     1      44.124   3.877  11.767  0.00  0.00    +0.000 A 
ATOM     19  C   UNL     1      44.661   5.167  11.764  0.00  0.00    +0.000 A 
ATOM     20  N   UNL     1      45.277   5.681  10.674  0.00  0.00    +0.000 NA
ATOM     21  C   UNL     1      45.369   4.889   9.574  0.00  0.00    +0.000 A 
BRANCH  16  22
ATOM     22  C   UNL     1      45.237   2.744   8.297  0.00  0.00    +0.000 C 
BRANCH  22  23
ATOM     23  O   UNL     1      46.236   3.322   7.460  0.00  0.00    +0.000 OA
BRANCH  23  25
ATOM     24  C   UNL     1      48.513   2.715   6.739  0.00  0.00    +0.000 C 
ATOM     25  C   UNL     1      47.015   2.377   6.690  0.00  0.00    +0.000 C 
ATOM     26  C   UNL     1      46.528   2.284   5.234  0.00  0.00    +0.000 C 
ATOM     27  C   UNL     1      46.816   1.001   7.344  0.00  0.00    +0.000 C 
ENDBRANCH  23  25
ENDBRANCH  22  23
ENDBRANCH  16  22
ENDBRANCH  15  19
ENDBRANCH   1  15
TORSDOF 6
ENDMDL
MODEL 5
REMARK VINA RESULT:    -5.573      2.964      4.902
REMARK INTER + INTRA:          -8.373
REMARK INTER:                  -7.596
REMARK INTRA:                  -0.777
REMARK UNBOUND:                -0.845
REMARK  Name = 
REMARK  9 active torsions:
REMARK  status: ('A' for Active; 'I' for Inactive)
REMARK    1  A    between atoms: C_1  and  C_2
REMARK    2  A    between atoms: C_2  and  C_3
REMARK    3  A    between atoms: C_2  and  C_4
REMARK    4  A    between atoms: C_2  and  O_5
REMARK    5  A    between atoms: O_5  and  C_6
REMARK    6  A    between atoms: C_6  and  C_7
REMARK    7  A    between atoms: C_10  and  C_11
REMARK    8  A    between atoms: C_11  and  N_12
REMARK    9  A    between atoms: C_17  and  C_18
REMARK                            x       y       z     vdW  Elec       q    Type
REMARK                         _______ _______ _______ _____ _____    ______ ____
ROOT
ATOM      1  N   UNL     1      47.815   6.104  13.670  0.00  0.00    +0.000 N 
ATOM      2  N   UNL     1      47.784   5.275  14.747  0.00  0.00    +0.000 NA
ATOM      3  C   UNL     1      46.838   4.390  14.420  0.00  0.00    +0.000 A 
ATOM      4  C   UNL     1      46.239   4.667  13.173  0.00  0.00    +0.000 A 
ATOM      5  C   UNL     1      45.317   4.057  12.317  0.00  0.00    +0.000 A 
ATOM      6  C   UNL     1      44.985   4.725  11.128  0.00  0.00    +0.000 A 
ATOM      7  C   UNL     1      45.539   5.984  10.906  0.00  0.00    +0.000 A 
ATOM      8  N   UNL     1      46.472   6.596  11.686  0.00  0.00    +0.000 NA
ATOM      9  C   UNL     1      46.802   5.870  12.775  0.00  0.00    +0.000 A 
ENDROOT
BRANCH   6  10
ATOM     10  C   UNL     1      44.118   4.014  10.157  0.00  0.00    +0.000 C 
ATOM     11  N   UNL     1      44.126   4.388   8.843  0.00  0.00    +0.000 N 
ATOM     12  O   UNL     1      43.413   3.076  10.515  0.00  0.00    +0.000 OA
ATOM     13  H   UNL     1      44.668   5.131   8.433  0.00  0.00    +0.000 HD
ATOM     14  H   UNL     1      43.558   3.825   8.220  0.00  0.00    +0.000 HD
ENDBRANCH   6  10
BRANCH   1  15
ATOM     15  C   UNL     1      48.930   7.016  13.495  0.00  0.00    +0.000 C 
BRANCH  15  19
ATOM     16  C   UNL     1      49.568   9.116  17.173  0.00  0.00    +0.000 A 
ATOM     17  C   UNL     1      50.562   8.246  16.727  0.00  0.00    +0.000 A 
ATOM     18  C   UNL     1      50.390   7.566  15.513  0.00  0.00    +0.000 A 
ATOM     19  C   UNL     1      49.233   7.787  14.762  0.00  0.00    +0.000 A 
ATOM     20  N   UNL     1      48.272   8.650  15.168  0.00  0.00    +0.000 NA
ATOM     21  C   UNL     1      48.465   9.292  16.349  0.00  0.00    +0.000 A 
BRANCH  16  22
ATOM     22  C   UNL     1      49.567   9.724  18.551  0.00  0.00    +0.000 C 
BRANCH  22  23
ATOM     23  O   UNL     1      48.264   9.876  19.108  0.00  0.00    +0.000 OA
BRANCH  23  25
ATOM     24  C   UNL     1      47.583   7.592  19.733  0.00  0.00    +0.000 C 
ATOM     25  C   UNL     1      47.964   8.999  20.219  0.00  0.00    +0.000 C 
ATOM     26  C   UNL     1      46.863   9.576  21.124  0.00  0.00    +0.000 C 
ATOM     27  C   UNL     1      49.249   8.883  21.053  0.00  0.00    +0.000 C 
ENDBRANCH  23  25
ENDBRANCH  22  23
ENDBRANCH  16  22
ENDBRANCH  15  19
ENDBRANCH   1  15
TORSDOF 6
ENDMDL
MODEL 6
REMARK VINA RESULT:    -5.519      4.246      5.488
REMARK INTER + INTRA:          -8.299
REMARK INTER:                  -7.420
REMARK INTRA:                  -0.880
REMARK UNBOUND:                -0.845
REMARK  Name = 
REMARK  9 active torsions:
REMARK  status: ('A' for Active; 'I' for Inactive)
REMARK    1  A    between atoms: C_1  and  C_2
REMARK    2  A    between atoms: C_2  and  C_3
REMARK    3  A    between atoms: C_2  and  C_4
REMARK    4  A    between atoms: C_2  and  O_5
REMARK    5  A    between atoms: O_5  and  C_6
REMARK    6  A    between atoms: C_6  and  C_7
REMARK    7  A    between atoms: C_10  and  C_11
REMARK    8  A    between atoms: C_11  and  N_12
REMARK    9  A    between atoms: C_17  and  C_18
REMARK                            x       y       z     vdW  Elec       q    Type
REMARK                         _______ _______ _______ _____ _____    ______ ____
ROOT
ATOM      1  N   UNL     1      45.917   4.680  13.464  0.00  0.00    +0.000 N 
ATOM      2  N   UNL     1      44.867   3.824  13.338  0.00  0.00    +0.000 NA
ATOM      3  C   UNL     1      43.951   4.562  12.704  0.00  0.00    +0.000 A 
ATOM      4  C   UNL     1      44.385   5.882  12.461  0.00  0.00    +0.000 A 
ATOM      5  C   UNL     1      43.918   7.009  11.778  0.00  0.00    +0.000 A 
ATOM      6  C   UNL     1      44.705   8.169  11.813  0.00  0.00    +0.000 A 
ATOM      7  C   UNL     1      45.867   8.152  12.581  0.00  0.00    +0.000 A 
ATOM      8  N   UNL     1      46.383   7.069  13.225  0.00  0.00    +0.000 NA
ATOM      9  C   UNL     1      45.617   5.966  13.093  0.00  0.00    +0.000 A 
ENDROOT
BRANCH   6  10
ATOM     10  C   UNL     1      44.280   9.317  10.974  0.00  0.00    +0.000 C 
ATOM     11  N   UNL     1      43.077   9.274  10.328  0.00  0.00    +0.000 N 
ATOM     12  O   UNL     1      44.984  10.317  10.877  0.00  0.00    +0.000 OA
ATOM     13  H   UNL     1      42.414   8.516  10.344  0.00  0.00    +0.000 HD
ATOM     14  H   UNL     1      42.818  10.113   9.822  0.00  0.00    +0.000 HD
ENDBRANCH   6  10
BRANCH   1  15
ATOM     15  C   UNL     1      47.226   4.166  13.820  0.00  0.00    +0.000 C 
BRANCH  15  19
ATOM     16  C   UNL     1      48.094   5.157  17.895  0.00  0.00    +0.000 A 
ATOM     17  C   UNL     1      47.280   4.055  17.642  0.00  0.00    +0.000 A 
ATOM     18  C   UNL     1      47.001   3.693  16.316  0.00  0.00    +0.000 A 
ATOM     19  C   UNL     1      47.561   4.433  15.272  0.00  0.00    +0.000 A 
ATOM     20  N   UNL     1      48.377   5.488  15.502  0.00  0.00    +0.000 NA
ATOM     21  C   UNL     1      48.627   5.817  16.796  0.00  0.00    +0.000 A 
BRANCH  16  22
ATOM     22  C   UNL     1      48.278   5.744  19.270  0.00  0.00    +0.000 C 
BRANCH  22  23
ATOM     23  O   UNL     1      47.364   6.796  19.571  0.00  0.00    +0.000 OA
BRANCH  23  25
ATOM     24  C   UNL     1      47.620   9.015  18.531  0.00  0.00    +0.000 C 
ATOM     25  C   UNL     1      47.960   8.105  19.721  0.00  0.00    +0.000 C 
ATOM     26  C   UNL     1      49.483   8.022  19.921  0.00  0.00    +0.000 C 
ATOM     27  C   UNL     1      47.351   8.727  20.987  0.00  0.00    +0.000 C 
ENDBRANCH  23  25
ENDBRANCH  22  23
ENDBRANCH  16  22
ENDBRANCH  15  19
ENDBRANCH   1  15
TORSDOF 6
ENDMDL
MODEL 7
REMARK VINA RESULT:    -5.334      3.838      5.485
REMARK INTER + INTRA:          -8.049
REMARK INTER:                  -6.952
REMARK INTRA:                  -1.097
REMARK UNBOUND:                -0.845
REMARK  Name = 
REMARK  9 active torsions:
REMARK  status: ('A' for Active; 'I' for Inactive)
REMARK    1  A    between atoms: C_1  and  C_2
REMARK    2  A    between atoms: C_2  and  C_3
REMARK    3  A    between atoms: C_2  and  C_4
REMARK    4  A    between atoms: C_2  and  O_5
REMARK    5  A    between atoms: O_5  and  C_6
REMARK    6  A    between atoms: C_6  and  C_7
REMARK    7  A    between atoms: C_10  and  C_11
REMARK    8  A    between atoms: C_11  and  N_12
REMARK    9  A    between atoms: C_17  and  C_18
REMARK                            x       y       z     vdW  Elec       q    Type
REMARK                         _______ _______ _______ _____ _____    ______ ____
ROOT
ATOM      1  N   UNL     1      47.830   8.709  12.425  0.00  0.00    +0.000 N 
ATOM      2  N   UNL     1      47.145   9.849  12.139  0.00  0.00    +0.000 NA
ATOM      3  C   UNL     1      45.875   9.437  12.102  0.00  0.00    +0.000 A 
ATOM      4  C   UNL     1      45.744   8.050  12.319  0.00  0.00    +0.000 A 
ATOM      5  C   UNL     1      44.706   7.128  12.488  0.00  0.00    +0.000 A 
ATOM      6  C   UNL     1      45.050   5.780  12.671  0.00  0.00    +0.000 A 
ATOM      7  C   UNL     1      46.396   5.431  12.604  0.00  0.00    +0.000 A 
ATOM      8  N   UNL     1      47.441   6.295  12.486  0.00  0.00    +0.000 NA
ATOM      9  C   UNL     1      47.049   7.582  12.387  0.00  0.00    +0.000 A 
ENDROOT
BRANCH   6  10
ATOM     10  C   UNL     1      43.958   4.827  12.990  0.00  0.00    +0.000 C 
ATOM     11  N   UNL     1      42.691   5.294  13.198  0.00  0.00    +0.000 N 
ATOM     12  O   UNL     1      44.174   3.621  13.041  0.00  0.00    +0.000 OA
ATOM     13  H   UNL     1      42.394   6.256  13.171  0.00  0.00    +0.000 HD
ATOM     14  H   UNL     1      41.980   4.589  13.351  0.00  0.00    +0.000 HD
ENDBRANCH   6  10
BRANCH   1  15
ATOM     15  C   UNL     1      49.212   8.789  12.861  0.00  0.00    +0.000 C 
BRANCH  15  19
ATOM     16  C   UNL     1      49.385   7.795  17.023  0.00  0.00    +0.000 A 
ATOM     17  C   UNL     1      50.119   7.019  16.127  0.00  0.00    +0.000 A 
ATOM     18  C   UNL     1      50.101   7.340  14.763  0.00  0.00    +0.000 A 
ATOM     19  C   UNL     1      49.361   8.442  14.327  0.00  0.00    +0.000 A 
ATOM     20  N   UNL     1      48.667   9.221  15.190  0.00  0.00    +0.000 NA
ATOM     21  C   UNL     1      48.701   8.885  16.505  0.00  0.00    +0.000 A 
BRANCH  16  22
ATOM     22  C   UNL     1      49.176   7.408  18.464  0.00  0.00    +0.000 C 
BRANCH  22  23
ATOM     23  O   UNL     1      49.522   6.054  18.749  0.00  0.00    +0.000 OA
BRANCH  23  25
ATOM     24  C   UNL     1      48.253   4.121  17.899  0.00  0.00    +0.000 C 
ATOM     25  C   UNL     1      48.404   5.174  19.007  0.00  0.00    +0.000 C 
ATOM     26  C   UNL     1      47.092   5.954  19.195  0.00  0.00    +0.000 C 
ATOM     27  C   UNL     1      48.710   4.441  20.323  0.00  0.00    +0.000 C 
ENDBRANCH  23  25
ENDBRANCH  22  23
ENDBRANCH  16  22
ENDBRANCH  15  19
ENDBRANCH   1  15
TORSDOF 6
ENDMDL
MODEL 8
REMARK VINA RESULT:    -5.284      4.156      9.449
REMARK INTER + INTRA:          -7.982
REMARK INTER:                  -7.306
REMARK INTRA:                  -0.676
REMARK UNBOUND:                -0.845
REMARK  Name = 
REMARK  9 active torsions:
REMARK  status: ('A' for Active; 'I' for Inactive)
REMARK    1  A    between atoms: C_1  and  C_2
REMARK    2  A    between atoms: C_2  and  C_3
REMARK    3  A    between atoms: C_2  and  C_4
REMARK    4  A    between atoms: C_2  and  O_5
REMARK    5  A    between atoms: O_5  and  C_6
REMARK    6  A    between atoms: C_6  and  C_7
REMARK    7  A    between atoms: C_10  and  C_11
REMARK    8  A    between atoms: C_11  and  N_12
REMARK    9  A    between atoms: C_17  and  C_18
REMARK                            x       y       z     vdW  Elec       q    Type
REMARK                         _______ _______ _______ _____ _____    ______ ____
ROOT
ATOM      1  N   UNL     1      49.363   6.421  17.085  0.00  0.00    +0.000 N 
ATOM      2  N   UNL     1      48.439   6.825  17.998  0.00  0.00    +0.000 NA
ATOM      3  C   UNL     1      48.947   6.388  19.154  0.00  0.00    +0.000 A 
ATOM      4  C   UNL     1      50.155   5.679  18.987  0.00  0.00    +0.000 A 
ATOM      5  C   UNL     1      51.138   5.113  19.805  0.00  0.00    +0.000 A 
ATOM      6  C   UNL     1      52.211   4.458  19.183  0.00  0.00    +0.000 A 
ATOM      7  C   UNL     1      52.200   4.352  17.794  0.00  0.00    +0.000 A 
ATOM      8  N   UNL     1      51.292   4.923  16.956  0.00  0.00    +0.000 NA
ATOM      9  C   UNL     1      50.325   5.598  17.612  0.00  0.00    +0.000 A 
ENDROOT
BRANCH   6  10
ATOM     10  C   UNL     1      53.322   3.983  20.044  0.00  0.00    +0.000 C 
ATOM     11  N   UNL     1      54.042   4.882  20.778  0.00  0.00    +0.000 N 
ATOM     12  O   UNL     1      53.583   2.787  20.126  0.00  0.00    +0.000 OA
ATOM     13  H   UNL     1      53.912   5.880  20.799  0.00  0.00    +0.000 HD
ATOM     14  H   UNL     1      54.746   4.488  21.392  0.00  0.00    +0.000 HD
ENDBRANCH   6  10
BRANCH   1  15
ATOM     15  C   UNL     1      49.338   6.974  15.744  0.00  0.00    +0.000 C 
BRANCH  15  19
ATOM     16  C   UNL     1      46.270   5.017  13.486  0.00  0.00    +0.000 A 
ATOM     17  C   UNL     1      46.666   6.295  13.094  0.00  0.00    +0.000 A 
ATOM     18  C   UNL     1      47.687   6.947  13.800  0.00  0.00    +0.000 A 
ATOM     19  C   UNL     1      48.302   6.296  14.873  0.00  0.00    +0.000 A 
ATOM     20  N   UNL     1      47.947   5.045  15.246  0.00  0.00    +0.000 NA
ATOM     21  C   UNL     1      46.954   4.439  14.546  0.00  0.00    +0.000 A 
BRANCH  16  22
ATOM     22  C   UNL     1      45.052   4.328  12.928  0.00  0.00    +0.000 C 
BRANCH  22  23
ATOM     23  O   UNL     1      45.328   3.502  11.799  0.00  0.00    +0.000 OA
BRANCH  23  25
ATOM     24  C   UNL     1      43.210   4.426  10.947  0.00  0.00    +0.000 C 
ATOM     25  C   UNL     1      44.580   3.823  10.604  0.00  0.00    +0.000 C 
ATOM     26  C   UNL     1      44.420   2.603   9.682  0.00  0.00    +0.000 C 
ATOM     27  C   UNL     1      45.391   4.885   9.845  0.00  0.00    +0.000 C 
ENDBRANCH  23  25
ENDBRANCH  22  23
ENDBRANCH  16  22
ENDBRANCH  15  19
ENDBRANCH   1  15
TORSDOF 6
ENDMDL
