MODEL 1
REMARK VINA RESULT:    -8.261      0.000      0.000
REMARK INTER + INTRA:         -11.997
REMARK INTER:                 -11.401
REMARK INTRA:                  -0.596
REMARK UNBOUND:                -0.596
REMARK  Name = 
REMARK  7 active torsions:
REMARK  status: ('A' for Active; 'I' for Inactive)
REMARK    1  A    between atoms: N_1  and  C_2
REMARK    2  A    between atoms: C_2  and  C_3
REMARK    3  A    between atoms: C_3  and  O_4
REMARK    4  A    between atoms: O_4  and  C_5
REMARK    5  A    between atoms: N_11  and  C_12
REMARK    6  A    between atoms: C_12  and  C_13
REMARK    7  A    between atoms: C_16  and  C_17
REMARK                            x       y       z     vdW  Elec       q    Type
REMARK                         _______ _______ _______ _____ _____    ______ ____
ROOT
ATOM      1  C   UNL     1      47.056   4.362  14.106  0.00  0.00    +0.000 A 
ATOM      2  C   UNL     1      47.470   5.680  14.297  0.00  0.00    +0.000 A 
ATOM      3  N   UNL     1      47.023   6.763  13.618  0.00  0.00    +0.000 NA
ATOM      4  C   UNL     1      46.096   6.486  12.678  0.00  0.00    +0.000 A 
ATOM      5  N   UNL     1      45.505   7.403  11.854  0.00  0.00    +0.000 NA
ATOM      6  C   UNL     1      44.688   6.706  11.098  0.00  0.00    +0.000 A 
ATOM      7  N   UNL     1      44.722   5.372  11.405  0.00  0.00    +0.000 N 
ATOM      8  C   UNL     1      45.629   5.201  12.420  0.00  0.00    +0.000 A 
ATOM      9  C   UNL     1      46.095   4.097  13.132  0.00  0.00    +0.000 A 
ENDROOT
BRANCH   1  10
ATOM     10  O   UNL     1      47.497   3.259  14.783  0.00  0.00    +0.000 OA
BRANCH  10  11
ATOM     11  C   UNL     1      47.475   3.346  16.210  0.00  0.00    +0.000 C 
BRANCH  11  12
ATOM     12  C   UNL     1      48.819   2.837  16.735  0.00  0.00    +0.000 C 
BRANCH  12  13
ATOM     13  N   UNL     1      49.348   1.742  15.926  0.00  0.00    +0.000 NA
ATOM     14  H   UNL     1      50.347   1.649  16.103  0.00  0.00    +0.000 HD
ATOM     15  H   UNL     1      49.259   1.971  14.935  0.00  0.00    +0.000 HD
ENDBRANCH  12  13
ENDBRANCH  11  12
ENDBRANCH  10  11
ENDBRANCH   1  10
BRANCH   7  16
ATOM     16  C   UNL     1      43.983   4.319  10.726  0.00  0.00    +0.000 C 
BRANCH  16  17
ATOM     17  C   UNL     1      44.814   3.672   9.652  0.00  0.00    +0.000 A 
ATOM     18  C   UNL     1      45.518   4.431   8.712  0.00  0.00    +0.000 A 
ATOM     19  C   UNL     1      46.346   3.797   7.787  0.00  0.00    +0.000 A 
ATOM     20  C   UNL     1      46.428   2.411   7.816  0.00  0.00    +0.000 A 
ATOM     21  N   UNL     1      45.733   1.634   8.692  0.00  0.00    +0.000 NA
ATOM     22  C   UNL     1      44.954   2.286   9.585  0.00  0.00    +0.000 A 
BRANCH  20  23
ATOM     23  C   UNL     1      47.335   1.705   6.853  0.00  0.00    +0.000 C 
ATOM     24  N   UNL     1      48.350   2.447   6.311  0.00  0.00    +0.000 N 
ATOM     25  O   UNL     1      47.180   0.528   6.556  0.00  0.00    +0.000 OA
ATOM     26  H   UNL     1      48.463   3.424   6.556  0.00  0.00    +0.000 HD
ATOM     27  H   UNL     1      48.966   2.016   5.641  0.00  0.00    +0.000 HD
ENDBRANCH  20  23
ENDBRANCH  16  17
ENDBRANCH   7  16
TORSDOF 7
ENDMDL
MODEL 2
REMARK VINA RESULT:    -7.796      2.744      4.918
REMARK INTER + INTRA:         -11.355
REMARK INTER:                 -10.620
REMARK INTRA:                  -0.735
REMARK UNBOUND:                -0.596
REMARK  Name = 
REMARK  7 active torsions:
REMARK  status: ('A' for Active; 'I' for Inactive)
REMARK    1  A    between atoms: N_1  and  C_2
REMARK    2  A    between atoms: C_2  and  C_3
REMARK    3  A    between atoms: C_3  and  O_4
REMARK    4  A    between atoms: O_4  and  C_5
REMARK    5  A    between atoms: N_11  and  C_12
REMARK    6  A    between atoms: C_12  and  C_13
REMARK    7  A    between atoms: C_16  and  C_17
REMARK                            x       y       z     vdW  Elec       q    Type
REMARK                         _______ _______ _______ _____ _____    ______ ____
ROOT
ATOM      1  C   UNL     1      44.571   8.766  11.406  0.00  0.00    +0.000 A 
ATOM      2  C   UNL     1      45.395   8.878  12.526  0.00  0.00    +0.000 A 
ATOM      3  N   UNL     1      45.912   7.850  13.242  0.00  0.00    +0.000 NA
ATOM      4  C   UNL     1      45.563   6.628  12.789  0.00  0.00    +0.000 A 
ATOM      5  N   UNL     1      45.943   5.440  13.348  0.00  0.00    +0.000 NA
ATOM      6  C   UNL     1      45.373   4.517  12.607  0.00  0.00    +0.000 A 
ATOM      7  N   UNL     1      44.643   5.062  11.585  0.00  0.00    +0.000 N 
ATOM      8  C   UNL     1      44.744   6.426  11.683  0.00  0.00    +0.000 A 
ATOM      9  C   UNL     1      44.225   7.495  10.954  0.00  0.00    +0.000 A 
ENDROOT
BRANCH   1  10
ATOM     10  O   UNL     1      44.043   9.793  10.674  0.00  0.00    +0.000 OA
BRANCH  10  11
ATOM     11  C   UNL     1      42.986  10.530  11.294  0.00  0.00    +0.000 C 
BRANCH  11  12
ATOM     12  C   UNL     1      41.687  10.208  10.552  0.00  0.00    +0.000 C 
BRANCH  12  13
ATOM     13  N   UNL     1      40.719   9.525  11.406  0.00  0.00    +0.000 NA
ATOM     14  H   UNL     1      40.389  10.173  12.121  0.00  0.00    +0.000 HD
ATOM     15  H   UNL     1      41.179   8.765  11.908  0.00  0.00    +0.000 HD
ENDBRANCH  12  13
ENDBRANCH  11  12
ENDBRANCH  10  11
ENDBRANCH   1  10
BRANCH   7  16
ATOM     16  C   UNL     1      43.846   4.326  10.616  0.00  0.00    +0.000 C 
BRANCH  16  17
ATOM     17  C   UNL     1      44.714   3.671   9.577  0.00  0.00    +0.000 A 
ATOM     18  C   UNL     1      45.377   4.418   8.597  0.00  0.00    +0.000 A 
ATOM     19  C   UNL     1      46.240   3.783   7.707  0.00  0.00    +0.000 A 
ATOM     20  C   UNL     1      46.398   2.406   7.808  0.00  0.00    +0.000 A 
ATOM     21  N   UNL     1      45.745   1.639   8.723  0.00  0.00    +0.000 NA
ATOM     22  C   UNL     1      44.930   2.293   9.582  0.00  0.00    +0.000 A 
BRANCH  20  23
ATOM     23  C   UNL     1      47.345   1.702   6.882  0.00  0.00    +0.000 C 
ATOM     24  N   UNL     1      48.428   2.421   6.451  0.00  0.00    +0.000 N 
ATOM     25  O   UNL     1      47.163   0.547   6.520  0.00  0.00    +0.000 OA
ATOM     26  H   UNL     1      48.563   3.380   6.748  0.00  0.00    +0.000 HD
ATOM     27  H   UNL     1      49.074   1.992   5.808  0.00  0.00    +0.000 HD
ENDBRANCH  20  23
ENDBRANCH  16  17
ENDBRANCH   7  16
TORSDOF 7
ENDMDL
MODEL 3
REMARK VINA RESULT:    -7.738      2.375      6.821
REMARK INTER + INTRA:         -11.274
REMARK INTER:                 -10.753
REMARK INTRA:                  -0.521
REMARK UNBOUND:                -0.596
REMARK  Name = 
REMARK  7 active torsions:
REMARK  status: ('A' for Active; 'I' for Inactive)
REMARK    1  A    between atoms: N_1  and  C_2
REMARK    2  A    between atoms: C_2  and  C_3
REMARK    3  A    between atoms: C_3  and  O_4
REMARK    4  A    between atoms: O_4  and  C_5
REMARK    5  A    between atoms: N_11  and  C_12
REMARK    6  A    between atoms: C_12  and  C_13
REMARK    7  A    between atoms: C_16  and  C_17
REMARK                            x       y       z     vdW  Elec       q    Type
REMARK                         _______ _______ _______ _____ _____    ______ ____
ROOT
ATOM      1  C   UNL     1      45.592   3.783   8.297  0.00  0.00    +0.000 A 
ATOM      2  C   UNL     1      45.061   2.503   8.449  0.00  0.00    +0.000 A 
ATOM      3  N   UNL     1      44.239   2.093   9.445  0.00  0.00    +0.000 NA
ATOM      4  C   UNL     1      43.941   3.051  10.348  0.00  0.00    +0.000 A 
ATOM      5  N   UNL     1      43.147   2.882  11.448  0.00  0.00    +0.000 NA
ATOM      6  C   UNL     1      43.141   4.051  12.046  0.00  0.00    +0.000 A 
ATOM      7  N   UNL     1      43.896   4.974  11.373  0.00  0.00    +0.000 N 
ATOM      8  C   UNL     1      44.430   4.351  10.273  0.00  0.00    +0.000 A 
ATOM      9  C   UNL     1      45.271   4.757   9.239  0.00  0.00    +0.000 A 
ENDROOT
BRANCH   1  10
ATOM     10  O   UNL     1      46.423   4.210   7.298  0.00  0.00    +0.000 OA
BRANCH  10  11
ATOM     11  C   UNL     1      46.724   3.255   6.278  0.00  0.00    +0.000 C 
BRANCH  11  12
ATOM     12  C   UNL     1      47.999   2.514   6.686  0.00  0.00    +0.000 C 
BRANCH  12  13
ATOM     13  N   UNL     1      48.585   1.771   5.573  0.00  0.00    +0.000 NA
ATOM     14  H   UNL     1      48.275   2.187   4.695  0.00  0.00    +0.000 HD
ATOM     15  H   UNL     1      48.229   0.815   5.570  0.00  0.00    +0.000 HD
ENDBRANCH  12  13
ENDBRANCH  11  12
ENDBRANCH  10  11
ENDBRANCH   1  10
BRANCH   7  16
ATOM     16  C   UNL     1      44.145   6.344  11.791  0.00  0.00    +0.000 C 
BRANCH  16  17
ATOM     17  C   UNL     1      45.549   6.515  12.303  0.00  0.00    +0.000 A 
ATOM     18  C   UNL     1      46.368   7.560  11.863  0.00  0.00    +0.000 A 
ATOM     19  C   UNL     1      47.630   7.736  12.425  0.00  0.00    +0.000 A 
ATOM     20  C   UNL     1      48.049   6.841  13.401  0.00  0.00    +0.000 A 
ATOM     21  N   UNL     1      47.298   5.791  13.831  0.00  0.00    +0.000 NA
ATOM     22  C   UNL     1      46.071   5.663  13.275  0.00  0.00    +0.000 A 
BRANCH  20  23
ATOM     23  C   UNL     1      49.391   7.025  14.045  0.00  0.00    +0.000 C 
ATOM     24  N   UNL     1      50.348   7.657  13.297  0.00  0.00    +0.000 N 
ATOM     25  O   UNL     1      49.630   6.628  15.178  0.00  0.00    +0.000 OA
ATOM     26  H   UNL     1      50.143   7.972  12.356  0.00  0.00    +0.000 HD
ATOM     27  H   UNL     1      51.269   7.778  13.684  0.00  0.00    +0.000 HD
ENDBRANCH  20  23
ENDBRANCH  16  17
ENDBRANCH   7  16
TORSDOF 7
ENDMDL
MODEL 4
REMARK VINA RESULT:    -7.646      2.266      3.076
REMARK INTER + INTRA:         -11.147
REMARK INTER:                 -10.384
REMARK INTRA:                  -0.763
REMARK UNBOUND:                -0.596
REMARK  Name = 
REMARK  7 active torsions:
REMARK  status: ('A' for Active; 'I' for Inactive)
REMARK    1  A    between atoms: N_1  and  C_2
REMARK    2  A    between atoms: C_2  and  C_3
REMARK    3  A    between atoms: C_3  and  O_4
REMARK    4  A    between atoms: O_4  and  C_5
REMARK    5  A    between atoms: N_11  and  C_12
REMARK    6  A    between atoms: C_12  and  C_13
REMARK    7  A    between atoms: C_16  and  C_17
REMARK                            x       y       z     vdW  Elec       q    Type
REMARK                         _______ _______ _______ _____ _____    ______ ____
ROOT
ATOM      1  C   UNL     1      47.297   6.574  12.204  0.00  0.00    +0.000 A 
ATOM      2  C   UNL     1      47.274   6.254  13.561  0.00  0.00    +0.000 A 
ATOM      3  N   UNL     1      46.377   5.446  14.175  0.00  0.00    +0.000 NA
ATOM      4  C   UNL     1      45.439   4.933  13.353  0.00  0.00    +0.000 A 
ATOM      5  N   UNL     1      44.421   4.105  13.735  0.00  0.00    +0.000 NA
ATOM      6  C   UNL     1      43.747   3.863  12.634  0.00  0.00    +0.000 A 
ATOM      7  N   UNL     1      44.294   4.497  11.551  0.00  0.00    +0.000 N 
ATOM      8  C   UNL     1      45.386   5.201  11.990  0.00  0.00    +0.000 A 
ATOM      9  C   UNL     1      46.321   6.032  11.372  0.00  0.00    +0.000 A 
ENDROOT
BRANCH   1  10
ATOM     10  O   UNL     1      48.195   7.388  11.570  0.00  0.00    +0.000 OA
BRANCH  10  11
ATOM     11  C   UNL     1      48.643   8.528  12.308  0.00  0.00    +0.000 C 
BRANCH  11  12
ATOM     12  C   UNL     1      50.168   8.458  12.404  0.00  0.00    +0.000 C 
BRANCH  12  13
ATOM     13  N   UNL     1      50.613   7.669  13.551  0.00  0.00    +0.000 NA
ATOM     14  H   UNL     1      51.556   7.958  13.808  0.00  0.00    +0.000 HD
ATOM     15  H   UNL     1      50.684   6.686  13.286  0.00  0.00    +0.000 HD
ENDBRANCH  12  13
ENDBRANCH  11  12
ENDBRANCH  10  11
ENDBRANCH   1  10
BRANCH   7  16
ATOM     16  C   UNL     1      43.766   4.485  10.196  0.00  0.00    +0.000 C 
BRANCH  16  17
ATOM     17  C   UNL     1      44.649   3.693   9.271  0.00  0.00    +0.000 A 
ATOM     18  C   UNL     1      45.382   4.309   8.250  0.00  0.00    +0.000 A 
ATOM     19  C   UNL     1      46.255   3.554   7.470  0.00  0.00    +0.000 A 
ATOM     20  C   UNL     1      46.354   2.191   7.721  0.00  0.00    +0.000 A 
ATOM     21  N   UNL     1      45.633   1.548   8.680  0.00  0.00    +0.000 NA
ATOM     22  C   UNL     1      44.809   2.317   9.429  0.00  0.00    +0.000 A 
BRANCH  20  23
ATOM     23  C   UNL     1      47.309   1.360   6.917  0.00  0.00    +0.000 C 
ATOM     24  N   UNL     1      48.439   1.989   6.466  0.00  0.00    +0.000 N 
ATOM     25  O   UNL     1      47.095   0.182   6.666  0.00  0.00    +0.000 OA
ATOM     26  H   UNL     1      48.601   2.969   6.671  0.00  0.00    +0.000 HD
ATOM     27  H   UNL     1      49.094   1.473   5.902  0.00  0.00    +0.000 HD
ENDBRANCH  20  23
ENDBRANCH  16  17
ENDBRANCH   7  16
TORSDOF 7
ENDMDL
MODEL 5
REMARK VINA RESULT:    -6.298      3.556      7.863
REMARK INTER + INTRA:          -9.287
REMARK INTER:                  -8.778
REMARK INTRA:                  -0.509
REMARK UNBOUND:                -0.596
REMARK  Name = 
REMARK  7 active torsions:
REMARK  status: ('A' for Active; 'I' for Inactive)
REMARK    1  A    between atoms: N_1  and  C_2
REMARK    2  A    between atoms: C_2  and  C_3
REMARK    3  A    between atoms: C_3  and  O_4
REMARK    4  A    between atoms: O_4  and  C_5
REMARK    5  A    between atoms: N_11  and  C_12
REMARK    6  A    between atoms: C_12  and  C_13
REMARK    7  A    between atoms: C_16  and  C_17
REMARK                            x       y       z     vdW  Elec       q    Type
REMARK                         _______ _______ _______ _____ _____    ______ ____
ROOT
ATOM      1  C   UNL     1      46.227   4.650  13.229  0.00  0.00    +0.000 A 
ATOM      2  C   UNL     1      46.633   5.753  12.478  0.00  0.00    +0.000 A 
ATOM      3  N   UNL     1      47.521   6.699  12.867  0.00  0.00    +0.000 NA
ATOM      4  C   UNL     1      48.027   6.511  14.104  0.00  0.00    +0.000 A 
ATOM      5  N   UNL     1      48.926   7.333  14.724  0.00  0.00    +0.000 NA
ATOM      6  C   UNL     1      49.129   6.789  15.901  0.00  0.00    +0.000 A 
ATOM      7  N   UNL     1      48.401   5.641  16.066  0.00  0.00    +0.000 N 
ATOM      8  C   UNL     1      47.674   5.442  14.919  0.00  0.00    +0.000 A 
ATOM      9  C   UNL     1      46.762   4.474  14.502  0.00  0.00    +0.000 A 
ENDROOT
BRANCH   1  10
ATOM     10  O   UNL     1      45.332   3.688  12.850  0.00  0.00    +0.000 OA
BRANCH  10  11
ATOM     11  C   UNL     1      43.955   4.074  12.849  0.00  0.00    +0.000 C 
BRANCH  11  12
ATOM     12  C   UNL     1      43.314   3.535  11.568  0.00  0.00    +0.000 C 
BRANCH  12  13
ATOM     13  N   UNL     1      42.998   2.112  11.667  0.00  0.00    +0.000 NA
ATOM     14  H   UNL     1      42.592   1.924  12.583  0.00  0.00    +0.000 HD
ATOM     15  H   UNL     1      43.858   1.564  11.625  0.00  0.00    +0.000 HD
ENDBRANCH  12  13
ENDBRANCH  11  12
ENDBRANCH  10  11
ENDBRANCH   1  10
BRANCH   7  16
ATOM     16  C   UNL     1      48.352   4.824  17.268  0.00  0.00    +0.000 C 
BRANCH  16  17
ATOM     17  C   UNL     1      49.520   3.878  17.335  0.00  0.00    +0.000 A 
ATOM     18  C   UNL     1      50.794   4.311  17.719  0.00  0.00    +0.000 A 
ATOM     19  C   UNL     1      51.829   3.388  17.854  0.00  0.00    +0.000 A 
ATOM     20  C   UNL     1      51.564   2.053  17.577  0.00  0.00    +0.000 A 
ATOM     21  N   UNL     1      50.349   1.596  17.167  0.00  0.00    +0.000 NA
ATOM     22  C   UNL     1      49.364   2.519  17.065  0.00  0.00    +0.000 A 
BRANCH  20  23
ATOM     23  C   UNL     1      52.651   1.034  17.744  0.00  0.00    +0.000 C 
ATOM     24  N   UNL     1      52.291  -0.160  18.310  0.00  0.00    +0.000 N 
ATOM     25  O   UNL     1      53.806   1.251  17.400  0.00  0.00    +0.000 OA
ATOM     26  H   UNL     1      51.335  -0.326  18.600  0.00  0.00    +0.000 HD
ATOM     27  H   UNL     1      52.998  -0.861  18.462  0.00  0.00    +0.000 HD
ENDBRANCH  20  23
ENDBRANCH  16  17
ENDBRANCH   7  16
TORSDOF 7
ENDMDL
MODEL 6
REMARK VINA RESULT:    -6.206      1.873      7.260
REMARK INTER + INTRA:          -9.160
REMARK INTER:                  -9.221
REMARK INTRA:                   0.061
REMARK UNBOUND:                -0.596
REMARK  Name = 
REMARK  7 active torsions:
REMARK  status: ('A' for Active; 'I' for Inactive)
REMARK    1  A    between atoms: N_1  and  C_2
REMARK    2  A    between atoms: C_2  and  C_3
REMARK    3  A    between atoms: C_3  and  O_4
REMARK    4  A    between atoms: O_4  and  C_5
REMARK    5  A    between atoms: N_11  and  C_12
REMARK    6  A    between atoms: C_12  and  C_13
REMARK    7  A    between atoms: C_16  and  C_17
REMARK                            x       y       z     vdW  Elec       q    Type
REMARK                         _______ _______ _______ _____ _____    ______ ____
ROOT
ATOM      1  C   UNL     1      45.626   3.969   8.297  0.00  0.00    +0.000 A 
ATOM      2  C   UNL     1      44.597   3.040   8.446  0.00  0.00    +0.000 A 
ATOM      3  N   UNL     1      43.815   2.883   9.541  0.00  0.00    +0.000 NA
ATOM      4  C   UNL     1      44.105   3.726  10.554  0.00  0.00    +0.000 A 
ATOM      5  N   UNL     1      43.470   3.755  11.765  0.00  0.00    +0.000 NA
ATOM      6  C   UNL     1      44.073   4.705  12.442  0.00  0.00    +0.000 A 
ATOM      7  N   UNL     1      45.069   5.299  11.715  0.00  0.00    +0.000 N 
ATOM      8  C   UNL     1      45.115   4.680  10.491  0.00  0.00    +0.000 A 
ATOM      9  C   UNL     1      45.906   4.832   9.353  0.00  0.00    +0.000 A 
ENDROOT
BRANCH   1  10
ATOM     10  O   UNL     1      46.422   4.139   7.198  0.00  0.00    +0.000 OA
BRANCH  10  11
ATOM     11  C   UNL     1      46.372   3.100   6.217  0.00  0.00    +0.000 C 
BRANCH  11  12
ATOM     12  C   UNL     1      47.523   2.131   6.496  0.00  0.00    +0.000 C 
BRANCH  12  13
ATOM     13  N   UNL     1      48.828   2.775   6.371  0.00  0.00    +0.000 NA
ATOM     14  H   UNL     1      49.324   2.372   5.577  0.00  0.00    +0.000 HD
ATOM     15  H   UNL     1      49.396   2.565   7.192  0.00  0.00    +0.000 HD
ENDBRANCH  12  13
ENDBRANCH  11  12
ENDBRANCH  10  11
ENDBRANCH   1  10
BRANCH   7  16
ATOM     16  C   UNL     1      45.964   6.344  12.183  0.00  0.00    +0.000 C 
BRANCH  16  17
ATOM     17  C   UNL     1      46.755   5.893  13.381  0.00  0.00    +0.000 A 
ATOM     18  C   UNL     1      47.691   6.729  13.999  0.00  0.00    +0.000 A 
ATOM     19  C   UNL     1      48.339   6.307  15.158  0.00  0.00    +0.000 A 
ATOM     20  C   UNL     1      48.047   5.043  15.655  0.00  0.00    +0.000 A 
ATOM     21  N   UNL     1      47.170   4.187  15.064  0.00  0.00    +0.000 NA
ATOM     22  C   UNL     1      46.546   4.638  13.951  0.00  0.00    +0.000 A 
BRANCH  20  23
ATOM     23  C   UNL     1      48.707   4.576  16.918  0.00  0.00    +0.000 C 
ATOM     24  N   UNL     1      47.904   4.455  18.021  0.00  0.00    +0.000 N 
ATOM     25  O   UNL     1      49.903   4.319  16.971  0.00  0.00    +0.000 OA
ATOM     26  H   UNL     1      46.918   4.681  17.968  0.00  0.00    +0.000 HD
ATOM     27  H   UNL     1      48.315   4.168  18.894  0.00  0.00    +0.000 HD
ENDBRANCH  20  23
ENDBRANCH  16  17
ENDBRANCH   7  16
TORSDOF 7
ENDMDL
MODEL 7
REMARK VINA RESULT:    -6.012      3.387      5.807
REMARK INTER + INTRA:          -8.892
REMARK INTER:                  -8.214
REMARK INTRA:                  -0.678
REMARK UNBOUND:                -0.596
REMARK  Name = 
REMARK  7 active torsions:
REMARK  status: ('A' for Active; 'I' for Inactive)
REMARK    1  A    between atoms: N_1  and  C_2
REMARK    2  A    between atoms: C_2  and  C_3
REMARK    3  A    between atoms: C_3  and  O_4
REMARK    4  A    between atoms: O_4  and  C_5
REMARK    5  A    between atoms: N_11  and  C_12
REMARK    6  A    between atoms: C_12  and  C_13
REMARK    7  A    between atoms: C_16  and  C_17
REMARK                            x       y       z     vdW  Elec       q    Type
REMARK                         _______ _______ _______ _____ _____    ______ ____
ROOT
ATOM      1  C   UNL     1      46.705   3.815  13.685  0.00  0.00    +0.000 A 
ATOM      2  C   UNL     1      45.783   3.258  12.799  0.00  0.00    +0.000 A 
ATOM      3  N   UNL     1      44.993   3.940  11.936  0.00  0.00    +0.000 NA
ATOM      4  C   UNL     1      45.148   5.280  11.982  0.00  0.00    +0.000 A 
ATOM      5  N   UNL     1      44.458   6.182  11.223  0.00  0.00    +0.000 NA
ATOM      6  C   UNL     1      44.909   7.358  11.596  0.00  0.00    +0.000 A 
ATOM      7  N   UNL     1      45.872   7.251  12.564  0.00  0.00    +0.000 N 
ATOM      8  C   UNL     1      46.041   5.917  12.836  0.00  0.00    +0.000 A 
ATOM      9  C   UNL     1      46.852   5.199  13.714  0.00  0.00    +0.000 A 
ENDROOT
BRANCH   1  10
ATOM     10  O   UNL     1      47.509   3.139  14.561  0.00  0.00    +0.000 OA
BRANCH  10  11
ATOM     11  C   UNL     1      47.618   3.696  15.873  0.00  0.00    +0.000 C 
BRANCH  11  12
ATOM     12  C   UNL     1      48.362   2.689  16.753  0.00  0.00    +0.000 C 
BRANCH  12  13
ATOM     13  N   UNL     1      49.336   1.909  15.994  0.00  0.00    +0.000 NA
ATOM     14  H   UNL     1      48.950   0.985  15.807  0.00  0.00    +0.000 HD
ATOM     15  H   UNL     1      50.170   1.754  16.561  0.00  0.00    +0.000 HD
ENDBRANCH  12  13
ENDBRANCH  11  12
ENDBRANCH  10  11
ENDBRANCH   1  10
BRANCH   7  16
ATOM     16  C   UNL     1      46.538   8.357  13.233  0.00  0.00    +0.000 C 
BRANCH  16  17
ATOM     17  C   UNL     1      48.023   8.327  12.995  0.00  0.00    +0.000 A 
ATOM     18  C   UNL     1      48.557   8.218  11.707  0.00  0.00    +0.000 A 
ATOM     19  C   UNL     1      49.937   8.282  11.520  0.00  0.00    +0.000 A 
ATOM     20  C   UNL     1      50.748   8.432  12.638  0.00  0.00    +0.000 A 
ATOM     21  N   UNL     1      50.270   8.507  13.910  0.00  0.00    +0.000 NA
ATOM     22  C   UNL     1      48.925   8.459  14.050  0.00  0.00    +0.000 A 
BRANCH  20  23
ATOM     23  C   UNL     1      52.234   8.535  12.463  0.00  0.00    +0.000 C 
ATOM     24  N   UNL     1      53.007   7.900  13.399  0.00  0.00    +0.000 N 
ATOM     25  O   UNL     1      52.739   9.158  11.539  0.00  0.00    +0.000 OA
ATOM     26  H   UNL     1      52.578   7.396  14.166  0.00  0.00    +0.000 HD
ATOM     27  H   UNL     1      54.009   7.966  13.330  0.00  0.00    +0.000 HD
ENDBRANCH  20  23
ENDBRANCH  16  17
ENDBRANCH   7  16
TORSDOF 7
ENDMDL
MODEL 8
REMARK VINA RESULT:    -5.883      3.757      5.005
REMARK INTER + INTRA:          -8.715
REMARK INTER:                  -7.932
REMARK INTRA:                  -0.783
REMARK UNBOUND:                -0.596
REMARK  Name = 
REMARK  7 active torsions:
REMARK  status: ('A' for Active; 'I' for Inactive)
REMARK    1  A    between atoms: N_1  and  C_2
REMARK    2  A    between atoms: C_2  and  C_3
REMARK    3  A    between atoms: C_3  and  O_4
REMARK    4  A    between atoms: O_4  and  C_5
REMARK    5  A    between atoms: N_11  and  C_12
REMARK    6  A    between atoms: C_12  and  C_13
REMARK    7  A    between atoms: C_16  and  C_17
REMARK                            x       y       z     vdW  Elec       q    Type
REMARK                         _______ _______ _______ _____ _____    ______ ____
ROOT
ATOM      1  C   UNL     1      48.729   6.387  17.614  0.00  0.00    +0.000 A 
ATOM      2  C   UNL     1      48.693   7.692  18.104  0.00  0.00    +0.000 A 
ATOM      3  N   UNL     1      48.626   8.823  17.360  0.00  0.00    +0.000 NA
ATOM      4  C   UNL     1      48.596   8.610  16.028  0.00  0.00    +0.000 A 
ATOM      5  N   UNL     1      48.543   9.585  15.072  0.00  0.00    +0.000 NA
ATOM      6  C   UNL     1      48.545   8.941  13.928  0.00  0.00    +0.000 A 
ATOM      7  N   UNL     1      48.590   7.584  14.106  0.00  0.00    +0.000 N 
ATOM      8  C   UNL     1      48.630   7.343  15.456  0.00  0.00    +0.000 A 
ATOM      9  C   UNL     1      48.694   6.189  16.236  0.00  0.00    +0.000 A 
ENDROOT
BRANCH   1  10
ATOM     10  O   UNL     1      48.797   5.238  18.351  0.00  0.00    +0.000 OA
BRANCH  10  11
ATOM     11  C   UNL     1      49.068   4.037  17.624  0.00  0.00    +0.000 C 
BRANCH  11  12
ATOM     12  C   UNL     1      48.040   2.986  18.048  0.00  0.00    +0.000 C 
BRANCH  12  13
ATOM     13  N   UNL     1      46.705   3.281  17.534  0.00  0.00    +0.000 NA
ATOM     14  H   UNL     1      46.160   2.420  17.510  0.00  0.00    +0.000 HD
ATOM     15  H   UNL     1      46.771   3.598  16.567  0.00  0.00    +0.000 HD
ENDBRANCH  12  13
ENDBRANCH  11  12
ENDBRANCH  10  11
ENDBRANCH   1  10
BRANCH   7  16
ATOM     16  C   UNL     1      48.659   6.585  13.051  0.00  0.00    +0.000 C 
BRANCH  16  17
ATOM     17  C   UNL     1      47.324   5.927  12.831  0.00  0.00    +0.000 A 
ATOM     18  C   UNL     1      46.371   6.473  11.965  0.00  0.00    +0.000 A 
ATOM     19  C   UNL     1      45.182   5.788  11.721  0.00  0.00    +0.000 A 
ATOM     20  C   UNL     1      44.970   4.580  12.373  0.00  0.00    +0.000 A 
ATOM     21  N   UNL     1      45.856   4.033  13.249  0.00  0.00    +0.000 NA
ATOM     22  C   UNL     1      47.007   4.717  13.447  0.00  0.00    +0.000 A 
BRANCH  20  23
ATOM     23  C   UNL     1      43.714   3.807  12.105  0.00  0.00    +0.000 C 
ATOM     24  N   UNL     1      43.678   2.517  12.564  0.00  0.00    +0.000 N 
ATOM     25  O   UNL     1      42.766   4.293  11.503  0.00  0.00    +0.000 OA
ATOM     26  H   UNL     1      44.473   2.121  13.052  0.00  0.00    +0.000 HD
ATOM     27  H   UNL     1      42.861   1.957  12.383  0.00  0.00    +0.000 HD
ENDBRANCH  20  23
ENDBRANCH  16  17
ENDBRANCH   7  16
TORSDOF 7
ENDMDL
MODEL 9
REMARK VINA RESULT:    -5.824      2.320      7.391
REMARK INTER + INTRA:          -8.633
REMARK INTER:                  -7.923
REMARK INTRA:                  -0.710
REMARK UNBOUND:                -0.596
REMARK  Name = 
REMARK  7 active torsions:
REMARK  status: ('A' for Active; 'I' for Inactive)
REMARK    1  A    between atoms: N_1  and  C_2
REMARK    2  A    between atoms: C_2  and  C_3
REMARK    3  A    between atoms: C_3  and  O_4
REMARK    4  A    between atoms: O_4  and  C_5
REMARK    5  A    between atoms: N_11  and  C_12
REMARK    6  A    between atoms: C_12  and  C_13
REMARK    7  A    between atoms: C_16  and  C_17
REMARK                            x       y       z     vdW  Elec       q    Type
REMARK                         _______ _______ _______ _____ _____    ______ ____
ROOT
ATOM      1  C   UNL     1      44.447   3.950  10.905  0.00  0.00    +0.000 A 
ATOM      2  C   UNL     1      43.388   4.847  10.769  0.00  0.00    +0.000 A 
ATOM      3  N   UNL     1      43.388   6.146  11.155  0.00  0.00    +0.000 NA
ATOM      4  C   UNL     1      44.542   6.556  11.722  0.00  0.00    +0.000 A 
ATOM      5  N   UNL     1      44.783   7.812  12.204  0.00  0.00    +0.000 NA
ATOM      6  C   UNL     1      46.009   7.768  12.673  0.00  0.00    +0.000 A 
ATOM      7  N   UNL     1      46.575   6.532  12.506  0.00  0.00    +0.000 N 
ATOM      8  C   UNL     1      45.644   5.728  11.898  0.00  0.00    +0.000 A 
ATOM      9  C   UNL     1      45.630   4.394  11.490  0.00  0.00    +0.000 A 
ENDROOT
BRANCH   1  10
ATOM     10  O   UNL     1      44.462   2.638  10.521  0.00  0.00    +0.000 OA
BRANCH  10  11
ATOM     11  C   UNL     1      44.368   2.392   9.115  0.00  0.00    +0.000 C 
BRANCH  11  12
ATOM     12  C   UNL     1      45.774   2.088   8.594  0.00  0.00    +0.000 C 
BRANCH  12  13
ATOM     13  N   UNL     1      46.277   3.143   7.718  0.00  0.00    +0.000 NA
ATOM     14  H   UNL     1      47.296   3.108   7.706  0.00  0.00    +0.000 HD
ATOM     15  H   UNL     1      46.033   4.056   8.103  0.00  0.00    +0.000 HD
ENDBRANCH  12  13
ENDBRANCH  11  12
ENDBRANCH  10  11
ENDBRANCH   1  10
BRANCH   7  16
ATOM     16  C   UNL     1      47.896   6.128  12.960  0.00  0.00    +0.000 C 
BRANCH  16  17
ATOM     17  C   UNL     1      47.891   5.783  14.424  0.00  0.00    +0.000 A 
ATOM     18  C   UNL     1      47.209   4.662  14.911  0.00  0.00    +0.000 A 
ATOM     19  C   UNL     1      47.301   4.327  16.260  0.00  0.00    +0.000 A 
ATOM     20  C   UNL     1      48.058   5.140  17.093  0.00  0.00    +0.000 A 
ATOM     21  N   UNL     1      48.708   6.258  16.666  0.00  0.00    +0.000 NA
ATOM     22  C   UNL     1      48.610   6.542  15.346  0.00  0.00    +0.000 A 
BRANCH  20  23
ATOM     23  C   UNL     1      48.199   4.785  18.543  0.00  0.00    +0.000 C 
ATOM     24  N   UNL     1      47.191   5.194  19.375  0.00  0.00    +0.000 N 
ATOM     25  O   UNL     1      49.165   4.168  18.972  0.00  0.00    +0.000 OA
ATOM     26  H   UNL     1      46.401   5.714  19.011  0.00  0.00    +0.000 HD
ATOM     27  H   UNL     1      47.260   4.996  20.360  0.00  0.00    +0.000 HD
ENDBRANCH  20  23
ENDBRANCH  16  17
ENDBRANCH   7  16
TORSDOF 7
ENDMDL
