MODEL 1
REMARK VINA RESULT:    -8.849      0.000      0.000
REMARK INTER + INTRA:         -12.334
REMARK INTER:                 -11.435
REMARK INTRA:                  -0.899
REMARK UNBOUND:                -0.899
REMARK  Name = 
REMARK  5 active torsions:
REMARK  status: ('A' for Active; 'I' for Inactive)
REMARK    1  A    between atoms: C_2  and  C_3
REMARK    2  A    between atoms: C_6  and  N_7
REMARK    3  A    between atoms: N_7  and  C_8
REMARK    4  A    between atoms: C_8  and  C_9
REMARK    5  A    between atoms: C_13  and  C_14
REMARK                            x       y       z     vdW  Elec       q    Type
REMARK                         _______ _______ _______ _____ _____    ______ ____
ROOT
ATOM      1  C   UNL     1      43.945   5.056  11.324  0.00  0.00    +0.000 C 
ATOM      2  C   UNL     1      42.767   5.125  12.300  0.00  0.00    +0.000 C 
ATOM      3  C   UNL     1      42.972   6.223  11.318  0.00  0.00    +0.000 C 
ENDROOT
BRANCH   1   4
ATOM      4  C   UNL     1      45.344   5.426  11.801  0.00  0.00    +0.000 A 
ATOM      5  C   UNL     1      46.069   6.454  11.177  0.00  0.00    +0.000 A 
ATOM      6  C   UNL     1      47.219   6.984  11.753  0.00  0.00    +0.000 A 
ATOM      7  C   UNL     1      47.673   6.490  12.973  0.00  0.00    +0.000 A 
ATOM      8  C   UNL     1      47.018   5.423  13.608  0.00  0.00    +0.000 A 
ATOM      9  C   UNL     1      45.887   4.878  12.977  0.00  0.00    +0.000 A 
BRANCH   8  10
ATOM     10  C   UNL     1      47.422   4.955  14.945  0.00  0.00    +0.000 A 
ATOM     11  C   UNL     1      48.233   5.715  15.797  0.00  0.00    +0.000 A 
ATOM     12  C   UNL     1      48.644   5.191  17.023  0.00  0.00    +0.000 A 
ATOM     13  C   UNL     1      48.226   3.920  17.371  0.00  0.00    +0.000 A 
ATOM     14  F   UNL     1      48.622   3.416  18.549  0.00  0.00    +0.000 F 
ATOM     15  N   UNL     1      47.438   3.150  16.598  0.00  0.00    +0.000 NA
ATOM     16  C   UNL     1      47.067   3.683  15.409  0.00  0.00    +0.000 A 
ENDBRANCH   8  10
ENDBRANCH   1   4
BRANCH   1  17
ATOM     17  N   UNL     1      43.867   3.891  10.435  0.00  0.00    +0.000 N 
ATOM     18  H   UNL     1      43.283   3.125  10.758  0.00  0.00    +0.000 HD
BRANCH  17  22
ATOM     19  C   UNL     1      46.580   2.492   7.507  0.00  0.00    +0.000 A 
ATOM     20  C   UNL     1      46.278   3.853   7.568  0.00  0.00    +0.000 A 
ATOM     21  C   UNL     1      45.375   4.340   8.525  0.00  0.00    +0.000 A 
ATOM     22  C   UNL     1      44.809   3.489   9.474  0.00  0.00    +0.000 A 
ATOM     23  C   UNL     1      45.106   2.118   9.388  0.00  0.00    +0.000 A 
ATOM     24  C   UNL     1      45.982   1.619   8.418  0.00  0.00    +0.000 A 
BRANCH  19  26
ATOM     25  N   UNL     1      48.223   1.594   5.721  0.00  0.00    +0.000 NA
ATOM     26  C   UNL     1      47.487   1.993   6.519  0.00  0.00    +0.000 C 
ENDBRANCH  19  26
ENDBRANCH  17  22
ENDBRANCH   1  17
TORSDOF 5
ENDMDL
MODEL 2
REMARK VINA RESULT:    -7.859      3.077      4.227
REMARK INTER + INTRA:         -11.056
REMARK INTER:                 -10.382
REMARK INTRA:                  -0.674
REMARK UNBOUND:                -0.899
REMARK  Name = 
REMARK  5 active torsions:
REMARK  status: ('A' for Active; 'I' for Inactive)
REMARK    1  A    between atoms: C_2  and  C_3
REMARK    2  A    between atoms: C_6  and  N_7
REMARK    3  A    between atoms: N_7  and  C_8
REMARK    4  A    between atoms: C_8  and  C_9
REMARK    5  A    between atoms: C_13  and  C_14
REMARK                            x       y       z     vdW  Elec       q    Type
REMARK                         _______ _______ _______ _____ _____    ______ ____
ROOT
ATOM      1  C   UNL     1      43.880   4.906  11.501  0.00  0.00    +0.000 C 
ATOM      2  C   UNL     1      43.047   3.705  11.960  0.00  0.00    +0.000 C 
ATOM      3  C   UNL     1      42.580   5.083  12.269  0.00  0.00    +0.000 C 
ENDROOT
BRANCH   1   4
ATOM      4  C   UNL     1      45.118   5.313  12.290  0.00  0.00    +0.000 A 
ATOM      5  C   UNL     1      45.793   4.385  13.099  0.00  0.00    +0.000 A 
ATOM      6  C   UNL     1      47.059   4.653  13.610  0.00  0.00    +0.000 A 
ATOM      7  C   UNL     1      47.678   5.867  13.323  0.00  0.00    +0.000 A 
ATOM      8  C   UNL     1      47.021   6.852  12.570  0.00  0.00    +0.000 A 
ATOM      9  C   UNL     1      45.724   6.569  12.108  0.00  0.00    +0.000 A 
BRANCH   8  10
ATOM     10  C   UNL     1      47.697   8.099  12.172  0.00  0.00    +0.000 A 
ATOM     11  C   UNL     1      47.036   9.333  12.129  0.00  0.00    +0.000 A 
ATOM     12  C   UNL     1      47.708  10.469  11.676  0.00  0.00    +0.000 A 
ATOM     13  C   UNL     1      49.027  10.344  11.282  0.00  0.00    +0.000 A 
ATOM     14  F   UNL     1      49.671  11.436  10.845  0.00  0.00    +0.000 F 
ATOM     15  N   UNL     1      49.713   9.187  11.314  0.00  0.00    +0.000 NA
ATOM     16  C   UNL     1      49.030   8.100  11.748  0.00  0.00    +0.000 A 
ENDBRANCH   8  10
ENDBRANCH   1   4
BRANCH   1  17
ATOM     17  N   UNL     1      44.011   4.970  10.041  0.00  0.00    +0.000 N 
ATOM     18  H   UNL     1      43.168   5.215   9.530  0.00  0.00    +0.000 HD
BRANCH  17  22
ATOM     19  C   UNL     1      46.705   2.835   7.578  0.00  0.00    +0.000 A 
ATOM     20  C   UNL     1      46.771   4.228   7.620  0.00  0.00    +0.000 A 
ATOM     21  C   UNL     1      45.883   4.959   8.422  0.00  0.00    +0.000 A 
ATOM     22  C   UNL     1      44.959   4.311   9.242  0.00  0.00    +0.000 A 
ATOM     23  C   UNL     1      44.890   2.909   9.174  0.00  0.00    +0.000 A 
ATOM     24  C   UNL     1      45.752   2.173   8.354  0.00  0.00    +0.000 A 
BRANCH  19  26
ATOM     25  N   UNL     1      48.324   1.493   6.068  0.00  0.00    +0.000 NA
ATOM     26  C   UNL     1      47.600   2.091   6.744  0.00  0.00    +0.000 C 
ENDBRANCH  19  26
ENDBRANCH  17  22
ENDBRANCH   1  17
TORSDOF 5
ENDMDL
MODEL 3
REMARK VINA RESULT:    -7.756      2.234      2.808
REMARK INTER + INTRA:         -10.922
REMARK INTER:                 -10.235
REMARK INTRA:                  -0.686
REMARK UNBOUND:                -0.899
REMARK  Name = 
REMARK  5 active torsions:
REMARK  status: ('A' for Active; 'I' for Inactive)
REMARK    1  A    between atoms: C_2  and  C_3
REMARK    2  A    between atoms: C_6  and  N_7
REMARK    3  A    between atoms: N_7  and  C_8
REMARK    4  A    between atoms: C_8  and  C_9
REMARK    5  A    between atoms: C_13  and  C_14
REMARK                            x       y       z     vdW  Elec       q    Type
REMARK                         _______ _______ _______ _____ _____    ______ ____
ROOT
ATOM      1  C   UNL     1      43.899   5.114  11.434  0.00  0.00    +0.000 C 
ATOM      2  C   UNL     1      44.117   4.072  12.535  0.00  0.00    +0.000 C 
ATOM      3  C   UNL     1      42.922   4.957  12.588  0.00  0.00    +0.000 C 
ENDROOT
BRANCH   1   4
ATOM      4  C   UNL     1      44.681   6.421  11.467  0.00  0.00    +0.000 A 
ATOM      5  C   UNL     1      44.057   7.641  11.158  0.00  0.00    +0.000 A 
ATOM      6  C   UNL     1      44.668   8.860  11.436  0.00  0.00    +0.000 A 
ATOM      7  C   UNL     1      45.928   8.883  12.030  0.00  0.00    +0.000 A 
ATOM      8  C   UNL     1      46.618   7.692  12.303  0.00  0.00    +0.000 A 
ATOM      9  C   UNL     1      45.994   6.479  11.966  0.00  0.00    +0.000 A 
BRANCH   8  10
ATOM     10  C   UNL     1      47.905   7.693  13.021  0.00  0.00    +0.000 A 
ATOM     11  C   UNL     1      48.996   8.471  12.613  0.00  0.00    +0.000 A 
ATOM     12  C   UNL     1      50.212   8.377  13.289  0.00  0.00    +0.000 A 
ATOM     13  C   UNL     1      50.307   7.512  14.363  0.00  0.00    +0.000 A 
ATOM     14  F   UNL     1      51.477   7.422  15.012  0.00  0.00    +0.000 F 
ATOM     15  N   UNL     1      49.288   6.751  14.806  0.00  0.00    +0.000 NA
ATOM     16  C   UNL     1      48.125   6.855  14.121  0.00  0.00    +0.000 A 
ENDBRANCH   8  10
ENDBRANCH   1   4
BRANCH   1  17
ATOM     17  N   UNL     1      43.742   4.504  10.109  0.00  0.00    +0.000 N 
ATOM     18  H   UNL     1      42.823   4.127   9.900  0.00  0.00    +0.000 HD
BRANCH  17  22
ATOM     19  C   UNL     1      46.636   2.694   7.611  0.00  0.00    +0.000 A 
ATOM     20  C   UNL     1      46.545   4.086   7.659  0.00  0.00    +0.000 A 
ATOM     21  C   UNL     1      45.588   4.709   8.473  0.00  0.00    +0.000 A 
ATOM     22  C   UNL     1      44.751   3.959   9.298  0.00  0.00    +0.000 A 
ATOM     23  C   UNL     1      44.839   2.557   9.224  0.00  0.00    +0.000 A 
ATOM     24  C   UNL     1      45.770   1.927   8.393  0.00  0.00    +0.000 A 
BRANCH  19  26
ATOM     25  N   UNL     1      48.379   1.548   6.080  0.00  0.00    +0.000 NA
ATOM     26  C   UNL     1      47.600   2.058   6.766  0.00  0.00    +0.000 C 
ENDBRANCH  19  26
ENDBRANCH  17  22
ENDBRANCH   1  17
TORSDOF 5
ENDMDL
MODEL 4
REMARK VINA RESULT:    -7.089      3.043      7.891
REMARK INTER + INTRA:         -10.060
REMARK INTER:                  -9.026
REMARK INTRA:                  -1.034
REMARK UNBOUND:                -0.899
REMARK  Name = 
REMARK  5 active torsions:
REMARK  status: ('A' for Active; 'I' for Inactive)
REMARK    1  A    between atoms: C_2  and  C_3
REMARK    2  A    between atoms: C_6  and  N_7
REMARK    3  A    between atoms: N_7  and  C_8
REMARK    4  A    between atoms: C_8  and  C_9
REMARK    5  A    between atoms: C_13  and  C_14
REMARK                            x       y       z     vdW  Elec       q    Type
REMARK                         _______ _______ _______ _____ _____    ______ ____
ROOT
ATOM      1  C   UNL     1      46.453   7.093  12.719  0.00  0.00    +0.000 C 
ATOM      2  C   UNL     1      46.749   8.437  12.048  0.00  0.00    +0.000 C 
ATOM      3  C   UNL     1      45.835   8.388  13.220  0.00  0.00    +0.000 C 
ENDROOT
BRANCH   1   4
ATOM      4  C   UNL     1      45.447   6.139  12.087  0.00  0.00    +0.000 A 
ATOM      5  C   UNL     1      44.070   6.289  12.318  0.00  0.00    +0.000 A 
ATOM      6  C   UNL     1      43.127   5.609  11.552  0.00  0.00    +0.000 A 
ATOM      7  C   UNL     1      43.548   4.755  10.535  0.00  0.00    +0.000 A 
ATOM      8  C   UNL     1      44.912   4.525  10.304  0.00  0.00    +0.000 A 
ATOM      9  C   UNL     1      45.839   5.190  11.126  0.00  0.00    +0.000 A 
BRANCH   8  10
ATOM     10  C   UNL     1      45.377   3.707   9.171  0.00  0.00    +0.000 A 
ATOM     11  C   UNL     1      45.416   2.307   9.218  0.00  0.00    +0.000 A 
ATOM     12  C   UNL     1      45.933   1.586   8.141  0.00  0.00    +0.000 A 
ATOM     13  C   UNL     1      46.392   2.283   7.039  0.00  0.00    +0.000 A 
ATOM     14  F   UNL     1      46.890   1.590   6.005  0.00  0.00    +0.000 F 
ATOM     15  N   UNL     1      46.368   3.625   6.935  0.00  0.00    +0.000 NA
ATOM     16  C   UNL     1      45.871   4.296   8.002  0.00  0.00    +0.000 A 
ENDBRANCH   8  10
ENDBRANCH   1   4
BRANCH   1  17
ATOM     17  N   UNL     1      47.659   6.466  13.272  0.00  0.00    +0.000 N 
ATOM     18  H   UNL     1      48.247   5.973  12.606  0.00  0.00    +0.000 HD
BRANCH  17  22
ATOM     19  C   UNL     1      48.308   5.009  17.189  0.00  0.00    +0.000 A 
ATOM     20  C   UNL     1      48.931   6.190  16.784  0.00  0.00    +0.000 A 
ATOM     21  C   UNL     1      48.739   6.689  15.487  0.00  0.00    +0.000 A 
ATOM     22  C   UNL     1      47.873   6.054  14.597  0.00  0.00    +0.000 A 
ATOM     23  C   UNL     1      47.268   4.854  15.011  0.00  0.00    +0.000 A 
ATOM     24  C   UNL     1      47.478   4.334  16.292  0.00  0.00    +0.000 A 
BRANCH  19  26
ATOM     25  N   UNL     1      48.695   4.074  19.571  0.00  0.00    +0.000 NA
ATOM     26  C   UNL     1      48.520   4.491  18.506  0.00  0.00    +0.000 C 
ENDBRANCH  19  26
ENDBRANCH  17  22
ENDBRANCH   1  17
TORSDOF 5
ENDMDL
MODEL 5
REMARK VINA RESULT:    -7.046      3.442      7.491
REMARK INTER + INTRA:         -10.004
REMARK INTER:                  -9.087
REMARK INTRA:                  -0.917
REMARK UNBOUND:                -0.899
REMARK  Name = 
REMARK  5 active torsions:
REMARK  status: ('A' for Active; 'I' for Inactive)
REMARK    1  A    between atoms: C_2  and  C_3
REMARK    2  A    between atoms: C_6  and  N_7
REMARK    3  A    between atoms: N_7  and  C_8
REMARK    4  A    between atoms: C_8  and  C_9
REMARK    5  A    between atoms: C_13  and  C_14
REMARK                            x       y       z     vdW  Elec       q    Type
REMARK                         _______ _______ _______ _____ _____    ______ ____
ROOT
ATOM      1  C   UNL     1      44.022   5.571  11.567  0.00  0.00    +0.000 C 
ATOM      2  C   UNL     1      42.623   6.184  11.453  0.00  0.00    +0.000 C 
ATOM      3  C   UNL     1      43.061   5.592  12.745  0.00  0.00    +0.000 C 
ENDROOT
BRANCH   1   4
ATOM      4  C   UNL     1      44.283   4.176  11.013  0.00  0.00    +0.000 A 
ATOM      5  C   UNL     1      43.494   3.085  11.411  0.00  0.00    +0.000 A 
ATOM      6  C   UNL     1      43.536   1.871  10.730  0.00  0.00    +0.000 A 
ATOM      7  C   UNL     1      44.379   1.724   9.632  0.00  0.00    +0.000 A 
ATOM      8  C   UNL     1      45.231   2.764   9.231  0.00  0.00    +0.000 A 
ATOM      9  C   UNL     1      45.199   3.961   9.969  0.00  0.00    +0.000 A 
BRANCH   8  10
ATOM     10  C   UNL     1      46.054   2.663   8.013  0.00  0.00    +0.000 A 
ATOM     11  C   UNL     1      46.132   3.694   7.069  0.00  0.00    +0.000 A 
ATOM     12  C   UNL     1      46.870   3.516   5.898  0.00  0.00    +0.000 A 
ATOM     13  C   UNL     1      47.520   2.311   5.705  0.00  0.00    +0.000 A 
ATOM     14  F   UNL     1      48.228   2.139   4.579  0.00  0.00    +0.000 F 
ATOM     15  N   UNL     1      47.489   1.292   6.583  0.00  0.00    +0.000 NA
ATOM     16  C   UNL     1      46.754   1.492   7.703  0.00  0.00    +0.000 A 
ENDBRANCH   8  10
ENDBRANCH   1   4
BRANCH   1  17
ATOM     17  N   UNL     1      45.084   6.555  11.330  0.00  0.00    +0.000 N 
ATOM     18  H   UNL     1      45.228   6.827  10.362  0.00  0.00    +0.000 HD
BRANCH  17  22
ATOM     19  C   UNL     1      48.517   7.120  13.734  0.00  0.00    +0.000 A 
ATOM     20  C   UNL     1      48.079   8.157  12.910  0.00  0.00    +0.000 A 
ATOM     21  C   UNL     1      46.948   7.991  12.097  0.00  0.00    +0.000 A 
ATOM     22  C   UNL     1      46.201   6.814  12.140  0.00  0.00    +0.000 A 
ATOM     23  C   UNL     1      46.666   5.770  12.959  0.00  0.00    +0.000 A 
ATOM     24  C   UNL     1      47.810   5.916  13.750  0.00  0.00    +0.000 A 
BRANCH  19  26
ATOM     25  N   UNL     1      50.625   7.420  15.206  0.00  0.00    +0.000 NA
ATOM     26  C   UNL     1      49.682   7.284  14.550  0.00  0.00    +0.000 C 
ENDBRANCH  19  26
ENDBRANCH  17  22
ENDBRANCH   1  17
TORSDOF 5
ENDMDL
MODEL 6
REMARK VINA RESULT:    -6.969      3.195      7.978
REMARK INTER + INTRA:          -9.906
REMARK INTER:                  -8.881
REMARK INTRA:                  -1.025
REMARK UNBOUND:                -0.899
REMARK  Name = 
REMARK  5 active torsions:
REMARK  status: ('A' for Active; 'I' for Inactive)
REMARK    1  A    between atoms: C_2  and  C_3
REMARK    2  A    between atoms: C_6  and  N_7
REMARK    3  A    between atoms: N_7  and  C_8
REMARK    4  A    between atoms: C_8  and  C_9
REMARK    5  A    between atoms: C_13  and  C_14
REMARK                            x       y       z     vdW  Elec       q    Type
REMARK                         _______ _______ _______ _____ _____    ______ ____
ROOT
ATOM      1  C   UNL     1      45.169   5.585  12.214  0.00  0.00    +0.000 C 
ATOM      2  C   UNL     1      44.435   6.848  11.752  0.00  0.00    +0.000 C 
ATOM      3  C   UNL     1      43.923   6.089  12.924  0.00  0.00    +0.000 C 
ENDROOT
BRANCH   1   4
ATOM      4  C   UNL     1      44.960   4.274  11.466  0.00  0.00    +0.000 A 
ATOM      5  C   UNL     1      43.867   3.444  11.759  0.00  0.00    +0.000 A 
ATOM      6  C   UNL     1      43.508   2.392  10.922  0.00  0.00    +0.000 A 
ATOM      7  C   UNL     1      44.246   2.145   9.767  0.00  0.00    +0.000 A 
ATOM      8  C   UNL     1      45.383   2.908   9.460  0.00  0.00    +0.000 A 
ATOM      9  C   UNL     1      45.747   3.933  10.351  0.00  0.00    +0.000 A 
BRANCH   8  10
ATOM     10  C   UNL     1      46.116   2.728   8.195  0.00  0.00    +0.000 A 
ATOM     11  C   UNL     1      46.242   3.749   7.245  0.00  0.00    +0.000 A 
ATOM     12  C   UNL     1      46.886   3.501   6.033  0.00  0.00    +0.000 A 
ATOM     13  C   UNL     1      47.395   2.237   5.802  0.00  0.00    +0.000 A 
ATOM     14  F   UNL     1      48.012   1.997   4.636  0.00  0.00    +0.000 F 
ATOM     15  N   UNL     1      47.312   1.222   6.682  0.00  0.00    +0.000 NA
ATOM     16  C   UNL     1      46.671   1.491   7.845  0.00  0.00    +0.000 A 
ENDBRANCH   8  10
ENDBRANCH   1   4
BRANCH   1  17
ATOM     17  N   UNL     1      46.547   5.861  12.634  0.00  0.00    +0.000 N 
ATOM     18  H   UNL     1      47.228   5.958  11.886  0.00  0.00    +0.000 HD
BRANCH  17  22
ATOM     19  C   UNL     1      48.321   5.164  16.409  0.00  0.00    +0.000 A 
ATOM     20  C   UNL     1      47.391   4.252  15.910  0.00  0.00    +0.000 A 
ATOM     21  C   UNL     1      46.782   4.466  14.664  0.00  0.00    +0.000 A 
ATOM     22  C   UNL     1      47.138   5.556  13.871  0.00  0.00    +0.000 A 
ATOM     23  C   UNL     1      48.062   6.477  14.395  0.00  0.00    +0.000 A 
ATOM     24  C   UNL     1      48.651   6.288  15.649  0.00  0.00    +0.000 A 
BRANCH  19  26
ATOM     25  N   UNL     1      49.421   4.783  18.721  0.00  0.00    +0.000 NA
ATOM     26  C   UNL     1      48.928   4.955  17.689  0.00  0.00    +0.000 C 
ENDBRANCH  19  26
ENDBRANCH  17  22
ENDBRANCH   1  17
TORSDOF 5
ENDMDL
MODEL 7
REMARK VINA RESULT:    -6.826      3.713      7.388
REMARK INTER + INTRA:          -9.720
REMARK INTER:                  -8.537
REMARK INTRA:                  -1.183
REMARK UNBOUND:                -0.899
REMARK  Name = 
REMARK  5 active torsions:
REMARK  status: ('A' for Active; 'I' for Inactive)
REMARK    1  A    between atoms: C_2  and  C_3
REMARK    2  A    between atoms: C_6  and  N_7
REMARK    3  A    between atoms: N_7  and  C_8
REMARK    4  A    between atoms: C_8  and  C_9
REMARK    5  A    between atoms: C_13  and  C_14
REMARK                            x       y       z     vdW  Elec       q    Type
REMARK                         _______ _______ _______ _____ _____    ______ ____
ROOT
ATOM      1  C   UNL     1      46.281   4.932  13.743  0.00  0.00    +0.000 C 
ATOM      2  C   UNL     1      46.315   4.080  15.015  0.00  0.00    +0.000 C 
ATOM      3  C   UNL     1      47.335   3.858  13.955  0.00  0.00    +0.000 C 
ENDROOT
BRANCH   1   4
ATOM      4  C   UNL     1      45.283   4.602  12.640  0.00  0.00    +0.000 A 
ATOM      5  C   UNL     1      43.965   5.083  12.694  0.00  0.00    +0.000 A 
ATOM      6  C   UNL     1      43.123   5.023  11.587  0.00  0.00    +0.000 A 
ATOM      7  C   UNL     1      43.587   4.473  10.395  0.00  0.00    +0.000 A 
ATOM      8  C   UNL     1      44.876   3.925  10.307  0.00  0.00    +0.000 A 
ATOM      9  C   UNL     1      45.684   3.958  11.456  0.00  0.00    +0.000 A 
BRANCH   8  10
ATOM     10  C   UNL     1      45.419   3.431   9.029  0.00  0.00    +0.000 A 
ATOM     11  C   UNL     1      45.617   2.068   8.771  0.00  0.00    +0.000 A 
ATOM     12  C   UNL     1      46.201   1.663   7.571  0.00  0.00    +0.000 A 
ATOM     13  C   UNL     1      46.568   2.630   6.654  0.00  0.00    +0.000 A 
ATOM     14  F   UNL     1      47.132   2.240   5.502  0.00  0.00    +0.000 F 
ATOM     15  N   UNL     1      46.391   3.951   6.845  0.00  0.00    +0.000 NA
ATOM     16  C   UNL     1      45.833   4.313   8.025  0.00  0.00    +0.000 A 
ENDBRANCH   8  10
ENDBRANCH   1   4
BRANCH   1  17
ATOM     17  N   UNL     1      46.466   6.361  14.022  0.00  0.00    +0.000 N 
ATOM     18  H   UNL     1      45.777   6.786  14.636  0.00  0.00    +0.000 HD
BRANCH  17  22
ATOM     19  C   UNL     1      48.446   9.357  11.787  0.00  0.00    +0.000 A 
ATOM     20  C   UNL     1      49.017   8.087  11.890  0.00  0.00    +0.000 A 
ATOM     21  C   UNL     1      48.384   7.080  12.633  0.00  0.00    +0.000 A 
ATOM     22  C   UNL     1      47.143   7.302  13.230  0.00  0.00    +0.000 A 
ATOM     23  C   UNL     1      46.590   8.591  13.135  0.00  0.00    +0.000 A 
ATOM     24  C   UNL     1      47.228   9.610  12.422  0.00  0.00    +0.000 A 
BRANCH  19  26
ATOM     25  N   UNL     1      49.628  11.227  10.445  0.00  0.00    +0.000 NA
ATOM     26  C   UNL     1      49.102  10.390  11.045  0.00  0.00    +0.000 C 
ENDBRANCH  19  26
ENDBRANCH  17  22
ENDBRANCH   1  17
TORSDOF 5
ENDMDL
MODEL 8
REMARK VINA RESULT:    -6.451      3.283      8.283
REMARK INTER + INTRA:          -9.236
REMARK INTER:                  -8.118
REMARK INTRA:                  -1.118
REMARK UNBOUND:                -0.899
REMARK  Name = 
REMARK  5 active torsions:
REMARK  status: ('A' for Active; 'I' for Inactive)
REMARK    1  A    between atoms: C_2  and  C_3
REMARK    2  A    between atoms: C_6  and  N_7
REMARK    3  A    between atoms: N_7  and  C_8
REMARK    4  A    between atoms: C_8  and  C_9
REMARK    5  A    between atoms: C_13  and  C_14
REMARK                            x       y       z     vdW  Elec       q    Type
REMARK                         _______ _______ _______ _____ _____    ______ ____
ROOT
ATOM      1  C   UNL     1      49.092   8.066  12.779  0.00  0.00    +0.000 C 
ATOM      2  C   UNL     1      50.023   8.037  11.563  0.00  0.00    +0.000 C 
ATOM      3  C   UNL     1      49.565   9.344  12.105  0.00  0.00    +0.000 C 
ENDROOT
BRANCH   1   4
ATOM      4  C   UNL     1      47.605   7.791  12.598  0.00  0.00    +0.000 A 
ATOM      5  C   UNL     1      46.652   8.791  12.851  0.00  0.00    +0.000 A 
ATOM      6  C   UNL     1      45.329   8.653  12.443  0.00  0.00    +0.000 A 
ATOM      7  C   UNL     1      44.928   7.501  11.773  0.00  0.00    +0.000 A 
ATOM      8  C   UNL     1      45.827   6.447  11.549  0.00  0.00    +0.000 A 
ATOM      9  C   UNL     1      47.145   6.597  12.015  0.00  0.00    +0.000 A 
BRANCH   8  10
ATOM     10  C   UNL     1      45.449   5.265  10.755  0.00  0.00    +0.000 A 
ATOM     11  C   UNL     1      45.644   5.194   9.369  0.00  0.00    +0.000 A 
ATOM     12  C   UNL     1      45.202   4.079   8.658  0.00  0.00    +0.000 A 
ATOM     13  C   UNL     1      44.581   3.057   9.350  0.00  0.00    +0.000 A 
ATOM     14  F   UNL     1      44.155   1.985   8.666  0.00  0.00    +0.000 F 
ATOM     15  N   UNL     1      44.378   3.066  10.681  0.00  0.00    +0.000 NA
ATOM     16  C   UNL     1      44.808   4.168  11.341  0.00  0.00    +0.000 A 
ENDBRANCH   8  10
ENDBRANCH   1   4
BRANCH   1  17
ATOM     17  N   UNL     1      49.707   7.464  13.968  0.00  0.00    +0.000 N 
ATOM     18  H   UNL     1      50.345   6.693  13.795  0.00  0.00    +0.000 HD
BRANCH  17  22
ATOM     19  C   UNL     1      48.351   7.324  17.971  0.00  0.00    +0.000 A 
ATOM     20  C   UNL     1      48.495   8.559  17.339  0.00  0.00    +0.000 A 
ATOM     21  C   UNL     1      48.951   8.632  16.014  0.00  0.00    +0.000 A 
ATOM     22  C   UNL     1      49.210   7.475  15.281  0.00  0.00    +0.000 A 
ATOM     23  C   UNL     1      49.080   6.238  15.937  0.00  0.00    +0.000 A 
ATOM     24  C   UNL     1      48.655   6.157  17.267  0.00  0.00    +0.000 A 
BRANCH  19  26
ATOM     25  N   UNL     1      47.542   7.188  20.426  0.00  0.00    +0.000 NA
ATOM     26  C   UNL     1      47.904   7.251  19.329  0.00  0.00    +0.000 C 
ENDBRANCH  19  26
ENDBRANCH  17  22
ENDBRANCH   1  17
TORSDOF 5
ENDMDL
MODEL 9
REMARK VINA RESULT:    -6.166      2.884      4.756
REMARK INTER + INTRA:          -8.867
REMARK INTER:                  -7.667
REMARK INTRA:                  -1.200
REMARK UNBOUND:                -0.899
REMARK  Name = 
REMARK  5 active torsions:
REMARK  status: ('A' for Active; 'I' for Inactive)
REMARK    1  A    between atoms: C_2  and  C_3
REMARK    2  A    between atoms: C_6  and  N_7
REMARK    3  A    between atoms: N_7  and  C_8
REMARK    4  A    between atoms: C_8  and  C_9
REMARK    5  A    between atoms: C_13  and  C_14
REMARK                            x       y       z     vdW  Elec       q    Type
REMARK                         _______ _______ _______ _____ _____    ______ ____
ROOT
ATOM      1  C   UNL     1      48.288   8.023  12.466  0.00  0.00    +0.000 C 
ATOM      2  C   UNL     1      49.109   8.863  11.482  0.00  0.00    +0.000 C 
ATOM      3  C   UNL     1      49.416   7.417  11.646  0.00  0.00    +0.000 C 
ENDROOT
BRANCH   1   4
ATOM      4  C   UNL     1      48.587   8.100  13.958  0.00  0.00    +0.000 A 
ATOM      5  C   UNL     1      48.588   9.334  14.629  0.00  0.00    +0.000 A 
ATOM      6  C   UNL     1      48.593   9.404  16.019  0.00  0.00    +0.000 A 
ATOM      7  C   UNL     1      48.600   8.232  16.770  0.00  0.00    +0.000 A 
ATOM      8  C   UNL     1      48.660   6.976  16.149  0.00  0.00    +0.000 A 
ATOM      9  C   UNL     1      48.702   6.940  14.744  0.00  0.00    +0.000 A 
BRANCH   8  10
ATOM     10  C   UNL     1      48.567   5.726  16.922  0.00  0.00    +0.000 A 
ATOM     11  C   UNL     1      47.725   4.670  16.549  0.00  0.00    +0.000 A 
ATOM     12  C   UNL     1      47.624   3.538  17.359  0.00  0.00    +0.000 A 
ATOM     13  C   UNL     1      48.373   3.486  18.519  0.00  0.00    +0.000 A 
ATOM     14  F   UNL     1      48.274   2.399  19.298  0.00  0.00    +0.000 F 
ATOM     15  N   UNL     1      49.206   4.465  18.920  0.00  0.00    +0.000 NA
ATOM     16  C   UNL     1      49.273   5.556  18.118  0.00  0.00    +0.000 A 
ENDBRANCH   8  10
ENDBRANCH   1   4
BRANCH   1  17
ATOM     17  N   UNL     1      46.866   7.974  12.108  0.00  0.00    +0.000 N 
ATOM     18  H   UNL     1      46.348   8.839  12.228  0.00  0.00    +0.000 HD
BRANCH  17  22
ATOM     19  C   UNL     1      44.500   4.478  11.849  0.00  0.00    +0.000 A 
ATOM     20  C   UNL     1      44.703   5.079  13.092  0.00  0.00    +0.000 A 
ATOM     21  C   UNL     1      45.491   6.234  13.205  0.00  0.00    +0.000 A 
ATOM     22  C   UNL     1      46.035   6.843  12.075  0.00  0.00    +0.000 A 
ATOM     23  C   UNL     1      45.839   6.216  10.832  0.00  0.00    +0.000 A 
ATOM     24  C   UNL     1      45.080   5.047  10.714  0.00  0.00    +0.000 A 
BRANCH  19  26
ATOM     25  N   UNL     1      43.072   2.330  11.643  0.00  0.00    +0.000 NA
ATOM     26  C   UNL     1      43.711   3.289  11.738  0.00  0.00    +0.000 C 
ENDBRANCH  19  26
ENDBRANCH  17  22
ENDBRANCH   1  17
TORSDOF 5
ENDMDL
