MODEL 1
REMARK VINA RESULT:    -7.792      0.000      0.000
REMARK INTER + INTRA:         -10.875
REMARK INTER:                 -10.297
REMARK INTRA:                  -0.578
REMARK UNBOUND:                -0.578
REMARK  Name = 
REMARK  6 active torsions:
REMARK  status: ('A' for Active; 'I' for Inactive)
REMARK    1  A    between atoms: C_2  and  C_18
REMARK    2  A    between atoms: N_3  and  C_4
REMARK    3  A    between atoms: C_4  and  C_5
REMARK    4  A    between atoms: C_8  and  C_9
REMARK    5  A    between atoms: C_9  and  N_10
REMARK    6  A    between atoms: C_13  and  O_14
REMARK                            x       y       z     vdW  Elec       q    Type
REMARK                         _______ _______ _______ _____ _____    ______ ____
ROOT
ATOM      1  O   UNL     1      46.927   3.255  13.984  0.00  0.00    +0.000 OA
ATOM      2  C   UNL     1      46.670   4.399  14.343  0.00  0.00    +0.000 C 
ATOM      3  N   UNL     1      45.555   5.077  13.897  0.00  0.00    +0.000 N 
ATOM      4  H   UNL     1      45.259   5.913  14.387  0.00  0.00    +0.000 HD
ENDROOT
BRANCH   2   5
ATOM      5  C   UNL     1      47.559   5.145  15.237  0.00  0.00    +0.000 A 
ATOM      6  C   UNL     1      48.323   6.193  14.744  0.00  0.00    +0.000 A 
ATOM      7  S   UNL     1      49.249   6.983  15.940  0.00  0.00    +0.000 S 
ATOM      8  C   UNL     1      48.695   5.921  17.150  0.00  0.00    +0.000 A 
ATOM      9  N   UNL     1      49.109   6.048  18.440  0.00  0.00    +0.000 NA
ATOM     10  C   UNL     1      48.628   5.159  19.244  0.00  0.00    +0.000 A 
ATOM     11  N   UNL     1      47.779   4.147  18.875  0.00  0.00    +0.000 N 
ATOM     12  C   UNL     1      47.334   3.983  17.587  0.00  0.00    +0.000 A 
ATOM     13  O   UNL     1      46.575   3.067  17.289  0.00  0.00    +0.000 OA
ATOM     14  C   UNL     1      47.825   4.974  16.646  0.00  0.00    +0.000 A 
ATOM     15  H   UNL     1      47.443   3.479  19.550  0.00  0.00    +0.000 HD
ENDBRANCH   2   5
BRANCH   3  16
ATOM     16  C   UNL     1      44.544   4.386  13.155  0.00  0.00    +0.000 C 
BRANCH  16  17
ATOM     17  C   UNL     1      44.738   4.493  11.667  0.00  0.00    +0.000 A 
ATOM     18  C   UNL     1      45.392   5.601  11.115  0.00  0.00    +0.000 A 
ATOM     19  C   UNL     1      45.788   5.590   9.776  0.00  0.00    +0.000 A 
ATOM     20  C   UNL     1      45.563   4.461   8.974  0.00  0.00    +0.000 A 
ATOM     21  C   UNL     1      44.754   3.435   9.482  0.00  0.00    +0.000 A 
ATOM     22  C   UNL     1      44.340   3.453  10.817  0.00  0.00    +0.000 A 
BRANCH  20  23
ATOM     23  C   UNL     1      46.217   4.304   7.609  0.00  0.00    +0.000 C 
BRANCH  23  24
ATOM     24  N   UNL     1      46.073   2.957   7.029  0.00  0.00    +0.000 NA
ATOM     25  C   UNL     1      46.140   2.937   5.559  0.00  0.00    +0.000 C 
ATOM     26  C   UNL     1      47.461   2.313   5.135  0.00  0.00    +0.000 C 
ATOM     27  C   UNL     1      48.164   1.922   6.419  0.00  0.00    +0.000 C 
ATOM     28  C   UNL     1      47.085   2.001   7.500  0.00  0.00    +0.000 C 
BRANCH  27  29
ATOM     29  O   UNL     1      49.258   2.805   6.658  0.00  0.00    +0.000 OA
ATOM     30  H   UNL     1      48.912   3.645   6.998  0.00  0.00    +0.000 HD
ENDBRANCH  27  29
ENDBRANCH  23  24
ENDBRANCH  20  23
ENDBRANCH  16  17
ENDBRANCH   3  16
TORSDOF 6
ENDMDL
MODEL 2
REMARK VINA RESULT:    -7.303      3.536      4.722
REMARK INTER + INTRA:         -10.229
REMARK INTER:                  -9.054
REMARK INTRA:                  -1.175
REMARK UNBOUND:                -0.578
REMARK  Name = 
REMARK  6 active torsions:
REMARK  status: ('A' for Active; 'I' for Inactive)
REMARK    1  A    between atoms: C_2  and  C_18
REMARK    2  A    between atoms: N_3  and  C_4
REMARK    3  A    between atoms: C_4  and  C_5
REMARK    4  A    between atoms: C_8  and  C_9
REMARK    5  A    between atoms: C_9  and  N_10
REMARK    6  A    between atoms: C_13  and  O_14
REMARK                            x       y       z     vdW  Elec       q    Type
REMARK                         _______ _______ _______ _____ _____    ______ ____
ROOT
ATOM      1  O   UNL     1      50.447   7.579  15.052  0.00  0.00    +0.000 OA
ATOM      2  C   UNL     1      49.461   7.365  15.748  0.00  0.00    +0.000 C 
ATOM      3  N   UNL     1      48.294   8.088  15.613  0.00  0.00    +0.000 N 
ATOM      4  H   UNL     1      47.444   7.733  16.034  0.00  0.00    +0.000 HD
ENDROOT
BRANCH   2   5
ATOM      5  C   UNL     1      49.470   6.355  16.809  0.00  0.00    +0.000 A 
ATOM      6  C   UNL     1      50.323   6.491  17.894  0.00  0.00    +0.000 A 
ATOM      7  S   UNL     1      50.150   5.254  19.056  0.00  0.00    +0.000 S 
ATOM      8  C   UNL     1      48.960   4.469  18.126  0.00  0.00    +0.000 A 
ATOM      9  N   UNL     1      48.375   3.319  18.560  0.00  0.00    +0.000 NA
ATOM     10  C   UNL     1      47.509   2.821  17.741  0.00  0.00    +0.000 A 
ATOM     11  N   UNL     1      47.181   3.361  16.524  0.00  0.00    +0.000 N 
ATOM     12  C   UNL     1      47.743   4.520  16.049  0.00  0.00    +0.000 A 
ATOM     13  O   UNL     1      47.428   4.977  14.955  0.00  0.00    +0.000 OA
ATOM     14  C   UNL     1      48.707   5.136  16.944  0.00  0.00    +0.000 A 
ATOM     15  H   UNL     1      46.500   2.920  15.927  0.00  0.00    +0.000 HD
ENDBRANCH   2   5
BRANCH   3  16
ATOM     16  C   UNL     1      48.127   8.981  14.506  0.00  0.00    +0.000 C 
BRANCH  16  17
ATOM     17  C   UNL     1      47.363   8.362  13.367  0.00  0.00    +0.000 A 
ATOM     18  C   UNL     1      47.965   7.394  12.555  0.00  0.00    +0.000 A 
ATOM     19  C   UNL     1      47.194   6.647  11.662  0.00  0.00    +0.000 A 
ATOM     20  C   UNL     1      45.806   6.833  11.587  0.00  0.00    +0.000 A 
ATOM     21  C   UNL     1      45.243   7.921  12.270  0.00  0.00    +0.000 A 
ATOM     22  C   UNL     1      46.017   8.683  13.150  0.00  0.00    +0.000 A 
BRANCH  20  23
ATOM     23  C   UNL     1      44.904   5.861  10.840  0.00  0.00    +0.000 C 
BRANCH  23  24
ATOM     24  N   UNL     1      43.786   5.341  11.647  0.00  0.00    +0.000 NA
ATOM     25  C   UNL     1      43.057   4.237  11.004  0.00  0.00    +0.000 C 
ATOM     26  C   UNL     1      43.384   2.941  11.732  0.00  0.00    +0.000 C 
ATOM     27  C   UNL     1      44.311   3.328  12.867  0.00  0.00    +0.000 C 
ATOM     28  C   UNL     1      44.195   4.849  12.970  0.00  0.00    +0.000 C 
BRANCH  27  29
ATOM     29  O   UNL     1      45.636   2.887  12.578  0.00  0.00    +0.000 OA
ATOM     30  H   UNL     1      45.704   2.711  11.626  0.00  0.00    +0.000 HD
ENDBRANCH  27  29
ENDBRANCH  23  24
ENDBRANCH  20  23
ENDBRANCH  16  17
ENDBRANCH   3  16
TORSDOF 6
ENDMDL
MODEL 3
REMARK VINA RESULT:    -7.036      3.992      5.901
REMARK INTER + INTRA:          -9.877
REMARK INTER:                  -8.927
REMARK INTRA:                  -0.950
REMARK UNBOUND:                -0.578
REMARK  Name = 
REMARK  6 active torsions:
REMARK  status: ('A' for Active; 'I' for Inactive)
REMARK    1  A    between atoms: C_2  and  C_18
REMARK    2  A    between atoms: N_3  and  C_4
REMARK    3  A    between atoms: C_4  and  C_5
REMARK    4  A    between atoms: C_8  and  C_9
REMARK    5  A    between atoms: C_9  and  N_10
REMARK    6  A    between atoms: C_13  and  O_14
REMARK                            x       y       z     vdW  Elec       q    Type
REMARK                         _______ _______ _______ _____ _____    ______ ____
ROOT
ATOM      1  O   UNL     1      49.817   5.882  18.855  0.00  0.00    +0.000 OA
ATOM      2  C   UNL     1      50.579   5.429  18.008  0.00  0.00    +0.000 C 
ATOM      3  N   UNL     1      50.429   5.700  16.663  0.00  0.00    +0.000 N 
ATOM      4  H   UNL     1      51.198   5.504  16.034  0.00  0.00    +0.000 HD
ENDROOT
BRANCH   2   5
ATOM      5  C   UNL     1      51.677   4.526  18.362  0.00  0.00    +0.000 A 
ATOM      6  C   UNL     1      52.760   4.998  19.090  0.00  0.00    +0.000 A 
ATOM      7  S   UNL     1      53.908   3.792  19.462  0.00  0.00    +0.000 S 
ATOM      8  C   UNL     1      53.019   2.607  18.621  0.00  0.00    +0.000 A 
ATOM      9  N   UNL     1      53.456   1.320  18.551  0.00  0.00    +0.000 NA
ATOM     10  C   UNL     1      52.695   0.537  17.860  0.00  0.00    +0.000 A 
ATOM     11  N   UNL     1      51.542   0.925  17.225  0.00  0.00    +0.000 N 
ATOM     12  C   UNL     1      51.064   2.210  17.273  0.00  0.00    +0.000 A 
ATOM     13  O   UNL     1      50.030   2.525  16.694  0.00  0.00    +0.000 OA
ATOM     14  C   UNL     1      51.870   3.128  18.059  0.00  0.00    +0.000 A 
ATOM     15  H   UNL     1      50.995   0.265  16.695  0.00  0.00    +0.000 HD
ENDBRANCH   2   5
BRANCH   3  16
ATOM     16  C   UNL     1      49.494   6.694  16.232  0.00  0.00    +0.000 C 
BRANCH  16  17
ATOM     17  C   UNL     1      48.368   6.120  15.415  0.00  0.00    +0.000 A 
ATOM     18  C   UNL     1      48.051   6.664  14.165  0.00  0.00    +0.000 A 
ATOM     19  C   UNL     1      47.181   5.992  13.305  0.00  0.00    +0.000 A 
ATOM     20  C   UNL     1      46.636   4.751  13.666  0.00  0.00    +0.000 A 
ATOM     21  C   UNL     1      46.816   4.305  14.983  0.00  0.00    +0.000 A 
ATOM     22  C   UNL     1      47.672   4.987  15.853  0.00  0.00    +0.000 A 
BRANCH  20  23
ATOM     23  C   UNL     1      45.915   3.867  12.659  0.00  0.00    +0.000 C 
BRANCH  23  24
ATOM     24  N   UNL     1      44.471   3.723  12.915  0.00  0.00    +0.000 NA
ATOM     25  C   UNL     1      43.802   4.992  13.243  0.00  0.00    +0.000 C 
ATOM     26  C   UNL     1      42.930   5.407  12.067  0.00  0.00    +0.000 C 
ATOM     27  C   UNL     1      43.078   4.307  11.035  0.00  0.00    +0.000 C 
ATOM     28  C   UNL     1      43.727   3.145  11.788  0.00  0.00    +0.000 C 
BRANCH  27  29
ATOM     29  O   UNL     1      43.866   4.774   9.942  0.00  0.00    +0.000 OA
ATOM     30  H   UNL     1      44.302   4.013   9.526  0.00  0.00    +0.000 HD
ENDBRANCH  27  29
ENDBRANCH  23  24
ENDBRANCH  20  23
ENDBRANCH  16  17
ENDBRANCH   3  16
TORSDOF 6
ENDMDL
MODEL 4
REMARK VINA RESULT:    -6.992      2.198      3.372
REMARK INTER + INTRA:          -9.819
REMARK INTER:                  -8.830
REMARK INTRA:                  -0.989
REMARK UNBOUND:                -0.578
REMARK  Name = 
REMARK  6 active torsions:
REMARK  status: ('A' for Active; 'I' for Inactive)
REMARK    1  A    between atoms: C_2  and  C_18
REMARK    2  A    between atoms: N_3  and  C_4
REMARK    3  A    between atoms: C_4  and  C_5
REMARK    4  A    between atoms: C_8  and  C_9
REMARK    5  A    between atoms: C_9  and  N_10
REMARK    6  A    between atoms: C_13  and  O_14
REMARK                            x       y       z     vdW  Elec       q    Type
REMARK                         _______ _______ _______ _____ _____    ______ ____
ROOT
ATOM      1  O   UNL     1      46.590   3.851  13.739  0.00  0.00    +0.000 OA
ATOM      2  C   UNL     1      46.529   5.068  13.873  0.00  0.00    +0.000 C 
ATOM      3  N   UNL     1      45.395   5.788  13.561  0.00  0.00    +0.000 N 
ATOM      4  H   UNL     1      45.307   6.739  13.900  0.00  0.00    +0.000 HD
ENDROOT
BRANCH   2   5
ATOM      5  C   UNL     1      47.680   5.852  14.330  0.00  0.00    +0.000 A 
ATOM      6  C   UNL     1      48.103   5.765  15.649  0.00  0.00    +0.000 A 
ATOM      7  S   UNL     1      49.492   6.698  15.981  0.00  0.00    +0.000 S 
ATOM      8  C   UNL     1      49.549   7.286  14.385  0.00  0.00    +0.000 A 
ATOM      9  N   UNL     1      50.522   8.151  13.989  0.00  0.00    +0.000 NA
ATOM     10  C   UNL     1      50.427   8.533  12.759  0.00  0.00    +0.000 A 
ATOM     11  N   UNL     1      49.441   8.139  11.890  0.00  0.00    +0.000 N 
ATOM     12  C   UNL     1      48.442   7.267  12.246  0.00  0.00    +0.000 A 
ATOM     13  O   UNL     1      47.575   6.933  11.446  0.00  0.00    +0.000 OA
ATOM     14  C   UNL     1      48.518   6.785  13.614  0.00  0.00    +0.000 A 
ATOM     15  H   UNL     1      49.418   8.479  10.942  0.00  0.00    +0.000 HD
ENDBRANCH   2   5
BRANCH   3  16
ATOM     16  C   UNL     1      44.172   5.106  13.263  0.00  0.00    +0.000 C 
BRANCH  16  17
ATOM     17  C   UNL     1      44.139   4.551  11.866  0.00  0.00    +0.000 A 
ATOM     18  C   UNL     1      44.451   5.367  10.772  0.00  0.00    +0.000 A 
ATOM     19  C   UNL     1      44.659   4.804   9.511  0.00  0.00    +0.000 A 
ATOM     20  C   UNL     1      44.588   3.415   9.327  0.00  0.00    +0.000 A 
ATOM     21  C   UNL     1      44.102   2.630  10.382  0.00  0.00    +0.000 A 
ATOM     22  C   UNL     1      43.874   3.194  11.640  0.00  0.00    +0.000 A 
BRANCH  20  23
ATOM     23  C   UNL     1      45.075   2.749   8.049  0.00  0.00    +0.000 C 
BRANCH  23  24
ATOM     24  N   UNL     1      46.503   2.384   8.071  0.00  0.00    +0.000 NA
ATOM     25  C   UNL     1      46.767   1.005   7.630  0.00  0.00    +0.000 C 
ATOM     26  C   UNL     1      47.427   1.045   6.259  0.00  0.00    +0.000 C 
ATOM     27  C   UNL     1      47.583   2.514   5.919  0.00  0.00    +0.000 C 
ATOM     28  C   UNL     1      47.346   3.252   7.237  0.00  0.00    +0.000 C 
BRANCH  27  29
ATOM     29  O   UNL     1      46.651   2.874   4.902  0.00  0.00    +0.000 OA
ATOM     30  H   UNL     1      45.752   2.784   5.257  0.00  0.00    +0.000 HD
ENDBRANCH  27  29
ENDBRANCH  23  24
ENDBRANCH  20  23
ENDBRANCH  16  17
ENDBRANCH   3  16
TORSDOF 6
ENDMDL
MODEL 5
REMARK VINA RESULT:    -6.984      2.851      8.977
REMARK INTER + INTRA:          -9.808
REMARK INTER:                  -8.890
REMARK INTRA:                  -0.918
REMARK UNBOUND:                -0.578
REMARK  Name = 
REMARK  6 active torsions:
REMARK  status: ('A' for Active; 'I' for Inactive)
REMARK    1  A    between atoms: C_2  and  C_18
REMARK    2  A    between atoms: N_3  and  C_4
REMARK    3  A    between atoms: C_4  and  C_5
REMARK    4  A    between atoms: C_8  and  C_9
REMARK    5  A    between atoms: C_9  and  N_10
REMARK    6  A    between atoms: C_13  and  O_14
REMARK                            x       y       z     vdW  Elec       q    Type
REMARK                         _______ _______ _______ _____ _____    ______ ____
ROOT
ATOM      1  O   UNL     1      45.114   7.773  11.950  0.00  0.00    +0.000 OA
ATOM      2  C   UNL     1      45.764   6.754  11.741  0.00  0.00    +0.000 C 
ATOM      3  N   UNL     1      47.133   6.776  11.569  0.00  0.00    +0.000 N 
ATOM      4  H   UNL     1      47.650   5.908  11.631  0.00  0.00    +0.000 HD
ENDROOT
BRANCH   2   5
ATOM      5  C   UNL     1      45.123   5.443  11.610  0.00  0.00    +0.000 A 
ATOM      6  C   UNL     1      44.477   4.872  12.697  0.00  0.00    +0.000 A 
ATOM      7  S   UNL     1      43.737   3.376  12.341  0.00  0.00    +0.000 S 
ATOM      8  C   UNL     1      44.294   3.419  10.733  0.00  0.00    +0.000 A 
ATOM      9  N   UNL     1      44.003   2.415   9.861  0.00  0.00    +0.000 NA
ATOM     10  C   UNL     1      44.513   2.568   8.684  0.00  0.00    +0.000 A 
ATOM     11  N   UNL     1      45.295   3.627   8.300  0.00  0.00    +0.000 N 
ATOM     12  C   UNL     1      45.611   4.662   9.145  0.00  0.00    +0.000 A 
ATOM     13  O   UNL     1      46.313   5.596   8.771  0.00  0.00    +0.000 OA
ATOM     14  C   UNL     1      45.041   4.553  10.476  0.00  0.00    +0.000 A 
ATOM     15  H   UNL     1      45.668   3.685   7.367  0.00  0.00    +0.000 HD
ENDBRANCH   2   5
BRANCH   3  16
ATOM     16  C   UNL     1      47.870   7.974  11.837  0.00  0.00    +0.000 C 
BRANCH  16  17
ATOM     17  C   UNL     1      48.369   8.046  13.254  0.00  0.00    +0.000 A 
ATOM     18  C   UNL     1      47.644   8.745  14.226  0.00  0.00    +0.000 A 
ATOM     19  C   UNL     1      47.968   8.612  15.578  0.00  0.00    +0.000 A 
ATOM     20  C   UNL     1      49.003   7.757  15.983  0.00  0.00    +0.000 A 
ATOM     21  C   UNL     1      49.834   7.205  14.998  0.00  0.00    +0.000 A 
ATOM     22  C   UNL     1      49.522   7.352  13.643  0.00  0.00    +0.000 A 
BRANCH  20  23
ATOM     23  C   UNL     1      49.204   7.375  17.443  0.00  0.00    +0.000 C 
BRANCH  23  24
ATOM     24  N   UNL     1      49.520   5.951  17.650  0.00  0.00    +0.000 NA
ATOM     25  C   UNL     1      49.743   5.595  19.061  0.00  0.00    +0.000 C 
ATOM     26  C   UNL     1      48.559   4.775  19.554  0.00  0.00    +0.000 C 
ATOM     27  C   UNL     1      47.637   4.623  18.362  0.00  0.00    +0.000 C 
ATOM     28  C   UNL     1      48.479   5.039  17.155  0.00  0.00    +0.000 C 
BRANCH  27  29
ATOM     29  O   UNL     1      46.479   5.435  18.541  0.00  0.00    +0.000 OA
ATOM     30  H   UNL     1      46.729   6.364  18.421  0.00  0.00    +0.000 HD
ENDBRANCH  27  29
ENDBRANCH  23  24
ENDBRANCH  20  23
ENDBRANCH  16  17
ENDBRANCH   3  16
TORSDOF 6
ENDMDL
MODEL 6
REMARK VINA RESULT:    -6.691      3.958      8.382
REMARK INTER + INTRA:          -9.421
REMARK INTER:                  -8.703
REMARK INTRA:                  -0.718
REMARK UNBOUND:                -0.578
REMARK  Name = 
REMARK  6 active torsions:
REMARK  status: ('A' for Active; 'I' for Inactive)
REMARK    1  A    between atoms: C_2  and  C_18
REMARK    2  A    between atoms: N_3  and  C_4
REMARK    3  A    between atoms: C_4  and  C_5
REMARK    4  A    between atoms: C_8  and  C_9
REMARK    5  A    between atoms: C_9  and  N_10
REMARK    6  A    between atoms: C_13  and  O_14
REMARK                            x       y       z     vdW  Elec       q    Type
REMARK                         _______ _______ _______ _____ _____    ______ ____
ROOT
ATOM      1  O   UNL     1      47.933   6.532  12.290  0.00  0.00    +0.000 OA
ATOM      2  C   UNL     1      46.874   6.988  12.705  0.00  0.00    +0.000 C 
ATOM      3  N   UNL     1      46.824   7.986  13.657  0.00  0.00    +0.000 N 
ATOM      4  H   UNL     1      45.955   8.487  13.798  0.00  0.00    +0.000 HD
ENDROOT
BRANCH   2   5
ATOM      5  C   UNL     1      45.580   6.468  12.253  0.00  0.00    +0.000 A 
ATOM      6  C   UNL     1      44.636   7.327  11.710  0.00  0.00    +0.000 A 
ATOM      7  S   UNL     1      43.219   6.535  11.183  0.00  0.00    +0.000 S 
ATOM      8  C   UNL     1      43.801   5.023  11.707  0.00  0.00    +0.000 A 
ATOM      9  N   UNL     1      43.061   3.892  11.548  0.00  0.00    +0.000 NA
ATOM     10  C   UNL     1      43.616   2.824  12.014  0.00  0.00    +0.000 A 
ATOM     11  N   UNL     1      44.839   2.782  12.634  0.00  0.00    +0.000 N 
ATOM     12  C   UNL     1      45.620   3.897  12.812  0.00  0.00    +0.000 A 
ATOM     13  O   UNL     1      46.710   3.827  13.371  0.00  0.00    +0.000 OA
ATOM     14  C   UNL     1      45.053   5.124  12.282  0.00  0.00    +0.000 A 
ATOM     15  H   UNL     1      45.215   1.915  12.983  0.00  0.00    +0.000 HD
ENDBRANCH   2   5
BRANCH   3  16
ATOM     16  C   UNL     1      48.020   8.670  14.041  0.00  0.00    +0.000 C 
BRANCH  16  17
ATOM     17  C   UNL     1      48.622   8.127  15.309  0.00  0.00    +0.000 A 
ATOM     18  C   UNL     1      48.221   8.626  16.553  0.00  0.00    +0.000 A 
ATOM     19  C   UNL     1      48.589   7.966  17.728  0.00  0.00    +0.000 A 
ATOM     20  C   UNL     1      49.337   6.781  17.677  0.00  0.00    +0.000 A 
ATOM     21  C   UNL     1      49.882   6.391  16.446  0.00  0.00    +0.000 A 
ATOM     22  C   UNL     1      49.531   7.061  15.271  0.00  0.00    +0.000 A 
BRANCH  20  23
ATOM     23  C   UNL     1      49.518   5.893  18.900  0.00  0.00    +0.000 C 
BRANCH  23  24
ATOM     24  N   UNL     1      48.380   4.993  19.159  0.00  0.00    +0.000 NA
ATOM     25  C   UNL     1      47.260   5.175  18.222  0.00  0.00    +0.000 C 
ATOM     26  C   UNL     1      47.205   3.978  17.284  0.00  0.00    +0.000 C 
ATOM     27  C   UNL     1      48.319   3.053  17.729  0.00  0.00    +0.000 C 
ATOM     28  C   UNL     1      48.733   3.567  19.108  0.00  0.00    +0.000 C 
BRANCH  27  29
ATOM     29  O   UNL     1      49.382   3.086  16.779  0.00  0.00    +0.000 OA
ATOM     30  H   UNL     1      49.128   3.673  16.049  0.00  0.00    +0.000 HD
ENDBRANCH  27  29
ENDBRANCH  23  24
ENDBRANCH  20  23
ENDBRANCH  16  17
ENDBRANCH   3  16
TORSDOF 6
ENDMDL
MODEL 7
REMARK VINA RESULT:    -6.664      4.793      7.736
REMARK INTER + INTRA:          -9.385
REMARK INTER:                  -8.472
REMARK INTRA:                  -0.913
REMARK UNBOUND:                -0.578
REMARK  Name = 
REMARK  6 active torsions:
REMARK  status: ('A' for Active; 'I' for Inactive)
REMARK    1  A    between atoms: C_2  and  C_18
REMARK    2  A    between atoms: N_3  and  C_4
REMARK    3  A    between atoms: C_4  and  C_5
REMARK    4  A    between atoms: C_8  and  C_9
REMARK    5  A    between atoms: C_9  and  N_10
REMARK    6  A    between atoms: C_13  and  O_14
REMARK                            x       y       z     vdW  Elec       q    Type
REMARK                         _______ _______ _______ _____ _____    ______ ____
ROOT
ATOM      1  O   UNL     1      43.954   7.465  11.341  0.00  0.00    +0.000 OA
ATOM      2  C   UNL     1      44.819   6.599  11.405  0.00  0.00    +0.000 C 
ATOM      3  N   UNL     1      46.149   6.900  11.613  0.00  0.00    +0.000 N 
ATOM      4  H   UNL     1      46.783   6.160  11.889  0.00  0.00    +0.000 HD
ENDROOT
BRANCH   2   5
ATOM      5  C   UNL     1      44.505   5.180  11.217  0.00  0.00    +0.000 A 
ATOM      6  C   UNL     1      43.769   4.496  12.173  0.00  0.00    +0.000 A 
ATOM      7  S   UNL     1      43.448   2.874  11.755  0.00  0.00    +0.000 S 
ATOM      8  C   UNL     1      44.322   3.017  10.300  0.00  0.00    +0.000 A 
ATOM      9  N   UNL     1      44.440   1.965   9.445  0.00  0.00    +0.000 NA
ATOM     10  C   UNL     1      45.151   2.210   8.395  0.00  0.00    +0.000 A 
ATOM     11  N   UNL     1      45.764   3.407   8.125  0.00  0.00    +0.000 N 
ATOM     12  C   UNL     1      45.668   4.495   8.958  0.00  0.00    +0.000 A 
ATOM     13  O   UNL     1      46.228   5.553   8.689  0.00  0.00    +0.000 OA
ATOM     14  C   UNL     1      44.857   4.281  10.143  0.00  0.00    +0.000 A 
ATOM     15  H   UNL     1      46.312   3.533   7.290  0.00  0.00    +0.000 HD
ENDBRANCH   2   5
BRANCH   3  16
ATOM     16  C   UNL     1      46.536   8.231  11.970  0.00  0.00    +0.000 C 
BRANCH  16  17
ATOM     17  C   UNL     1      48.025   8.385  12.124  0.00  0.00    +0.000 A 
ATOM     18  C   UNL     1      48.792   7.345  12.661  0.00  0.00    +0.000 A 
ATOM     19  C   UNL     1      50.185   7.384  12.581  0.00  0.00    +0.000 A 
ATOM     20  C   UNL     1      50.834   8.448  11.937  0.00  0.00    +0.000 A 
ATOM     21  C   UNL     1      50.071   9.564  11.565  0.00  0.00    +0.000 A 
ATOM     22  C   UNL     1      48.677   9.535  11.661  0.00  0.00    +0.000 A 
BRANCH  20  23
ATOM     23  C   UNL     1      52.315   8.393  11.588  0.00  0.00    +0.000 C 
BRANCH  23  24
ATOM     24  N   UNL     1      52.585   8.306  10.142  0.00  0.00    +0.000 NA
ATOM     25  C   UNL     1      54.010   8.431   9.800  0.00  0.00    +0.000 C 
ATOM     26  C   UNL     1      54.531   7.070   9.358  0.00  0.00    +0.000 C 
ATOM     27  C   UNL     1      53.340   6.135   9.413  0.00  0.00    +0.000 C 
ATOM     28  C   UNL     1      52.122   7.053   9.531  0.00  0.00    +0.000 C 
BRANCH  27  29
ATOM     29  O   UNL     1      53.476   5.245  10.519  0.00  0.00    +0.000 OA
ATOM     30  H   UNL     1      53.945   4.449  10.221  0.00  0.00    +0.000 HD
ENDBRANCH  27  29
ENDBRANCH  23  24
ENDBRANCH  20  23
ENDBRANCH  16  17
ENDBRANCH   3  16
TORSDOF 6
ENDMDL
MODEL 8
REMARK VINA RESULT:    -6.617      4.238      8.798
REMARK INTER + INTRA:          -9.323
REMARK INTER:                  -8.500
REMARK INTRA:                  -0.823
REMARK UNBOUND:                -0.578
REMARK  Name = 
REMARK  6 active torsions:
REMARK  status: ('A' for Active; 'I' for Inactive)
REMARK    1  A    between atoms: C_2  and  C_18
REMARK    2  A    between atoms: N_3  and  C_4
REMARK    3  A    between atoms: C_4  and  C_5
REMARK    4  A    between atoms: C_8  and  C_9
REMARK    5  A    between atoms: C_9  and  N_10
REMARK    6  A    between atoms: C_13  and  O_14
REMARK                            x       y       z     vdW  Elec       q    Type
REMARK                         _______ _______ _______ _____ _____    ______ ____
ROOT
ATOM      1  O   UNL     1      47.263   3.170  13.917  0.00  0.00    +0.000 OA
ATOM      2  C   UNL     1      46.812   4.204  14.396  0.00  0.00    +0.000 C 
ATOM      3  N   UNL     1      46.727   4.409  15.758  0.00  0.00    +0.000 N 
ATOM      4  H   UNL     1      46.571   5.347  16.105  0.00  0.00    +0.000 HD
ENDROOT
BRANCH   2   5
ATOM      5  C   UNL     1      46.285   5.279  13.552  0.00  0.00    +0.000 A 
ATOM      6  C   UNL     1      47.047   6.412  13.309  0.00  0.00    +0.000 A 
ATOM      7  S   UNL     1      46.297   7.526  12.257  0.00  0.00    +0.000 S 
ATOM      8  C   UNL     1      44.906   6.552  12.127  0.00  0.00    +0.000 A 
ATOM      9  N   UNL     1      43.852   6.932  11.354  0.00  0.00    +0.000 NA
ATOM     10  C   UNL     1      42.857   6.109  11.370  0.00  0.00    +0.000 A 
ATOM     11  N   UNL     1      42.813   4.946  12.096  0.00  0.00    +0.000 N 
ATOM     12  C   UNL     1      43.854   4.523  12.885  0.00  0.00    +0.000 A 
ATOM     13  O   UNL     1      43.784   3.477  13.522  0.00  0.00    +0.000 OA
ATOM     14  C   UNL     1      45.011   5.401  12.883  0.00  0.00    +0.000 A 
ATOM     15  H   UNL     1      42.003   4.349  12.070  0.00  0.00    +0.000 HD
ENDBRANCH   2   5
BRANCH   3  16
ATOM     16  C   UNL     1      47.360   3.496  16.661  0.00  0.00    +0.000 C 
BRANCH  16  17
ATOM     17  C   UNL     1      48.642   4.037  17.233  0.00  0.00    +0.000 A 
ATOM     18  C   UNL     1      49.748   3.197  17.411  0.00  0.00    +0.000 A 
ATOM     19  C   UNL     1      51.001   3.736  17.708  0.00  0.00    +0.000 A 
ATOM     20  C   UNL     1      51.177   5.125  17.803  0.00  0.00    +0.000 A 
ATOM     21  C   UNL     1      50.037   5.941  17.801  0.00  0.00    +0.000 A 
ATOM     22  C   UNL     1      48.778   5.400  17.523  0.00  0.00    +0.000 A 
BRANCH  20  23
ATOM     23  C   UNL     1      52.561   5.758  17.848  0.00  0.00    +0.000 C 
BRANCH  23  24
ATOM     24  N   UNL     1      53.250   5.779  16.545  0.00  0.00    +0.000 NA
ATOM     25  C   UNL     1      53.065   7.036  15.801  0.00  0.00    +0.000 C 
ATOM     26  C   UNL     1      54.373   7.814  15.818  0.00  0.00    +0.000 C 
ATOM     27  C   UNL     1      55.360   6.946  16.572  0.00  0.00    +0.000 C 
ATOM     28  C   UNL     1      54.701   5.569  16.644  0.00  0.00    +0.000 C 
BRANCH  27  29
ATOM     29  O   UNL     1      55.615   7.511  17.857  0.00  0.00    +0.000 OA
ATOM     30  H   UNL     1      56.500   7.239  18.146  0.00  0.00    +0.000 HD
ENDBRANCH  27  29
ENDBRANCH  23  24
ENDBRANCH  20  23
ENDBRANCH  16  17
ENDBRANCH   3  16
TORSDOF 6
ENDMDL
MODEL 9
REMARK VINA RESULT:    -6.596      3.925      5.313
REMARK INTER + INTRA:          -9.295
REMARK INTER:                  -8.443
REMARK INTRA:                  -0.852
REMARK UNBOUND:                -0.578
REMARK  Name = 
REMARK  6 active torsions:
REMARK  status: ('A' for Active; 'I' for Inactive)
REMARK    1  A    between atoms: C_2  and  C_18
REMARK    2  A    between atoms: N_3  and  C_4
REMARK    3  A    between atoms: C_4  and  C_5
REMARK    4  A    between atoms: C_8  and  C_9
REMARK    5  A    between atoms: C_9  and  N_10
REMARK    6  A    between atoms: C_13  and  O_14
REMARK                            x       y       z     vdW  Elec       q    Type
REMARK                         _______ _______ _______ _____ _____    ______ ____
ROOT
ATOM      1  O   UNL     1      48.693   6.124  17.682  0.00  0.00    +0.000 OA
ATOM      2  C   UNL     1      49.755   6.146  17.069  0.00  0.00    +0.000 C 
ATOM      3  N   UNL     1      49.962   6.973  15.985  0.00  0.00    +0.000 N 
ATOM      4  H   UNL     1      50.909   7.129  15.660  0.00  0.00    +0.000 HD
ENDROOT
BRANCH   2   5
ATOM      5  C   UNL     1      50.865   5.255  17.418  0.00  0.00    +0.000 A 
ATOM      6  C   UNL     1      52.070   5.783  17.857  0.00  0.00    +0.000 A 
ATOM      7  S   UNL     1      53.222   4.596  18.275  0.00  0.00    +0.000 S 
ATOM      8  C   UNL     1      52.164   3.335  17.838  0.00  0.00    +0.000 A 
ATOM      9  N   UNL     1      52.538   2.032  17.957  0.00  0.00    +0.000 NA
ATOM     10  C   UNL     1      51.646   1.185  17.565  0.00  0.00    +0.000 A 
ATOM     11  N   UNL     1      50.417   1.520  17.056  0.00  0.00    +0.000 N 
ATOM     12  C   UNL     1      49.998   2.821  16.922  0.00  0.00    +0.000 A 
ATOM     13  O   UNL     1      48.892   3.088  16.462  0.00  0.00    +0.000 OA
ATOM     14  C   UNL     1      50.956   3.815  17.373  0.00  0.00    +0.000 A 
ATOM     15  H   UNL     1      49.766   0.810  16.761  0.00  0.00    +0.000 HD
ENDBRANCH   2   5
BRANCH   3  16
ATOM     16  C   UNL     1      49.007   7.991  15.666  0.00  0.00    +0.000 C 
BRANCH  16  17
ATOM     17  C   UNL     1      48.274   7.720  14.380  0.00  0.00    +0.000 A 
ATOM     18  C   UNL     1      48.642   6.641  13.569  0.00  0.00    +0.000 A 
ATOM     19  C   UNL     1      47.821   6.242  12.512  0.00  0.00    +0.000 A 
ATOM     20  C   UNL     1      46.604   6.896  12.267  0.00  0.00    +0.000 A 
ATOM     21  C   UNL     1      46.333   8.080  12.967  0.00  0.00    +0.000 A 
ATOM     22  C   UNL     1      47.164   8.492  14.013  0.00  0.00    +0.000 A 
BRANCH  20  23
ATOM     23  C   UNL     1      45.564   6.324  11.315  0.00  0.00    +0.000 C 
BRANCH  23  24
ATOM     24  N   UNL     1      44.290   5.969  11.966  0.00  0.00    +0.000 NA
ATOM     25  C   UNL     1      43.298   5.392  11.045  0.00  0.00    +0.000 C 
ATOM     26  C   UNL     1      43.159   3.905  11.339  0.00  0.00    +0.000 C 
ATOM     27  C   UNL     1      44.084   3.628  12.506  0.00  0.00    +0.000 C 
ATOM     28  C   UNL     1      44.439   5.005  13.066  0.00  0.00    +0.000 C 
BRANCH  27  29
ATOM     29  O   UNL     1      45.224   2.898  12.055  0.00  0.00    +0.000 OA
ATOM     30  H   UNL     1      44.921   2.163  11.498  0.00  0.00    +0.000 HD
ENDBRANCH  27  29
ENDBRANCH  23  24
ENDBRANCH  20  23
ENDBRANCH  16  17
ENDBRANCH   3  16
TORSDOF 6
ENDMDL
