MODEL 1
REMARK VINA RESULT:    -8.826      0.000      0.000
REMARK INTER + INTRA:         -13.509
REMARK INTER:                 -12.437
REMARK INTRA:                  -1.072
REMARK UNBOUND:                -1.072
REMARK  Name = 
REMARK  9 active torsions:
REMARK  status: ('A' for Active; 'I' for Inactive)
REMARK    1  A    between atoms: C_1  and  C_2
REMARK    2  A    between atoms: C_2  and  C_3
REMARK    3  A    between atoms: C_5  and  O_6
REMARK    4  A    between atoms: O_6  and  C_7
REMARK    5  A    between atoms: C_11  and  C_12
REMARK    6  A    between atoms: C_12  and  C_13
REMARK    7  A    between atoms: C_13  and  N_14
REMARK    8  A    between atoms: N_14  and  C_15
REMARK    9  A    between atoms: C_18  and  C_19
REMARK                            x       y       z     vdW  Elec       q    Type
REMARK                         _______ _______ _______ _____ _____    ______ ____
ROOT
ATOM      1  C   UNL     1      43.564   5.907  12.006  0.00  0.00    +0.000 C 
ENDROOT
BRANCH   1   6
ATOM      2  C   UNL     1      46.995   5.098  13.513  0.00  0.00    +0.000 A 
ATOM      3  C   UNL     1      47.796   6.101  12.964  0.00  0.00    +0.000 A 
ATOM      4  C   UNL     1      47.246   7.028  12.088  0.00  0.00    +0.000 A 
ATOM      5  C   UNL     1      45.891   6.970  11.766  0.00  0.00    +0.000 A 
ATOM      6  C   UNL     1      45.049   5.995  12.326  0.00  0.00    +0.000 A 
ATOM      7  C   UNL     1      45.626   5.068  13.212  0.00  0.00    +0.000 A 
ATOM      8  F   UNL     1      44.846   4.125  13.764  0.00  0.00    +0.000 F 
BRANCH   2   9
ATOM      9  O   UNL     1      47.493   4.120  14.345  0.00  0.00    +0.000 OA
BRANCH   9  14
ATOM     10  C   UNL     1      47.939   4.728  18.781  0.00  0.00    +0.000 C 
ATOM     11  C   UNL     1      48.700   4.223  17.555  0.00  0.00    +0.000 C 
ATOM     12  C   UNL     1      50.107   3.763  17.921  0.00  0.00    +0.000 C 
ATOM     13  C   UNL     1      48.657   5.197  16.350  0.00  0.00    +0.000 C 
ATOM     14  C   UNL     1      47.469   4.381  15.771  0.00  0.00    +0.000 C 
ATOM     15  C   UNL     1      47.916   3.209  16.675  0.00  0.00    +0.000 C 
ENDBRANCH   9  14
ENDBRANCH   2   9
ENDBRANCH   1   6
BRANCH   1  16
ATOM     16  C   UNL     1      43.208   4.792  11.009  0.00  0.00    +0.000 C 
BRANCH  16  17
ATOM     17  N   UNL     1      43.750   5.005   9.672  0.00  0.00    +0.000 N 
ATOM     18  H   UNL     1      43.084   5.339   8.980  0.00  0.00    +0.000 HD
BRANCH  17  19
ATOM     19  C   UNL     1      44.648   4.056   9.156  0.00  0.00    +0.000 A 
ATOM     20  C   UNL     1      45.629   4.354   8.199  0.00  0.00    +0.000 A 
ATOM     21  C   UNL     1      46.427   3.351   7.632  0.00  0.00    +0.000 A 
ATOM     22  C   UNL     1      46.249   2.018   7.999  0.00  0.00    +0.000 A 
ATOM     23  C   UNL     1      45.265   1.697   8.936  0.00  0.00    +0.000 A 
ATOM     24  C   UNL     1      44.474   2.710   9.502  0.00  0.00    +0.000 A 
BRANCH  22  25
ATOM     25  C   UNL     1      47.087   0.988   7.333  0.00  0.00    +0.000 C 
ATOM     26  N   UNL     1      46.841  -0.321   7.635  0.00  0.00    +0.000 N 
ATOM     27  O   UNL     1      47.995   1.291   6.563  0.00  0.00    +0.000 OA
ATOM     28  H   UNL     1      46.280  -0.602   8.426  0.00  0.00    +0.000 HD
ATOM     29  H   UNL     1      47.488  -0.998   7.249  0.00  0.00    +0.000 HD
ENDBRANCH  22  25
ENDBRANCH  17  19
ENDBRANCH  16  17
ENDBRANCH   1  16
TORSDOF 7
ENDMDL
MODEL 2
REMARK VINA RESULT:    -8.130      1.340      1.562
REMARK INTER + INTRA:         -12.528
REMARK INTER:                 -11.811
REMARK INTRA:                  -0.717
REMARK UNBOUND:                -1.072
REMARK  Name = 
REMARK  9 active torsions:
REMARK  status: ('A' for Active; 'I' for Inactive)
REMARK    1  A    between atoms: C_1  and  C_2
REMARK    2  A    between atoms: C_2  and  C_3
REMARK    3  A    between atoms: C_5  and  O_6
REMARK    4  A    between atoms: O_6  and  C_7
REMARK    5  A    between atoms: C_11  and  C_12
REMARK    6  A    between atoms: C_12  and  C_13
REMARK    7  A    between atoms: C_13  and  N_14
REMARK    8  A    between atoms: N_14  and  C_15
REMARK    9  A    between atoms: C_18  and  C_19
REMARK                            x       y       z     vdW  Elec       q    Type
REMARK                         _______ _______ _______ _____ _____    ______ ____
ROOT
ATOM      1  C   UNL     1      44.653   4.176  12.229  0.00  0.00    +0.000 C 
ENDROOT
BRANCH   1   6
ATOM      2  C   UNL     1      47.386   6.501  13.579  0.00  0.00    +0.000 A 
ATOM      3  C   UNL     1      46.850   7.761  13.314  0.00  0.00    +0.000 A 
ATOM      4  C   UNL     1      45.621   7.874  12.677  0.00  0.00    +0.000 A 
ATOM      5  C   UNL     1      44.911   6.731  12.316  0.00  0.00    +0.000 A 
ATOM      6  C   UNL     1      45.405   5.446  12.599  0.00  0.00    +0.000 A 
ATOM      7  C   UNL     1      46.649   5.355  13.245  0.00  0.00    +0.000 A 
ATOM      8  F   UNL     1      47.147   4.140  13.530  0.00  0.00    +0.000 F 
BRANCH   2   9
ATOM      9  O   UNL     1      48.623   6.324  14.160  0.00  0.00    +0.000 OA
BRANCH   9  14
ATOM     10  C   UNL     1      49.233   6.447  18.615  0.00  0.00    +0.000 C 
ATOM     11  C   UNL     1      49.585   5.623  17.377  0.00  0.00    +0.000 C 
ATOM     12  C   UNL     1      50.448   4.418  17.734  0.00  0.00    +0.000 C 
ATOM     13  C   UNL     1      50.148   6.467  16.206  0.00  0.00    +0.000 C 
ATOM     14  C   UNL     1      48.722   6.515  15.593  0.00  0.00    +0.000 C 
ATOM     15  C   UNL     1      48.378   5.281  16.459  0.00  0.00    +0.000 C 
ENDBRANCH   9  14
ENDBRANCH   2   9
ENDBRANCH   1   6
BRANCH   1  16
ATOM     16  C   UNL     1      43.433   4.417  11.326  0.00  0.00    +0.000 C 
BRANCH  16  17
ATOM     17  N   UNL     1      43.778   4.761   9.951  0.00  0.00    +0.000 N 
ATOM     18  H   UNL     1      42.996   5.038   9.362  0.00  0.00    +0.000 HD
BRANCH  17  19
ATOM     19  C   UNL     1      44.716   3.962   9.278  0.00  0.00    +0.000 A 
ATOM     20  C   UNL     1      45.657   4.467   8.368  0.00  0.00    +0.000 A 
ATOM     21  C   UNL     1      46.498   3.617   7.637  0.00  0.00    +0.000 A 
ATOM     22  C   UNL     1      46.402   2.234   7.787  0.00  0.00    +0.000 A 
ATOM     23  C   UNL     1      45.459   1.710   8.671  0.00  0.00    +0.000 A 
ATOM     24  C   UNL     1      44.625   2.570   9.404  0.00  0.00    +0.000 A 
BRANCH  22  25
ATOM     25  C   UNL     1      47.282   1.376   6.951  0.00  0.00    +0.000 C 
ATOM     26  N   UNL     1      48.334   1.975   6.318  0.00  0.00    +0.000 N 
ATOM     27  O   UNL     1      47.063   0.178   6.799  0.00  0.00    +0.000 OA
ATOM     28  H   UNL     1      48.413   2.977   6.221  0.00  0.00    +0.000 HD
ATOM     29  H   UNL     1      48.859   1.394   5.676  0.00  0.00    +0.000 HD
ENDBRANCH  22  25
ENDBRANCH  17  19
ENDBRANCH  16  17
ENDBRANCH   1  16
TORSDOF 7
ENDMDL
MODEL 3
REMARK VINA RESULT:    -7.752      2.632      3.952
REMARK INTER + INTRA:         -11.996
REMARK INTER:                 -11.274
REMARK INTRA:                  -0.722
REMARK UNBOUND:                -1.072
REMARK  Name = 
REMARK  9 active torsions:
REMARK  status: ('A' for Active; 'I' for Inactive)
REMARK    1  A    between atoms: C_1  and  C_2
REMARK    2  A    between atoms: C_2  and  C_3
REMARK    3  A    between atoms: C_5  and  O_6
REMARK    4  A    between atoms: O_6  and  C_7
REMARK    5  A    between atoms: C_11  and  C_12
REMARK    6  A    between atoms: C_12  and  C_13
REMARK    7  A    between atoms: C_13  and  N_14
REMARK    8  A    between atoms: N_14  and  C_15
REMARK    9  A    between atoms: C_18  and  C_19
REMARK                            x       y       z     vdW  Elec       q    Type
REMARK                         _______ _______ _______ _____ _____    ______ ____
ROOT
ATOM      1  C   UNL     1      45.208   3.749  12.255  0.00  0.00    +0.000 C 
ENDROOT
BRANCH   1   6
ATOM      2  C   UNL     1      47.186   6.799  13.473  0.00  0.00    +0.000 A 
ATOM      3  C   UNL     1      46.359   7.854  13.083  0.00  0.00    +0.000 A 
ATOM      4  C   UNL     1      45.175   7.595  12.406  0.00  0.00    +0.000 A 
ATOM      5  C   UNL     1      44.800   6.283  12.126  0.00  0.00    +0.000 A 
ATOM      6  C   UNL     1      45.591   5.195  12.533  0.00  0.00    +0.000 A 
ATOM      7  C   UNL     1      46.784   5.479  13.220  0.00  0.00    +0.000 A 
ATOM      8  F   UNL     1      47.561   4.460  13.623  0.00  0.00    +0.000 F 
BRANCH   2   9
ATOM      9  O   UNL     1      48.397   6.994  14.101  0.00  0.00    +0.000 OA
BRANCH   9  14
ATOM     10  C   UNL     1      51.428   8.954  11.415  0.00  0.00    +0.000 C 
ATOM     11  C   UNL     1      49.963   9.047  11.842  0.00  0.00    +0.000 C 
ATOM     12  C   UNL     1      49.248  10.196  11.140  0.00  0.00    +0.000 C 
ATOM     13  C   UNL     1      49.760   9.032  13.378  0.00  0.00    +0.000 C 
ATOM     14  C   UNL     1      49.491   7.504  13.299  0.00  0.00    +0.000 C 
ATOM     15  C   UNL     1      49.186   7.701  11.796  0.00  0.00    +0.000 C 
ENDBRANCH   9  14
ENDBRANCH   2   9
ENDBRANCH   1   6
BRANCH   1  16
ATOM     16  C   UNL     1      43.764   3.573  11.759  0.00  0.00    +0.000 C 
BRANCH  16  17
ATOM     17  N   UNL     1      43.570   3.959  10.366  0.00  0.00    +0.000 N 
ATOM     18  H   UNL     1      42.605   3.956  10.044  0.00  0.00    +0.000 HD
BRANCH  17  19
ATOM     19  C   UNL     1      44.470   3.471   9.406  0.00  0.00    +0.000 A 
ATOM     20  C   UNL     1      44.800   2.115   9.266  0.00  0.00    +0.000 A 
ATOM     21  C   UNL     1      45.788   1.689   8.368  0.00  0.00    +0.000 A 
ATOM     22  C   UNL     1      46.485   2.619   7.598  0.00  0.00    +0.000 A 
ATOM     23  C   UNL     1      46.188   3.976   7.736  0.00  0.00    +0.000 A 
ATOM     24  C   UNL     1      45.192   4.391   8.635  0.00  0.00    +0.000 A 
BRANCH  22  25
ATOM     25  C   UNL     1      47.557   2.120   6.697  0.00  0.00    +0.000 C 
ATOM     26  N   UNL     1      47.891   2.895   5.622  0.00  0.00    +0.000 N 
ATOM     27  O   UNL     1      48.105   1.038   6.881  0.00  0.00    +0.000 OA
ATOM     28  H   UNL     1      47.315   3.660   5.301  0.00  0.00    +0.000 HD
ATOM     29  H   UNL     1      48.549   2.490   4.967  0.00  0.00    +0.000 HD
ENDBRANCH  22  25
ENDBRANCH  17  19
ENDBRANCH  16  17
ENDBRANCH   1  16
TORSDOF 7
ENDMDL
MODEL 4
REMARK VINA RESULT:    -7.424      1.966      2.511
REMARK INTER + INTRA:         -11.534
REMARK INTER:                 -10.642
REMARK INTRA:                  -0.892
REMARK UNBOUND:                -1.072
REMARK  Name = 
REMARK  9 active torsions:
REMARK  status: ('A' for Active; 'I' for Inactive)
REMARK    1  A    between atoms: C_1  and  C_2
REMARK    2  A    between atoms: C_2  and  C_3
REMARK    3  A    between atoms: C_5  and  O_6
REMARK    4  A    between atoms: O_6  and  C_7
REMARK    5  A    between atoms: C_11  and  C_12
REMARK    6  A    between atoms: C_12  and  C_13
REMARK    7  A    between atoms: C_13  and  N_14
REMARK    8  A    between atoms: N_14  and  C_15
REMARK    9  A    between atoms: C_18  and  C_19
REMARK                            x       y       z     vdW  Elec       q    Type
REMARK                         _______ _______ _______ _____ _____    ______ ____
ROOT
ATOM      1  C   UNL     1      45.562   5.986  11.024  0.00  0.00    +0.000 C 
ENDROOT
BRANCH   1   6
ATOM      2  C   UNL     1      47.864   5.841  14.087  0.00  0.00    +0.000 A 
ATOM      3  C   UNL     1      47.339   4.757  14.792  0.00  0.00    +0.000 A 
ATOM      4  C   UNL     1      46.229   4.081  14.302  0.00  0.00    +0.000 A 
ATOM      5  C   UNL     1      45.644   4.472  13.099  0.00  0.00    +0.000 A 
ATOM      6  C   UNL     1      46.167   5.538  12.347  0.00  0.00    +0.000 A 
ATOM      7  C   UNL     1      47.292   6.206  12.859  0.00  0.00    +0.000 A 
ATOM      8  F   UNL     1      47.815   7.228  12.162  0.00  0.00    +0.000 F 
BRANCH   2   9
ATOM      9  O   UNL     1      48.930   6.583  14.547  0.00  0.00    +0.000 OA
BRANCH   9  14
ATOM     10  C   UNL     1      49.714   7.470  18.888  0.00  0.00    +0.000 C 
ATOM     11  C   UNL     1      50.088   7.935  17.480  0.00  0.00    +0.000 C 
ATOM     12  C   UNL     1      51.058   9.111  17.518  0.00  0.00    +0.000 C 
ATOM     13  C   UNL     1      48.866   8.164  16.555  0.00  0.00    +0.000 C 
ATOM     14  C   UNL     1      49.069   6.734  15.982  0.00  0.00    +0.000 C 
ATOM     15  C   UNL     1      50.519   6.796  16.513  0.00  0.00    +0.000 C 
ENDBRANCH   9  14
ENDBRANCH   2   9
ENDBRANCH   1   6
BRANCH   1  16
ATOM     16  C   UNL     1      44.048   5.746  10.921  0.00  0.00    +0.000 C 
BRANCH  16  17
ATOM     17  N   UNL     1      43.655   4.970   9.751  0.00  0.00    +0.000 N 
ATOM     18  H   UNL     1      42.699   4.621   9.760  0.00  0.00    +0.000 HD
BRANCH  17  19
ATOM     19  C   UNL     1      44.571   4.045   9.223  0.00  0.00    +0.000 A 
ATOM     20  C   UNL     1      45.498   4.356   8.218  0.00  0.00    +0.000 A 
ATOM     21  C   UNL     1      46.315   3.372   7.645  0.00  0.00    +0.000 A 
ATOM     22  C   UNL     1      46.209   2.044   8.055  0.00  0.00    +0.000 A 
ATOM     23  C   UNL     1      45.278   1.709   9.039  0.00  0.00    +0.000 A 
ATOM     24  C   UNL     1      44.468   2.703   9.610  0.00  0.00    +0.000 A 
BRANCH  22  25
ATOM     25  C   UNL     1      47.063   1.032   7.381  0.00  0.00    +0.000 C 
ATOM     26  N   UNL     1      46.772  -0.286   7.596  0.00  0.00    +0.000 N 
ATOM     27  O   UNL     1      48.020   1.354   6.683  0.00  0.00    +0.000 OA
ATOM     28  H   UNL     1      46.159  -0.595   8.337  0.00  0.00    +0.000 HD
ATOM     29  H   UNL     1      47.426  -0.957   7.211  0.00  0.00    +0.000 HD
ENDBRANCH  22  25
ENDBRANCH  17  19
ENDBRANCH  16  17
ENDBRANCH   1  16
TORSDOF 7
ENDMDL
MODEL 5
REMARK VINA RESULT:    -6.976      2.573      3.203
REMARK INTER + INTRA:         -10.903
REMARK INTER:                 -10.070
REMARK INTRA:                  -0.833
REMARK UNBOUND:                -1.072
REMARK  Name = 
REMARK  9 active torsions:
REMARK  status: ('A' for Active; 'I' for Inactive)
REMARK    1  A    between atoms: C_1  and  C_2
REMARK    2  A    between atoms: C_2  and  C_3
REMARK    3  A    between atoms: C_5  and  O_6
REMARK    4  A    between atoms: O_6  and  C_7
REMARK    5  A    between atoms: C_11  and  C_12
REMARK    6  A    between atoms: C_12  and  C_13
REMARK    7  A    between atoms: C_13  and  N_14
REMARK    8  A    between atoms: N_14  and  C_15
REMARK    9  A    between atoms: C_18  and  C_19
REMARK                            x       y       z     vdW  Elec       q    Type
REMARK                         _______ _______ _______ _____ _____    ______ ____
ROOT
ATOM      1  C   UNL     1      45.001   6.922  11.242  0.00  0.00    +0.000 C 
ENDROOT
BRANCH   1   6
ATOM      2  C   UNL     1      47.604   8.473  13.592  0.00  0.00    +0.000 A 
ATOM      3  C   UNL     1      48.799   7.986  13.061  0.00  0.00    +0.000 A 
ATOM      4  C   UNL     1      48.776   7.137  11.961  0.00  0.00    +0.000 A 
ATOM      5  C   UNL     1      47.563   6.781  11.375  0.00  0.00    +0.000 A 
ATOM      6  C   UNL     1      46.343   7.280  11.863  0.00  0.00    +0.000 A 
ATOM      7  C   UNL     1      46.389   8.139  12.974  0.00  0.00    +0.000 A 
ATOM      8  F   UNL     1      45.240   8.633  13.462  0.00  0.00    +0.000 F 
BRANCH   2   9
ATOM      9  O   UNL     1      47.558   9.275  14.711  0.00  0.00    +0.000 OA
BRANCH   9  14
ATOM     10  C   UNL     1      50.391   8.610  18.142  0.00  0.00    +0.000 C 
ATOM     11  C   UNL     1      48.904   8.579  17.789  0.00  0.00    +0.000 C 
ATOM     12  C   UNL     1      48.052   8.183  18.990  0.00  0.00    +0.000 C 
ATOM     13  C   UNL     1      48.586   7.772  16.505  0.00  0.00    +0.000 C 
ATOM     14  C   UNL     1      48.602   9.101  15.700  0.00  0.00    +0.000 C 
ATOM     15  C   UNL     1      48.387   9.840  17.041  0.00  0.00    +0.000 C 
ENDBRANCH   9  14
ENDBRANCH   2   9
ENDBRANCH   1   6
BRANCH   1  16
ATOM     16  C   UNL     1      44.630   5.437  11.380  0.00  0.00    +0.000 C 
BRANCH  16  17
ATOM     17  N   UNL     1      43.987   4.880  10.195  0.00  0.00    +0.000 N 
ATOM     18  H   UNL     1      43.046   4.521  10.338  0.00  0.00    +0.000 HD
BRANCH  17  19
ATOM     19  C   UNL     1      44.753   4.081   9.331  0.00  0.00    +0.000 A 
ATOM     20  C   UNL     1      44.780   2.680   9.387  0.00  0.00    +0.000 A 
ATOM     21  C   UNL     1      45.645   1.930   8.579  0.00  0.00    +0.000 A 
ATOM     22  C   UNL     1      46.522   2.571   7.704  0.00  0.00    +0.000 A 
ATOM     23  C   UNL     1      46.526   3.966   7.648  0.00  0.00    +0.000 A 
ATOM     24  C   UNL     1      45.651   4.707   8.458  0.00  0.00    +0.000 A 
BRANCH  22  25
ATOM     25  C   UNL     1      47.453   1.733   6.905  0.00  0.00    +0.000 C 
ATOM     26  N   UNL     1      48.548   2.345   6.364  0.00  0.00    +0.000 N 
ATOM     27  O   UNL     1      47.239   0.542   6.702  0.00  0.00    +0.000 OA
ATOM     28  H   UNL     1      48.637   3.349   6.302  0.00  0.00    +0.000 HD
ATOM     29  H   UNL     1      49.113   1.779   5.741  0.00  0.00    +0.000 HD
ENDBRANCH  22  25
ENDBRANCH  17  19
ENDBRANCH  16  17
ENDBRANCH   1  16
TORSDOF 7
ENDMDL
MODEL 6
REMARK VINA RESULT:    -6.393      2.923      4.223
REMARK INTER + INTRA:         -10.081
REMARK INTER:                  -8.714
REMARK INTRA:                  -1.367
REMARK UNBOUND:                -1.072
REMARK  Name = 
REMARK  9 active torsions:
REMARK  status: ('A' for Active; 'I' for Inactive)
REMARK    1  A    between atoms: C_1  and  C_2
REMARK    2  A    between atoms: C_2  and  C_3
REMARK    3  A    between atoms: C_5  and  O_6
REMARK    4  A    between atoms: O_6  and  C_7
REMARK    5  A    between atoms: C_11  and  C_12
REMARK    6  A    between atoms: C_12  and  C_13
REMARK    7  A    between atoms: C_13  and  N_14
REMARK    8  A    between atoms: N_14  and  C_15
REMARK    9  A    between atoms: C_18  and  C_19
REMARK                            x       y       z     vdW  Elec       q    Type
REMARK                         _______ _______ _______ _____ _____    ______ ____
ROOT
ATOM      1  C   UNL     1      47.544   8.458  12.196  0.00  0.00    +0.000 C 
ENDROOT
BRANCH   1   6
ATOM      2  C   UNL     1      49.617   7.406  15.244  0.00  0.00    +0.000 A 
ATOM      3  C   UNL     1      49.829   8.627  15.885  0.00  0.00    +0.000 A 
ATOM      4  C   UNL     1      49.330   9.799  15.331  0.00  0.00    +0.000 A 
ATOM      5  C   UNL     1      48.603   9.759  14.143  0.00  0.00    +0.000 A 
ATOM      6  C   UNL     1      48.342   8.542  13.489  0.00  0.00    +0.000 A 
ATOM      7  C   UNL     1      48.854   7.369  14.068  0.00  0.00    +0.000 A 
ATOM      8  F   UNL     1      48.619   6.191  13.467  0.00  0.00    +0.000 F 
BRANCH   2   9
ATOM      9  O   UNL     1      50.130   6.218  15.717  0.00  0.00    +0.000 OA
BRANCH   9  14
ATOM     10  C   UNL     1      48.589   4.431  19.547  0.00  0.00    +0.000 C 
ATOM     11  C   UNL     1      48.640   4.181  18.040  0.00  0.00    +0.000 C 
ATOM     12  C   UNL     1      47.940   2.878  17.665  0.00  0.00    +0.000 C 
ATOM     13  C   UNL     1      50.058   4.324  17.432  0.00  0.00    +0.000 C 
ATOM     14  C   UNL     1      49.708   5.784  17.033  0.00  0.00    +0.000 C 
ATOM     15  C   UNL     1      48.217   5.395  17.165  0.00  0.00    +0.000 C 
ENDBRANCH   9  14
ENDBRANCH   2   9
ENDBRANCH   1   6
BRANCH   1  16
ATOM     16  C   UNL     1      46.094   8.952  12.327  0.00  0.00    +0.000 C 
BRANCH  16  17
ATOM     17  N   UNL     1      45.227   8.039  13.062  0.00  0.00    +0.000 N 
ATOM     18  H   UNL     1      45.384   8.003  14.067  0.00  0.00    +0.000 HD
BRANCH  17  19
ATOM     19  C   UNL     1      44.957   6.779  12.505  0.00  0.00    +0.000 A 
ATOM     20  C   UNL     1      44.128   6.583  11.390  0.00  0.00    +0.000 A 
ATOM     21  C   UNL     1      43.799   5.298  10.939  0.00  0.00    +0.000 A 
ATOM     22  C   UNL     1      44.280   4.173  11.608  0.00  0.00    +0.000 A 
ATOM     23  C   UNL     1      45.090   4.345  12.731  0.00  0.00    +0.000 A 
ATOM     24  C   UNL     1      45.418   5.637  13.172  0.00  0.00    +0.000 A 
BRANCH  22  25
ATOM     25  C   UNL     1      43.862   2.834  11.118  0.00  0.00    +0.000 C 
ATOM     26  N   UNL     1      44.516   2.324  10.033  0.00  0.00    +0.000 N 
ATOM     27  O   UNL     1      42.940   2.213  11.639  0.00  0.00    +0.000 OA
ATOM     28  H   UNL     1      45.104   2.888   9.436  0.00  0.00    +0.000 HD
ATOM     29  H   UNL     1      44.148   1.459   9.655  0.00  0.00    +0.000 HD
ENDBRANCH  22  25
ENDBRANCH  17  19
ENDBRANCH  16  17
ENDBRANCH   1  16
TORSDOF 7
ENDMDL
MODEL 7
REMARK VINA RESULT:    -5.839      4.044      5.607
REMARK INTER + INTRA:          -9.301
REMARK INTER:                  -7.530
REMARK INTRA:                  -1.771
REMARK UNBOUND:                -1.072
REMARK  Name = 
REMARK  9 active torsions:
REMARK  status: ('A' for Active; 'I' for Inactive)
REMARK    1  A    between atoms: C_1  and  C_2
REMARK    2  A    between atoms: C_2  and  C_3
REMARK    3  A    between atoms: C_5  and  O_6
REMARK    4  A    between atoms: O_6  and  C_7
REMARK    5  A    between atoms: C_11  and  C_12
REMARK    6  A    between atoms: C_12  and  C_13
REMARK    7  A    between atoms: C_13  and  N_14
REMARK    8  A    between atoms: N_14  and  C_15
REMARK    9  A    between atoms: C_18  and  C_19
REMARK                            x       y       z     vdW  Elec       q    Type
REMARK                         _______ _______ _______ _____ _____    ______ ____
ROOT
ATOM      1  C   UNL     1      48.875   9.647  12.861  0.00  0.00    +0.000 C 
ENDROOT
BRANCH   1   6
ATOM      2  C   UNL     1      49.466   8.462  16.459  0.00  0.00    +0.000 A 
ATOM      3  C   UNL     1      50.853   8.571  16.575  0.00  0.00    +0.000 A 
ATOM      4  C   UNL     1      51.609   9.000  15.492  0.00  0.00    +0.000 A 
ATOM      5  C   UNL     1      50.987   9.340  14.293  0.00  0.00    +0.000 A 
ATOM      6  C   UNL     1      49.590   9.275  14.152  0.00  0.00    +0.000 A 
ATOM      7  C   UNL     1      48.844   8.840  15.260  0.00  0.00    +0.000 A 
ATOM      8  F   UNL     1      47.507   8.768  15.156  0.00  0.00    +0.000 F 
BRANCH   2   9
ATOM      9  O   UNL     1      48.668   7.992  17.479  0.00  0.00    +0.000 OA
BRANCH   9  14
ATOM     10  C   UNL     1      49.025   3.670  18.674  0.00  0.00    +0.000 C 
ATOM     11  C   UNL     1      48.188   4.612  17.808  0.00  0.00    +0.000 C 
ATOM     12  C   UNL     1      47.083   3.861  17.072  0.00  0.00    +0.000 C 
ATOM     13  C   UNL     1      49.033   5.532  16.892  0.00  0.00    +0.000 C 
ATOM     14  C   UNL     1      48.924   6.651  17.964  0.00  0.00    +0.000 C 
ATOM     15  C   UNL     1      47.699   5.898  18.532  0.00  0.00    +0.000 C 
ENDBRANCH   9  14
ENDBRANCH   2   9
ENDBRANCH   1   6
BRANCH   1  16
ATOM     16  C   UNL     1      48.939   8.557  11.779  0.00  0.00    +0.000 C 
BRANCH  16  17
ATOM     17  N   UNL     1      48.868   7.200  12.308  0.00  0.00    +0.000 N 
ATOM     18  H   UNL     1      49.503   6.531  11.878  0.00  0.00    +0.000 HD
BRANCH  17  19
ATOM     19  C   UNL     1      47.604   6.656  12.585  0.00  0.00    +0.000 A 
ATOM     20  C   UNL     1      47.385   5.635  13.521  0.00  0.00    +0.000 A 
ATOM     21  C   UNL     1      46.123   5.047  13.683  0.00  0.00    +0.000 A 
ATOM     22  C   UNL     1      45.050   5.457  12.893  0.00  0.00    +0.000 A 
ATOM     23  C   UNL     1      45.250   6.458  11.941  0.00  0.00    +0.000 A 
ATOM     24  C   UNL     1      46.517   7.044  11.791  0.00  0.00    +0.000 A 
BRANCH  22  25
ATOM     25  C   UNL     1      43.745   4.768  13.069  0.00  0.00    +0.000 C 
ATOM     26  N   UNL     1      42.612   5.526  12.979  0.00  0.00    +0.000 N 
ATOM     27  O   UNL     1      43.676   3.569  13.322  0.00  0.00    +0.000 OA
ATOM     28  H   UNL     1      42.627   6.535  13.011  0.00  0.00    +0.000 HD
ATOM     29  H   UNL     1      41.742   5.057  13.202  0.00  0.00    +0.000 HD
ENDBRANCH  22  25
ENDBRANCH  17  19
ENDBRANCH  16  17
ENDBRANCH   1  16
TORSDOF 7
ENDMDL
