MODEL 1
REMARK VINA RESULT:    -8.044      0.000      0.000
REMARK INTER + INTRA:         -10.848
REMARK INTER:                 -10.160
REMARK INTRA:                  -0.688
REMARK UNBOUND:                -0.688
REMARK  Name = 
REMARK  6 active torsions:
REMARK  status: ('A' for Active; 'I' for Inactive)
REMARK    1  A    between atoms: C_1  and  O_2
REMARK    2  A    between atoms: O_2  and  C_3
REMARK    3  A    between atoms: N_11  and  C_12
REMARK    4  A    between atoms: C_12  and  C_13
REMARK    5  A    between atoms: C_16  and  C_17
REMARK    6  A    between atoms: C_17  and  N_18
REMARK                            x       y       z     vdW  Elec       q    Type
REMARK                         _______ _______ _______ _____ _____    ______ ____
ROOT
ATOM      1  C   UNL     1      46.375   4.795  14.021  0.00  0.00    +0.000 A 
ATOM      2  C   UNL     1      47.351   5.696  13.572  0.00  0.00    +0.000 A 
ATOM      3  C   UNL     1      47.254   6.292  12.314  0.00  0.00    +0.000 A 
ATOM      4  C   UNL     1      46.207   5.976  11.445  0.00  0.00    +0.000 A 
ATOM      5  C   UNL     1      45.265   5.023  11.861  0.00  0.00    +0.000 A 
ATOM      6  C   UNL     1      45.320   4.446  13.141  0.00  0.00    +0.000 A 
ATOM      7  C   UNL     1      44.200   3.577  13.252  0.00  0.00    +0.000 A 
ATOM      8  C   UNL     1      43.519   3.605  12.059  0.00  0.00    +0.000 A 
ATOM      9  N   UNL     1      44.182   4.456  11.207  0.00  0.00    +0.000 N 
ENDROOT
BRANCH   1  11
ATOM     10  C   UNL     1      47.547   4.501  16.054  0.00  0.00    +0.000 C 
ATOM     11  O   UNL     1      46.416   4.183  15.256  0.00  0.00    +0.000 OA
ENDBRANCH   1  11
BRANCH   9  12
ATOM     12  C   UNL     1      43.857   4.591   9.785  0.00  0.00    +0.000 C 
BRANCH  12  13
ATOM     13  C   UNL     1      44.763   3.759   8.914  0.00  0.00    +0.000 A 
ATOM     14  C   UNL     1      44.806   2.368   9.055  0.00  0.00    +0.000 A 
ATOM     15  C   UNL     1      45.761   1.613   8.371  0.00  0.00    +0.000 A 
ATOM     16  C   UNL     1      46.689   2.228   7.519  0.00  0.00    +0.000 A 
ATOM     17  C   UNL     1      46.587   3.610   7.311  0.00  0.00    +0.000 A 
ATOM     18  C   UNL     1      45.629   4.366   7.992  0.00  0.00    +0.000 A 
BRANCH  16  19
ATOM     19  C   UNL     1      47.854   1.420   6.992  0.00  0.00    +0.000 C 
BRANCH  19  20
ATOM     20  N   UNL     1      48.380   1.912   5.720  0.00  0.00    +0.000 NA
ATOM     21  H   UNL     1      49.265   2.387   5.893  0.00  0.00    +0.000 HD
ATOM     22  H   UNL     1      47.744   2.624   5.363  0.00  0.00    +0.000 HD
ENDBRANCH  19  20
ENDBRANCH  16  19
ENDBRANCH  12  13
ENDBRANCH   9  12
TORSDOF 5
ENDMDL
MODEL 2
REMARK VINA RESULT:    -7.862      1.221      1.433
REMARK INTER + INTRA:         -10.619
REMARK INTER:                 -10.029
REMARK INTRA:                  -0.591
REMARK UNBOUND:                -0.688
REMARK  Name = 
REMARK  6 active torsions:
REMARK  status: ('A' for Active; 'I' for Inactive)
REMARK    1  A    between atoms: C_1  and  O_2
REMARK    2  A    between atoms: O_2  and  C_3
REMARK    3  A    between atoms: N_11  and  C_12
REMARK    4  A    between atoms: C_12  and  C_13
REMARK    5  A    between atoms: C_16  and  C_17
REMARK    6  A    between atoms: C_17  and  N_18
REMARK                            x       y       z     vdW  Elec       q    Type
REMARK                         _______ _______ _______ _____ _____    ______ ____
ROOT
ATOM      1  C   UNL     1      47.374   6.251  13.649  0.00  0.00    +0.000 A 
ATOM      2  C   UNL     1      47.323   7.541  13.101  0.00  0.00    +0.000 A 
ATOM      3  C   UNL     1      46.415   7.856  12.090  0.00  0.00    +0.000 A 
ATOM      4  C   UNL     1      45.560   6.886  11.560  0.00  0.00    +0.000 A 
ATOM      5  C   UNL     1      45.655   5.577  12.055  0.00  0.00    +0.000 A 
ATOM      6  C   UNL     1      46.531   5.251  13.104  0.00  0.00    +0.000 A 
ATOM      7  C   UNL     1      46.336   3.871  13.392  0.00  0.00    +0.000 A 
ATOM      8  C   UNL     1      45.399   3.381  12.513  0.00  0.00    +0.000 A 
ATOM      9  N   UNL     1      45.011   4.406  11.684  0.00  0.00    +0.000 N 
ENDROOT
BRANCH   1  11
ATOM     10  C   UNL     1      48.984   6.950  15.233  0.00  0.00    +0.000 C 
ATOM     11  O   UNL     1      48.245   5.886  14.653  0.00  0.00    +0.000 OA
ENDBRANCH   1  11
BRANCH   9  12
ATOM     12  C   UNL     1      44.169   4.215  10.501  0.00  0.00    +0.000 C 
BRANCH  12  13
ATOM     13  C   UNL     1      44.918   3.553   9.372  0.00  0.00    +0.000 A 
ATOM     14  C   UNL     1      44.988   2.159   9.285  0.00  0.00    +0.000 A 
ATOM     15  C   UNL     1      45.815   1.546   8.342  0.00  0.00    +0.000 A 
ATOM     16  C   UNL     1      46.585   2.312   7.454  0.00  0.00    +0.000 A 
ATOM     17  C   UNL     1      46.444   3.706   7.484  0.00  0.00    +0.000 A 
ATOM     18  C   UNL     1      45.613   4.320   8.426  0.00  0.00    +0.000 A 
BRANCH  16  19
ATOM     19  C   UNL     1      47.646   1.629   6.621  0.00  0.00    +0.000 C 
BRANCH  19  20
ATOM     20  N   UNL     1      48.715   2.524   6.185  0.00  0.00    +0.000 NA
ATOM     21  H   UNL     1      48.485   3.474   6.472  0.00  0.00    +0.000 HD
ATOM     22  H   UNL     1      48.730   2.535   5.166  0.00  0.00    +0.000 HD
ENDBRANCH  19  20
ENDBRANCH  16  19
ENDBRANCH  12  13
ENDBRANCH   9  12
TORSDOF 5
ENDMDL
MODEL 3
REMARK VINA RESULT:    -7.255      1.273      2.029
REMARK INTER + INTRA:          -9.852
REMARK INTER:                  -9.167
REMARK INTRA:                  -0.685
REMARK UNBOUND:                -0.688
REMARK  Name = 
REMARK  6 active torsions:
REMARK  status: ('A' for Active; 'I' for Inactive)
REMARK    1  A    between atoms: C_1  and  O_2
REMARK    2  A    between atoms: O_2  and  C_3
REMARK    3  A    between atoms: N_11  and  C_12
REMARK    4  A    between atoms: C_12  and  C_13
REMARK    5  A    between atoms: C_16  and  C_17
REMARK    6  A    between atoms: C_17  and  N_18
REMARK                            x       y       z     vdW  Elec       q    Type
REMARK                         _______ _______ _______ _____ _____    ______ ____
ROOT
ATOM      1  C   UNL     1      47.166   6.065  13.959  0.00  0.00    +0.000 A 
ATOM      2  C   UNL     1      47.361   4.773  14.468  0.00  0.00    +0.000 A 
ATOM      3  C   UNL     1      46.828   3.658  13.820  0.00  0.00    +0.000 A 
ATOM      4  C   UNL     1      46.046   3.798  12.670  0.00  0.00    +0.000 A 
ATOM      5  C   UNL     1      45.789   5.093  12.196  0.00  0.00    +0.000 A 
ATOM      6  C   UNL     1      46.355   6.224  12.809  0.00  0.00    +0.000 A 
ATOM      7  C   UNL     1      45.940   7.356  12.052  0.00  0.00    +0.000 A 
ATOM      8  C   UNL     1      45.119   6.915  11.042  0.00  0.00    +0.000 A 
ATOM      9  N   UNL     1      45.003   5.549  11.149  0.00  0.00    +0.000 N 
ENDROOT
BRANCH   1  11
ATOM     10  C   UNL     1      48.971   7.062  15.117  0.00  0.00    +0.000 C 
ATOM     11  O   UNL     1      47.676   7.200  14.554  0.00  0.00    +0.000 OA
ENDBRANCH   1  11
BRANCH   9  12
ATOM     12  C   UNL     1      44.058   4.754  10.362  0.00  0.00    +0.000 C 
BRANCH  12  13
ATOM     13  C   UNL     1      44.758   3.841   9.387  0.00  0.00    +0.000 A 
ATOM     14  C   UNL     1      44.635   2.452   9.499  0.00  0.00    +0.000 A 
ATOM     15  C   UNL     1      45.411   1.603   8.707  0.00  0.00    +0.000 A 
ATOM     16  C   UNL     1      46.321   2.122   7.775  0.00  0.00    +0.000 A 
ATOM     17  C   UNL     1      46.377   3.511   7.602  0.00  0.00    +0.000 A 
ATOM     18  C   UNL     1      45.598   4.361   8.392  0.00  0.00    +0.000 A 
BRANCH  16  19
ATOM     19  C   UNL     1      47.314   1.190   7.116  0.00  0.00    +0.000 C 
BRANCH  19  20
ATOM     20  N   UNL     1      48.251   1.867   6.223  0.00  0.00    +0.000 NA
ATOM     21  H   UNL     1      49.200   1.686   6.546  0.00  0.00    +0.000 HD
ATOM     22  H   UNL     1      48.110   2.873   6.313  0.00  0.00    +0.000 HD
ENDBRANCH  19  20
ENDBRANCH  16  19
ENDBRANCH  12  13
ENDBRANCH   9  12
TORSDOF 5
ENDMDL
MODEL 4
REMARK VINA RESULT:    -6.830      2.334      3.130
REMARK INTER + INTRA:          -9.315
REMARK INTER:                  -8.721
REMARK INTRA:                  -0.594
REMARK UNBOUND:                -0.688
REMARK  Name = 
REMARK  6 active torsions:
REMARK  status: ('A' for Active; 'I' for Inactive)
REMARK    1  A    between atoms: C_1  and  O_2
REMARK    2  A    between atoms: O_2  and  C_3
REMARK    3  A    between atoms: N_11  and  C_12
REMARK    4  A    between atoms: C_12  and  C_13
REMARK    5  A    between atoms: C_16  and  C_17
REMARK    6  A    between atoms: C_17  and  N_18
REMARK                            x       y       z     vdW  Elec       q    Type
REMARK                         _______ _______ _______ _____ _____    ______ ____
ROOT
ATOM      1  C   UNL     1      45.934   8.784  12.219  0.00  0.00    +0.000 A 
ATOM      2  C   UNL     1      44.970   9.658  11.696  0.00  0.00    +0.000 A 
ATOM      3  C   UNL     1      43.818   9.170  11.079  0.00  0.00    +0.000 A 
ATOM      4  C   UNL     1      43.611   7.798  10.920  0.00  0.00    +0.000 A 
ATOM      5  C   UNL     1      44.605   6.920  11.378  0.00  0.00    +0.000 A 
ATOM      6  C   UNL     1      45.749   7.390  12.044  0.00  0.00    +0.000 A 
ATOM      7  C   UNL     1      46.511   6.247  12.415  0.00  0.00    +0.000 A 
ATOM      8  C   UNL     1      45.857   5.130  11.951  0.00  0.00    +0.000 A 
ATOM      9  N   UNL     1      44.721   5.540  11.296  0.00  0.00    +0.000 N 
ENDROOT
BRANCH   1  11
ATOM     10  C   UNL     1      47.739  10.311  12.233  0.00  0.00    +0.000 C 
ATOM     11  O   UNL     1      47.086   9.210  12.845  0.00  0.00    +0.000 OA
ENDBRANCH   1  11
BRANCH   9  12
ATOM     12  C   UNL     1      43.875   4.643  10.506  0.00  0.00    +0.000 C 
BRANCH  12  13
ATOM     13  C   UNL     1      44.665   3.876   9.476  0.00  0.00    +0.000 A 
ATOM     14  C   UNL     1      44.700   2.478   9.501  0.00  0.00    +0.000 A 
ATOM     15  C   UNL     1      45.560   1.773   8.658  0.00  0.00    +0.000 A 
ATOM     16  C   UNL     1      46.399   2.448   7.759  0.00  0.00    +0.000 A 
ATOM     17  C   UNL     1      46.297   3.843   7.673  0.00  0.00    +0.000 A 
ATOM     18  C   UNL     1      45.433   4.549   8.515  0.00  0.00    +0.000 A 
BRANCH  16  19
ATOM     19  C   UNL     1      47.485   1.676   7.043  0.00  0.00    +0.000 C 
BRANCH  19  20
ATOM     20  N   UNL     1      48.489   2.528   6.410  0.00  0.00    +0.000 NA
ATOM     21  H   UNL     1      49.415   2.173   6.645  0.00  0.00    +0.000 HD
ATOM     22  H   UNL     1      48.431   3.456   6.826  0.00  0.00    +0.000 HD
ENDBRANCH  19  20
ENDBRANCH  16  19
ENDBRANCH  12  13
ENDBRANCH   9  12
TORSDOF 5
ENDMDL
MODEL 5
REMARK VINA RESULT:    -5.684      2.596      3.972
REMARK INTER + INTRA:          -7.867
REMARK INTER:                  -7.296
REMARK INTRA:                  -0.572
REMARK UNBOUND:                -0.688
REMARK  Name = 
REMARK  6 active torsions:
REMARK  status: ('A' for Active; 'I' for Inactive)
REMARK    1  A    between atoms: C_1  and  O_2
REMARK    2  A    between atoms: O_2  and  C_3
REMARK    3  A    between atoms: N_11  and  C_12
REMARK    4  A    between atoms: C_12  and  C_13
REMARK    5  A    between atoms: C_16  and  C_17
REMARK    6  A    between atoms: C_17  and  N_18
REMARK                            x       y       z     vdW  Elec       q    Type
REMARK                         _______ _______ _______ _____ _____    ______ ____
ROOT
ATOM      1  C   UNL     1      48.443   8.726  12.628  0.00  0.00    +0.000 A 
ATOM      2  C   UNL     1      47.802   9.884  12.162  0.00  0.00    +0.000 A 
ATOM      3  C   UNL     1      46.412   9.948  12.070  0.00  0.00    +0.000 A 
ATOM      4  C   UNL     1      45.616   8.846  12.395  0.00  0.00    +0.000 A 
ATOM      5  C   UNL     1      46.254   7.663  12.795  0.00  0.00    +0.000 A 
ATOM      6  C   UNL     1      47.650   7.593  12.938  0.00  0.00    +0.000 A 
ATOM      7  C   UNL     1      47.954   6.284  13.404  0.00  0.00    +0.000 A 
ATOM      8  C   UNL     1      46.776   5.582  13.500  0.00  0.00    +0.000 A 
ATOM      9  N   UNL     1      45.752   6.407  13.101  0.00  0.00    +0.000 N 
ENDROOT
BRANCH   1  11
ATOM     10  C   UNL     1      50.474   8.052  11.622  0.00  0.00    +0.000 C 
ATOM     11  O   UNL     1      49.811   8.611  12.746  0.00  0.00    +0.000 OA
ENDBRANCH   1  11
BRANCH   9  12
ATOM     12  C   UNL     1      44.378   5.945  12.889  0.00  0.00    +0.000 C 
BRANCH  12  13
ATOM     13  C   UNL     1      44.286   4.923  11.784  0.00  0.00    +0.000 A 
ATOM     14  C   UNL     1      43.653   3.694  12.003  0.00  0.00    +0.000 A 
ATOM     15  C   UNL     1      43.712   2.684  11.041  0.00  0.00    +0.000 A 
ATOM     16  C   UNL     1      44.395   2.879   9.832  0.00  0.00    +0.000 A 
ATOM     17  C   UNL     1      44.952   4.140   9.579  0.00  0.00    +0.000 A 
ATOM     18  C   UNL     1      44.890   5.154  10.540  0.00  0.00    +0.000 A 
BRANCH  16  19
ATOM     19  C   UNL     1      44.648   1.694   8.928  0.00  0.00    +0.000 C 
BRANCH  19  20
ATOM     20  N   UNL     1      46.046   1.550   8.528  0.00  0.00    +0.000 NA
ATOM     21  H   UNL     1      46.178   2.010   7.628  0.00  0.00    +0.000 HD
ATOM     22  H   UNL     1      46.233   0.561   8.366  0.00  0.00    +0.000 HD
ENDBRANCH  19  20
ENDBRANCH  16  19
ENDBRANCH  12  13
ENDBRANCH   9  12
TORSDOF 5
ENDMDL
MODEL 6
REMARK VINA RESULT:    -5.402      3.210      4.722
REMARK INTER + INTRA:          -7.512
REMARK INTER:                  -7.023
REMARK INTRA:                  -0.489
REMARK UNBOUND:                -0.688
REMARK  Name = 
REMARK  6 active torsions:
REMARK  status: ('A' for Active; 'I' for Inactive)
REMARK    1  A    between atoms: C_1  and  O_2
REMARK    2  A    between atoms: O_2  and  C_3
REMARK    3  A    between atoms: N_11  and  C_12
REMARK    4  A    between atoms: C_12  and  C_13
REMARK    5  A    between atoms: C_16  and  C_17
REMARK    6  A    between atoms: C_17  and  N_18
REMARK                            x       y       z     vdW  Elec       q    Type
REMARK                         _______ _______ _______ _____ _____    ______ ____
ROOT
ATOM      1  C   UNL     1      48.769   9.653  11.953  0.00  0.00    +0.000 A 
ATOM      2  C   UNL     1      49.877   8.794  12.005  0.00  0.00    +0.000 A 
ATOM      3  C   UNL     1      49.711   7.417  12.154  0.00  0.00    +0.000 A 
ATOM      4  C   UNL     1      48.441   6.856  12.304  0.00  0.00    +0.000 A 
ATOM      5  C   UNL     1      47.333   7.717  12.323  0.00  0.00    +0.000 A 
ATOM      6  C   UNL     1      47.476   9.101  12.127  0.00  0.00    +0.000 A 
ATOM      7  C   UNL     1      46.168   9.660  12.152  0.00  0.00    +0.000 A 
ATOM      8  C   UNL     1      45.275   8.643  12.393  0.00  0.00    +0.000 A 
ATOM      9  N   UNL     1      45.984   7.473  12.528  0.00  0.00    +0.000 N 
ENDROOT
BRANCH   1  11
ATOM     10  C   UNL     1      49.038  11.470  10.463  0.00  0.00    +0.000 C 
ATOM     11  O   UNL     1      48.874  11.019  11.799  0.00  0.00    +0.000 OA
ENDBRANCH   1  11
BRANCH   9  12
ATOM     12  C   UNL     1      45.387   6.214  12.979  0.00  0.00    +0.000 C 
BRANCH  12  13
ATOM     13  C   UNL     1      45.013   5.317  11.826  0.00  0.00    +0.000 A 
ATOM     14  C   UNL     1      44.324   4.120  12.049  0.00  0.00    +0.000 A 
ATOM     15  C   UNL     1      44.124   3.209  11.010  0.00  0.00    +0.000 A 
ATOM     16  C   UNL     1      44.600   3.477   9.718  0.00  0.00    +0.000 A 
ATOM     17  C   UNL     1      45.211   4.715   9.477  0.00  0.00    +0.000 A 
ATOM     18  C   UNL     1      45.407   5.629  10.517  0.00  0.00    +0.000 A 
BRANCH  16  19
ATOM     19  C   UNL     1      44.586   2.373   8.684  0.00  0.00    +0.000 C 
BRANCH  19  20
ATOM     20  N   UNL     1      45.631   1.372   8.881  0.00  0.00    +0.000 NA
ATOM     21  H   UNL     1      46.538   1.837   8.859  0.00  0.00    +0.000 HD
ATOM     22  H   UNL     1      45.622   0.737   8.084  0.00  0.00    +0.000 HD
ENDBRANCH  19  20
ENDBRANCH  16  19
ENDBRANCH  12  13
ENDBRANCH   9  12
TORSDOF 5
ENDMDL
MODEL 7
REMARK VINA RESULT:    -5.360      3.153      6.092
REMARK INTER + INTRA:          -7.458
REMARK INTER:                  -7.081
REMARK INTRA:                  -0.377
REMARK UNBOUND:                -0.688
REMARK  Name = 
REMARK  6 active torsions:
REMARK  status: ('A' for Active; 'I' for Inactive)
REMARK    1  A    between atoms: C_1  and  O_2
REMARK    2  A    between atoms: O_2  and  C_3
REMARK    3  A    between atoms: N_11  and  C_12
REMARK    4  A    between atoms: C_12  and  C_13
REMARK    5  A    between atoms: C_16  and  C_17
REMARK    6  A    between atoms: C_17  and  N_18
REMARK                            x       y       z     vdW  Elec       q    Type
REMARK                         _______ _______ _______ _____ _____    ______ ____
ROOT
ATOM      1  C   UNL     1      44.190   3.056  10.233  0.00  0.00    +0.000 A 
ATOM      2  C   UNL     1      43.549   2.455  11.326  0.00  0.00    +0.000 A 
ATOM      3  C   UNL     1      43.456   3.111  12.554  0.00  0.00    +0.000 A 
ATOM      4  C   UNL     1      44.039   4.366  12.746  0.00  0.00    +0.000 A 
ATOM      5  C   UNL     1      44.742   4.941  11.678  0.00  0.00    +0.000 A 
ATOM      6  C   UNL     1      44.807   4.318  10.421  0.00  0.00    +0.000 A 
ATOM      7  C   UNL     1      45.540   5.186   9.565  0.00  0.00    +0.000 A 
ATOM      8  C   UNL     1      45.933   6.278  10.302  0.00  0.00    +0.000 A 
ATOM      9  N   UNL     1      45.477   6.114  11.588  0.00  0.00    +0.000 N 
ENDROOT
BRANCH   1  11
ATOM     10  C   UNL     1      45.516   1.754   8.770  0.00  0.00    +0.000 C 
ATOM     11  O   UNL     1      44.304   2.458   8.996  0.00  0.00    +0.000 OA
ENDBRANCH   1  11
BRANCH   9  12
ATOM     12  C   UNL     1      45.866   6.983  12.700  0.00  0.00    +0.000 C 
BRANCH  12  13
ATOM     13  C   UNL     1      47.281   7.485  12.561  0.00  0.00    +0.000 A 
ATOM     14  C   UNL     1      47.535   8.777  12.089  0.00  0.00    +0.000 A 
ATOM     15  C   UNL     1      48.839   9.186  11.801  0.00  0.00    +0.000 A 
ATOM     16  C   UNL     1      49.923   8.316  11.989  0.00  0.00    +0.000 A 
ATOM     17  C   UNL     1      49.675   7.055  12.546  0.00  0.00    +0.000 A 
ATOM     18  C   UNL     1      48.371   6.647  12.838  0.00  0.00    +0.000 A 
BRANCH  16  19
ATOM     19  C   UNL     1      51.279   8.700  11.440  0.00  0.00    +0.000 C 
BRANCH  19  20
ATOM     20  N   UNL     1      52.075   7.559  10.993  0.00  0.00    +0.000 NA
ATOM     21  H   UNL     1      52.778   7.888  10.333  0.00  0.00    +0.000 HD
ATOM     22  H   UNL     1      51.468   6.930  10.467  0.00  0.00    +0.000 HD
ENDBRANCH  19  20
ENDBRANCH  16  19
ENDBRANCH  12  13
ENDBRANCH   9  12
TORSDOF 5
ENDMDL
MODEL 8
REMARK VINA RESULT:    -5.132      3.744      5.915
REMARK INTER + INTRA:          -7.171
REMARK INTER:                  -6.727
REMARK INTRA:                  -0.444
REMARK UNBOUND:                -0.688
REMARK  Name = 
REMARK  6 active torsions:
REMARK  status: ('A' for Active; 'I' for Inactive)
REMARK    1  A    between atoms: C_1  and  O_2
REMARK    2  A    between atoms: O_2  and  C_3
REMARK    3  A    between atoms: N_11  and  C_12
REMARK    4  A    between atoms: C_12  and  C_13
REMARK    5  A    between atoms: C_16  and  C_17
REMARK    6  A    between atoms: C_17  and  N_18
REMARK                            x       y       z     vdW  Elec       q    Type
REMARK                         _______ _______ _______ _____ _____    ______ ____
ROOT
ATOM      1  C   UNL     1      50.423   9.650  11.375  0.00  0.00    +0.000 A 
ATOM      2  C   UNL     1      49.871  10.839  10.877  0.00  0.00    +0.000 A 
ATOM      3  C   UNL     1      48.523  11.143  11.073  0.00  0.00    +0.000 A 
ATOM      4  C   UNL     1      47.672  10.251  11.731  0.00  0.00    +0.000 A 
ATOM      5  C   UNL     1      48.202   9.029  12.170  0.00  0.00    +0.000 A 
ATOM      6  C   UNL     1      49.566   8.725  12.022  0.00  0.00    +0.000 A 
ATOM      7  C   UNL     1      49.773   7.449  12.616  0.00  0.00    +0.000 A 
ATOM      8  C   UNL     1      48.560   6.989  13.070  0.00  0.00    +0.000 A 
ATOM      9  N   UNL     1      47.605   7.931  12.771  0.00  0.00    +0.000 N 
ENDROOT
BRANCH   1  11
ATOM     10  C   UNL     1      52.561   9.468  12.369  0.00  0.00    +0.000 C 
ATOM     11  O   UNL     1      51.748   9.303  11.217  0.00  0.00    +0.000 OA
ENDBRANCH   1  11
BRANCH   9  12
ATOM     12  C   UNL     1      46.167   7.704  12.931  0.00  0.00    +0.000 C 
BRANCH  12  13
ATOM     13  C   UNL     1      45.736   6.372  12.372  0.00  0.00    +0.000 A 
ATOM     14  C   UNL     1      45.744   6.143  10.992  0.00  0.00    +0.000 A 
ATOM     15  C   UNL     1      45.190   4.977  10.461  0.00  0.00    +0.000 A 
ATOM     16  C   UNL     1      44.624   4.004  11.298  0.00  0.00    +0.000 A 
ATOM     17  C   UNL     1      44.698   4.194  12.684  0.00  0.00    +0.000 A 
ATOM     18  C   UNL     1      45.256   5.360  13.216  0.00  0.00    +0.000 A 
BRANCH  16  19
ATOM     19  C   UNL     1      43.820   2.880  10.683  0.00  0.00    +0.000 C 
BRANCH  19  20
ATOM     20  N   UNL     1      43.038   2.119  11.654  0.00  0.00    +0.000 NA
ATOM     21  H   UNL     1      43.210   2.500  12.584  0.00  0.00    +0.000 HD
ATOM     22  H   UNL     1      43.392   1.163  11.673  0.00  0.00    +0.000 HD
ENDBRANCH  19  20
ENDBRANCH  16  19
ENDBRANCH  12  13
ENDBRANCH   9  12
TORSDOF 5
ENDMDL
