MODEL 1
REMARK VINA RESULT:    -8.661      0.000      0.000
REMARK INTER + INTRA:         -12.802
REMARK INTER:                 -11.699
REMARK INTRA:                  -1.102
REMARK UNBOUND:                -1.102
REMARK  Name = 
REMARK  6 active torsions:
REMARK  status: ('A' for Active; 'I' for Inactive)
REMARK    1  A    between atoms: C_2  and  C_3
REMARK    2  A    between atoms: C_6  and  N_7
REMARK    3  A    between atoms: N_7  and  C_8
REMARK    4  A    between atoms: C_8  and  C_9
REMARK    5  A    between atoms: C_9  and  C_12
REMARK    6  A    between atoms: C_16  and  C_17
REMARK                            x       y       z     vdW  Elec       q    Type
REMARK                         _______ _______ _______ _____ _____    ______ ____
ROOT
ATOM      1  C   UNL     1      43.497   5.212  12.122  0.00  0.00    +0.000 C 
ATOM      2  F   UNL     1      42.881   6.154  11.350  0.00  0.00    +0.000 F 
ATOM      3  F   UNL     1      42.773   5.167  13.283  0.00  0.00    +0.000 F 
ENDROOT
BRANCH   1   4
ATOM      4  C   UNL     1      44.958   5.547  12.369  0.00  0.00    +0.000 A 
ATOM      5  C   UNL     1      45.658   6.366  11.476  0.00  0.00    +0.000 A 
ATOM      6  C   UNL     1      46.982   6.711  11.732  0.00  0.00    +0.000 A 
ATOM      7  C   UNL     1      47.615   6.253  12.891  0.00  0.00    +0.000 A 
ATOM      8  C   UNL     1      46.943   5.445  13.824  0.00  0.00    +0.000 A 
ATOM      9  C   UNL     1      45.612   5.089  13.532  0.00  0.00    +0.000 A 
BRANCH   8  10
ATOM     10  C   UNL     1      47.596   5.019  15.081  0.00  0.00    +0.000 A 
ATOM     11  C   UNL     1      48.636   5.759  15.662  0.00  0.00    +0.000 A 
ATOM     12  N   UNL     1      49.267   5.451  16.825  0.00  0.00    +0.000 NA
ATOM     13  C   UNL     1      48.838   4.340  17.461  0.00  0.00    +0.000 A 
ATOM     14  C   UNL     1      47.823   3.537  16.980  0.00  0.00    +0.000 A 
ATOM     15  F   UNL     1      47.436   2.450  17.659  0.00  0.00    +0.000 F 
ATOM     16  C   UNL     1      47.200   3.871  15.783  0.00  0.00    +0.000 A 
ENDBRANCH   8  10
ENDBRANCH   1   4
BRANCH   1  17
ATOM     17  C   UNL     1      43.382   3.829  11.428  0.00  0.00    +0.000 C 
BRANCH  17  18
ATOM     18  N   UNL     1      43.376   3.900   9.956  0.00  0.00    +0.000 N 
ATOM     19  H   UNL     1      42.478   3.674   9.528  0.00  0.00    +0.000 HD
BRANCH  18  23
ATOM     20  C   UNL     1      46.560   2.487   7.572  0.00  0.00    +0.000 A 
ATOM     21  C   UNL     1      46.267   3.850   7.591  0.00  0.00    +0.000 A 
ATOM     22  C   UNL     1      45.229   4.337   8.395  0.00  0.00    +0.000 A 
ATOM     23  C   UNL     1      44.482   3.484   9.218  0.00  0.00    +0.000 A 
ATOM     24  C   UNL     1      44.785   2.116   9.178  0.00  0.00    +0.000 A 
ATOM     25  C   UNL     1      45.813   1.616   8.368  0.00  0.00    +0.000 A 
BRANCH  20  27
ATOM     26  N   UNL     1      48.448   1.571   6.048  0.00  0.00    +0.000 NA
ATOM     27  C   UNL     1      47.603   1.986   6.728  0.00  0.00    +0.000 C 
ENDBRANCH  20  27
ENDBRANCH  18  23
ENDBRANCH  17  18
ENDBRANCH   1  17
TORSDOF 6
ENDMDL
MODEL 2
REMARK VINA RESULT:    -8.440      2.677      4.209
REMARK INTER + INTRA:         -12.503
REMARK INTER:                 -11.481
REMARK INTRA:                  -1.022
REMARK UNBOUND:                -1.102
REMARK  Name = 
REMARK  6 active torsions:
REMARK  status: ('A' for Active; 'I' for Inactive)
REMARK    1  A    between atoms: C_2  and  C_3
REMARK    2  A    between atoms: C_6  and  N_7
REMARK    3  A    between atoms: N_7  and  C_8
REMARK    4  A    between atoms: C_8  and  C_9
REMARK    5  A    between atoms: C_9  and  C_12
REMARK    6  A    between atoms: C_16  and  C_17
REMARK                            x       y       z     vdW  Elec       q    Type
REMARK                         _______ _______ _______ _____ _____    ______ ____
ROOT
ATOM      1  C   UNL     1      43.274   4.876  12.583  0.00  0.00    +0.000 C 
ATOM      2  F   UNL     1      42.413   5.871  12.222  0.00  0.00    +0.000 F 
ATOM      3  F   UNL     1      42.715   4.300  13.692  0.00  0.00    +0.000 F 
ENDROOT
BRANCH   1   4
ATOM      4  C   UNL     1      44.672   5.406  12.855  0.00  0.00    +0.000 A 
ATOM      5  C   UNL     1      45.655   4.568  13.392  0.00  0.00    +0.000 A 
ATOM      6  C   UNL     1      46.947   5.045  13.593  0.00  0.00    +0.000 A 
ATOM      7  C   UNL     1      47.274   6.358  13.246  0.00  0.00    +0.000 A 
ATOM      8  C   UNL     1      46.322   7.227  12.685  0.00  0.00    +0.000 A 
ATOM      9  C   UNL     1      45.015   6.730  12.513  0.00  0.00    +0.000 A 
BRANCH   8  10
ATOM     10  C   UNL     1      46.689   8.594  12.257  0.00  0.00    +0.000 A 
ATOM     11  C   UNL     1      45.734   9.616  12.146  0.00  0.00    +0.000 A 
ATOM     12  N   UNL     1      45.994  10.900  11.787  0.00  0.00    +0.000 NA
ATOM     13  C   UNL     1      47.285  11.198  11.525  0.00  0.00    +0.000 A 
ATOM     14  C   UNL     1      48.306  10.271  11.602  0.00  0.00    +0.000 A 
ATOM     15  F   UNL     1      49.569  10.627  11.337  0.00  0.00    +0.000 F 
ATOM     16  C   UNL     1      48.010   8.962  11.964  0.00  0.00    +0.000 A 
ENDBRANCH   8  10
ENDBRANCH   1   4
BRANCH   1  17
ATOM     17  C   UNL     1      43.322   3.809  11.458  0.00  0.00    +0.000 C 
BRANCH  17  18
ATOM     18  N   UNL     1      43.637   4.361  10.128  0.00  0.00    +0.000 N 
ATOM     19  H   UNL     1      42.820   4.647   9.587  0.00  0.00    +0.000 HD
BRANCH  18  23
ATOM     20  C   UNL     1      46.581   2.608   7.663  0.00  0.00    +0.000 A 
ATOM     21  C   UNL     1      46.434   3.994   7.679  0.00  0.00    +0.000 A 
ATOM     22  C   UNL     1      45.477   4.592   8.509  0.00  0.00    +0.000 A 
ATOM     23  C   UNL     1      44.670   3.827   9.361  0.00  0.00    +0.000 A 
ATOM     24  C   UNL     1      44.827   2.434   9.324  0.00  0.00    +0.000 A 
ATOM     25  C   UNL     1      45.772   1.825   8.488  0.00  0.00    +0.000 A 
BRANCH  20  27
ATOM     26  N   UNL     1      48.316   1.490   6.092  0.00  0.00    +0.000 NA
ATOM     27  C   UNL     1      47.540   1.995   6.793  0.00  0.00    +0.000 C 
ENDBRANCH  20  27
ENDBRANCH  18  23
ENDBRANCH  17  18
ENDBRANCH   1  17
TORSDOF 6
ENDMDL
MODEL 3
REMARK VINA RESULT:    -7.974      0.845      1.376
REMARK INTER + INTRA:         -11.874
REMARK INTER:                 -10.931
REMARK INTRA:                  -0.943
REMARK UNBOUND:                -1.102
REMARK  Name = 
REMARK  6 active torsions:
REMARK  status: ('A' for Active; 'I' for Inactive)
REMARK    1  A    between atoms: C_2  and  C_3
REMARK    2  A    between atoms: C_6  and  N_7
REMARK    3  A    between atoms: N_7  and  C_8
REMARK    4  A    between atoms: C_8  and  C_9
REMARK    5  A    between atoms: C_9  and  C_12
REMARK    6  A    between atoms: C_16  and  C_17
REMARK                            x       y       z     vdW  Elec       q    Type
REMARK                         _______ _______ _______ _____ _____    ______ ____
ROOT
ATOM      1  C   UNL     1      44.684   6.201  11.807  0.00  0.00    +0.000 C 
ATOM      2  F   UNL     1      44.602   6.873  10.621  0.00  0.00    +0.000 F 
ATOM      3  F   UNL     1      43.750   6.786  12.618  0.00  0.00    +0.000 F 
ENDROOT
BRANCH   1   4
ATOM      4  C   UNL     1      46.081   6.265  12.400  0.00  0.00    +0.000 A 
ATOM      5  C   UNL     1      47.096   6.975  11.749  0.00  0.00    +0.000 A 
ATOM      6  C   UNL     1      48.361   7.072  12.321  0.00  0.00    +0.000 A 
ATOM      7  C   UNL     1      48.621   6.473  13.556  0.00  0.00    +0.000 A 
ATOM      8  C   UNL     1      47.626   5.766  14.253  0.00  0.00    +0.000 A 
ATOM      9  C   UNL     1      46.360   5.661  13.643  0.00  0.00    +0.000 A 
BRANCH   8  10
ATOM     10  C   UNL     1      47.887   5.191  15.590  0.00  0.00    +0.000 A 
ATOM     11  C   UNL     1      48.757   5.806  16.503  0.00  0.00    +0.000 A 
ATOM     12  N   UNL     1      49.028   5.358  17.756  0.00  0.00    +0.000 NA
ATOM     13  C   UNL     1      48.393   4.229  18.137  0.00  0.00    +0.000 A 
ATOM     14  C   UNL     1      47.516   3.541  17.321  0.00  0.00    +0.000 A 
ATOM     15  F   UNL     1      46.910   2.430  17.756  0.00  0.00    +0.000 F 
ATOM     16  C   UNL     1      47.264   4.018  16.040  0.00  0.00    +0.000 A 
ENDBRANCH   8  10
ENDBRANCH   1   4
BRANCH   1  17
ATOM     17  C   UNL     1      44.271   4.722  11.584  0.00  0.00    +0.000 C 
BRANCH  17  18
ATOM     18  N   UNL     1      43.811   4.432  10.214  0.00  0.00    +0.000 N 
ATOM     19  H   UNL     1      42.830   4.162  10.148  0.00  0.00    +0.000 HD
BRANCH  18  23
ATOM     20  C   UNL     1      46.544   2.597   7.572  0.00  0.00    +0.000 A 
ATOM     21  C   UNL     1      45.784   1.807   8.434  0.00  0.00    +0.000 A 
ATOM     22  C   UNL     1      44.857   2.400   9.300  0.00  0.00    +0.000 A 
ATOM     23  C   UNL     1      44.644   3.784   9.305  0.00  0.00    +0.000 A 
ATOM     24  C   UNL     1      45.423   4.562   8.437  0.00  0.00    +0.000 A 
ATOM     25  C   UNL     1      46.363   3.981   7.575  0.00  0.00    +0.000 A 
BRANCH  20  27
ATOM     26  N   UNL     1      48.301   1.498   6.013  0.00  0.00    +0.000 NA
ATOM     27  C   UNL     1      47.512   1.992   6.707  0.00  0.00    +0.000 C 
ENDBRANCH  20  27
ENDBRANCH  18  23
ENDBRANCH  17  18
ENDBRANCH   1  17
TORSDOF 6
ENDMDL
MODEL 4
REMARK VINA RESULT:    -7.608      1.876      2.275
REMARK INTER + INTRA:         -11.379
REMARK INTER:                 -10.599
REMARK INTRA:                  -0.779
REMARK UNBOUND:                -1.102
REMARK  Name = 
REMARK  6 active torsions:
REMARK  status: ('A' for Active; 'I' for Inactive)
REMARK    1  A    between atoms: C_2  and  C_3
REMARK    2  A    between atoms: C_6  and  N_7
REMARK    3  A    between atoms: N_7  and  C_8
REMARK    4  A    between atoms: C_8  and  C_9
REMARK    5  A    between atoms: C_9  and  C_12
REMARK    6  A    between atoms: C_16  and  C_17
REMARK                            x       y       z     vdW  Elec       q    Type
REMARK                         _______ _______ _______ _____ _____    ______ ____
ROOT
ATOM      1  C   UNL     1      44.690   5.037  12.315  0.00  0.00    +0.000 C 
ATOM      2  F   UNL     1      43.734   4.808  13.261  0.00  0.00    +0.000 F 
ATOM      3  F   UNL     1      45.473   3.914  12.314  0.00  0.00    +0.000 F 
ENDROOT
BRANCH   1   4
ATOM      4  C   UNL     1      45.490   6.294  12.609  0.00  0.00    +0.000 A 
ATOM      5  C   UNL     1      44.979   7.553  12.276  0.00  0.00    +0.000 A 
ATOM      6  C   UNL     1      45.693   8.705  12.592  0.00  0.00    +0.000 A 
ATOM      7  C   UNL     1      46.918   8.611  13.257  0.00  0.00    +0.000 A 
ATOM      8  C   UNL     1      47.459   7.368  13.628  0.00  0.00    +0.000 A 
ATOM      9  C   UNL     1      46.730   6.215  13.276  0.00  0.00    +0.000 A 
BRANCH   8  10
ATOM     10  C   UNL     1      48.722   7.277  14.391  0.00  0.00    +0.000 A 
ATOM     11  C   UNL     1      49.904   7.884  13.941  0.00  0.00    +0.000 A 
ATOM     12  N   UNL     1      51.095   7.871  14.594  0.00  0.00    +0.000 NA
ATOM     13  C   UNL     1      51.120   7.218  15.777  0.00  0.00    +0.000 A 
ATOM     14  C   UNL     1      50.017   6.585  16.315  0.00  0.00    +0.000 A 
ATOM     15  F   UNL     1      50.100   5.960  17.496  0.00  0.00    +0.000 F 
ATOM     16  C   UNL     1      48.813   6.608  15.620  0.00  0.00    +0.000 A 
ENDBRANCH   8  10
ENDBRANCH   1   4
BRANCH   1  17
ATOM     17  C   UNL     1      44.014   5.154  10.924  0.00  0.00    +0.000 C 
BRANCH  17  18
ATOM     18  N   UNL     1      43.923   3.875  10.197  0.00  0.00    +0.000 N 
ATOM     19  H   UNL     1      43.530   3.107  10.743  0.00  0.00    +0.000 HD
BRANCH  18  23
ATOM     20  C   UNL     1      46.762   2.562   7.362  0.00  0.00    +0.000 A 
ATOM     21  C   UNL     1      46.504   3.926   7.497  0.00  0.00    +0.000 A 
ATOM     22  C   UNL     1      45.581   4.378   8.449  0.00  0.00    +0.000 A 
ATOM     23  C   UNL     1      44.922   3.488   9.306  0.00  0.00    +0.000 A 
ATOM     24  C   UNL     1      45.188   2.121   9.150  0.00  0.00    +0.000 A 
ATOM     25  C   UNL     1      46.099   1.656   8.192  0.00  0.00    +0.000 A 
BRANCH  20  27
ATOM     26  N   UNL     1      48.433   1.731   5.561  0.00  0.00    +0.000 NA
ATOM     27  C   UNL     1      47.684   2.098   6.369  0.00  0.00    +0.000 C 
ENDBRANCH  20  27
ENDBRANCH  18  23
ENDBRANCH  17  18
ENDBRANCH   1  17
TORSDOF 6
ENDMDL
MODEL 5
REMARK VINA RESULT:    -7.585      2.601      3.772
REMARK INTER + INTRA:         -11.348
REMARK INTER:                 -10.659
REMARK INTRA:                  -0.689
REMARK UNBOUND:                -1.102
REMARK  Name = 
REMARK  6 active torsions:
REMARK  status: ('A' for Active; 'I' for Inactive)
REMARK    1  A    between atoms: C_2  and  C_3
REMARK    2  A    between atoms: C_6  and  N_7
REMARK    3  A    between atoms: N_7  and  C_8
REMARK    4  A    between atoms: C_8  and  C_9
REMARK    5  A    between atoms: C_9  and  C_12
REMARK    6  A    between atoms: C_16  and  C_17
REMARK                            x       y       z     vdW  Elec       q    Type
REMARK                         _______ _______ _______ _____ _____    ______ ____
ROOT
ATOM      1  C   UNL     1      44.953   3.949  12.477  0.00  0.00    +0.000 C 
ATOM      2  F   UNL     1      44.689   3.740  13.799  0.00  0.00    +0.000 F 
ATOM      3  F   UNL     1      45.944   3.058  12.162  0.00  0.00    +0.000 F 
ENDROOT
BRANCH   1   4
ATOM      4  C   UNL     1      45.363   5.385  12.200  0.00  0.00    +0.000 A 
ATOM      5  C   UNL     1      44.399   6.350  11.888  0.00  0.00    +0.000 A 
ATOM      6  C   UNL     1      44.774   7.674  11.684  0.00  0.00    +0.000 A 
ATOM      7  C   UNL     1      46.114   8.051  11.802  0.00  0.00    +0.000 A 
ATOM      8  C   UNL     1      47.113   7.118  12.133  0.00  0.00    +0.000 A 
ATOM      9  C   UNL     1      46.712   5.779  12.312  0.00  0.00    +0.000 A 
BRANCH   8  10
ATOM     10  C   UNL     1      48.518   7.534  12.324  0.00  0.00    +0.000 A 
ATOM     11  C   UNL     1      49.112   7.577  13.594  0.00  0.00    +0.000 A 
ATOM     12  N   UNL     1      50.401   7.920  13.850  0.00  0.00    +0.000 NA
ATOM     13  C   UNL     1      51.159   8.238  12.778  0.00  0.00    +0.000 A 
ATOM     14  C   UNL     1      50.678   8.230  11.483  0.00  0.00    +0.000 A 
ATOM     15  F   UNL     1      51.479   8.549  10.459  0.00  0.00    +0.000 F 
ATOM     16  C   UNL     1      49.352   7.883  11.251  0.00  0.00    +0.000 A 
ENDBRANCH   8  10
ENDBRANCH   1   4
BRANCH   1  17
ATOM     17  C   UNL     1      43.697   3.587  11.642  0.00  0.00    +0.000 C 
BRANCH  17  18
ATOM     18  N   UNL     1      43.743   4.078  10.253  0.00  0.00    +0.000 N 
ATOM     19  H   UNL     1      42.834   4.336   9.867  0.00  0.00    +0.000 HD
BRANCH  18  23
ATOM     20  C   UNL     1      46.593   2.500   7.569  0.00  0.00    +0.000 A 
ATOM     21  C   UNL     1      45.848   1.634   8.369  0.00  0.00    +0.000 A 
ATOM     22  C   UNL     1      44.882   2.142   9.247  0.00  0.00    +0.000 A 
ATOM     23  C   UNL     1      44.617   3.514   9.326  0.00  0.00    +0.000 A 
ATOM     24  C   UNL     1      45.381   4.370   8.520  0.00  0.00    +0.000 A 
ATOM     25  C   UNL     1      46.359   3.874   7.647  0.00  0.00    +0.000 A 
BRANCH  20  27
ATOM     26  N   UNL     1      48.415   1.555   5.984  0.00  0.00    +0.000 NA
ATOM     27  C   UNL     1      47.600   1.983   6.692  0.00  0.00    +0.000 C 
ENDBRANCH  20  27
ENDBRANCH  18  23
ENDBRANCH  17  18
ENDBRANCH   1  17
TORSDOF 6
ENDMDL
MODEL 6
REMARK VINA RESULT:    -7.374      3.194      7.273
REMARK INTER + INTRA:         -11.063
REMARK INTER:                 -10.238
REMARK INTRA:                  -0.825
REMARK UNBOUND:                -1.102
REMARK  Name = 
REMARK  6 active torsions:
REMARK  status: ('A' for Active; 'I' for Inactive)
REMARK    1  A    between atoms: C_2  and  C_3
REMARK    2  A    between atoms: C_6  and  N_7
REMARK    3  A    between atoms: N_7  and  C_8
REMARK    4  A    between atoms: C_8  and  C_9
REMARK    5  A    between atoms: C_9  and  C_12
REMARK    6  A    between atoms: C_16  and  C_17
REMARK                            x       y       z     vdW  Elec       q    Type
REMARK                         _______ _______ _______ _____ _____    ______ ____
ROOT
ATOM      1  C   UNL     1      44.371   6.463  11.406  0.00  0.00    +0.000 C 
ATOM      2  F   UNL     1      43.157   7.066  11.251  0.00  0.00    +0.000 F 
ATOM      3  F   UNL     1      45.232   7.179  10.619  0.00  0.00    +0.000 F 
ENDROOT
BRANCH   1   4
ATOM      4  C   UNL     1      44.329   4.994  11.022  0.00  0.00    +0.000 A 
ATOM      5  C   UNL     1      43.477   4.111  11.695  0.00  0.00    +0.000 A 
ATOM      6  C   UNL     1      43.406   2.776  11.307  0.00  0.00    +0.000 A 
ATOM      7  C   UNL     1      44.174   2.314  10.235  0.00  0.00    +0.000 A 
ATOM      8  C   UNL     1      45.027   3.171   9.520  0.00  0.00    +0.000 A 
ATOM      9  C   UNL     1      45.101   4.512   9.946  0.00  0.00    +0.000 A 
BRANCH   8  10
ATOM     10  C   UNL     1      45.786   2.694   8.345  0.00  0.00    +0.000 A 
ATOM     11  C   UNL     1      46.282   1.383   8.266  0.00  0.00    +0.000 A 
ATOM     12  N   UNL     1      46.963   0.861   7.214  0.00  0.00    +0.000 NA
ATOM     13  C   UNL     1      47.163   1.685   6.163  0.00  0.00    +0.000 A 
ATOM     14  C   UNL     1      46.719   2.992   6.132  0.00  0.00    +0.000 A 
ATOM     15  F   UNL     1      46.941   3.761   5.058  0.00  0.00    +0.000 F 
ATOM     16  C   UNL     1      46.032   3.504   7.227  0.00  0.00    +0.000 A 
ENDBRANCH   8  10
ENDBRANCH   1   4
BRANCH   1  17
ATOM     17  C   UNL     1      44.830   6.613  12.881  0.00  0.00    +0.000 C 
BRANCH  17  18
ATOM     18  N   UNL     1      45.543   7.872  13.158  0.00  0.00    +0.000 N 
ATOM     19  H   UNL     1      44.979   8.712  13.028  0.00  0.00    +0.000 HD
BRANCH  18  23
ATOM     20  C   UNL     1      49.568   8.139  11.914  0.00  0.00    +0.000 A 
ATOM     21  C   UNL     1      48.734   9.248  11.787  0.00  0.00    +0.000 A 
ATOM     22  C   UNL     1      47.402   9.183  12.217  0.00  0.00    +0.000 A 
ATOM     23  C   UNL     1      46.883   8.024  12.808  0.00  0.00    +0.000 A 
ATOM     24  C   UNL     1      47.735   6.916  12.919  0.00  0.00    +0.000 A 
ATOM     25  C   UNL     1      49.065   6.967  12.481  0.00  0.00    +0.000 A 
BRANCH  20  27
ATOM     26  N   UNL     1      52.021   8.246  11.079  0.00  0.00    +0.000 NA
ATOM     27  C   UNL     1      50.921   8.198  11.448  0.00  0.00    +0.000 C 
ENDBRANCH  20  27
ENDBRANCH  18  23
ENDBRANCH  17  18
ENDBRANCH   1  17
TORSDOF 6
ENDMDL
MODEL 7
REMARK VINA RESULT:    -7.080      2.337      7.631
REMARK INTER + INTRA:         -10.666
REMARK INTER:                  -9.802
REMARK INTRA:                  -0.863
REMARK UNBOUND:                -1.102
REMARK  Name = 
REMARK  6 active torsions:
REMARK  status: ('A' for Active; 'I' for Inactive)
REMARK    1  A    between atoms: C_2  and  C_3
REMARK    2  A    between atoms: C_6  and  N_7
REMARK    3  A    between atoms: N_7  and  C_8
REMARK    4  A    between atoms: C_8  and  C_9
REMARK    5  A    between atoms: C_9  and  C_12
REMARK    6  A    between atoms: C_16  and  C_17
REMARK                            x       y       z     vdW  Elec       q    Type
REMARK                         _______ _______ _______ _____ _____    ______ ____
ROOT
ATOM      1  C   UNL     1      44.536   6.661  11.583  0.00  0.00    +0.000 C 
ATOM      2  F   UNL     1      43.315   7.247  11.755  0.00  0.00    +0.000 F 
ATOM      3  F   UNL     1      45.150   7.390  10.601  0.00  0.00    +0.000 F 
ENDROOT
BRANCH   1   4
ATOM      4  C   UNL     1      44.415   5.192  11.217  0.00  0.00    +0.000 A 
ATOM      5  C   UNL     1      43.532   4.359  11.913  0.00  0.00    +0.000 A 
ATOM      6  C   UNL     1      43.388   3.025  11.542  0.00  0.00    +0.000 A 
ATOM      7  C   UNL     1      44.113   2.514  10.462  0.00  0.00    +0.000 A 
ATOM      8  C   UNL     1      44.996   3.321   9.723  0.00  0.00    +0.000 A 
ATOM      9  C   UNL     1      45.143   4.661  10.133  0.00  0.00    +0.000 A 
BRANCH   8  10
ATOM     10  C   UNL     1      45.710   2.794   8.541  0.00  0.00    +0.000 A 
ATOM     11  C   UNL     1      46.167   3.635   7.516  0.00  0.00    +0.000 A 
ATOM     12  N   UNL     1      46.852   3.234   6.414  0.00  0.00    +0.000 NA
ATOM     13  C   UNL     1      47.110   1.912   6.320  0.00  0.00    +0.000 A 
ATOM     14  C   UNL     1      46.708   0.993   7.269  0.00  0.00    +0.000 A 
ATOM     15  F   UNL     1      46.999  -0.306   7.125  0.00  0.00    +0.000 F 
ATOM     16  C   UNL     1      46.000   1.431   8.383  0.00  0.00    +0.000 A 
ENDBRANCH   8  10
ENDBRANCH   1   4
BRANCH   1  17
ATOM     17  C   UNL     1      45.364   6.815  12.886  0.00  0.00    +0.000 C 
BRANCH  17  18
ATOM     18  N   UNL     1      46.649   6.093  12.864  0.00  0.00    +0.000 N 
ATOM     19  H   UNL     1      46.778   5.489  12.052  0.00  0.00    +0.000 HD
BRANCH  18  23
ATOM     20  C   UNL     1      48.239   4.802  16.555  0.00  0.00    +0.000 A 
ATOM     21  C   UNL     1      47.316   4.000  15.886  0.00  0.00    +0.000 A 
ATOM     22  C   UNL     1      46.797   4.404  14.649  0.00  0.00    +0.000 A 
ATOM     23  C   UNL     1      47.207   5.596  14.040  0.00  0.00    +0.000 A 
ATOM     24  C   UNL     1      48.130   6.394  14.732  0.00  0.00    +0.000 A 
ATOM     25  C   UNL     1      48.646   6.005  15.975  0.00  0.00    +0.000 A 
BRANCH  20  27
ATOM     26  N   UNL     1      49.161   4.087  18.871  0.00  0.00    +0.000 NA
ATOM     27  C   UNL     1      48.748   4.402  17.833  0.00  0.00    +0.000 C 
ENDBRANCH  20  27
ENDBRANCH  18  23
ENDBRANCH  17  18
ENDBRANCH   1  17
TORSDOF 6
ENDMDL
MODEL 8
REMARK VINA RESULT:    -6.628      3.034      7.657
REMARK INTER + INTRA:         -10.055
REMARK INTER:                  -9.068
REMARK INTRA:                  -0.987
REMARK UNBOUND:                -1.102
REMARK  Name = 
REMARK  6 active torsions:
REMARK  status: ('A' for Active; 'I' for Inactive)
REMARK    1  A    between atoms: C_2  and  C_3
REMARK    2  A    between atoms: C_6  and  N_7
REMARK    3  A    between atoms: N_7  and  C_8
REMARK    4  A    between atoms: C_8  and  C_9
REMARK    5  A    between atoms: C_9  and  C_12
REMARK    6  A    between atoms: C_16  and  C_17
REMARK                            x       y       z     vdW  Elec       q    Type
REMARK                         _______ _______ _______ _____ _____    ______ ____
ROOT
ATOM      1  C   UNL     1      48.838   8.376  12.280  0.00  0.00    +0.000 C 
ATOM      2  F   UNL     1      49.244   9.431  11.515  0.00  0.00    +0.000 F 
ATOM      3  F   UNL     1      49.671   7.343  11.940  0.00  0.00    +0.000 F 
ENDROOT
BRANCH   1   4
ATOM      4  C   UNL     1      47.376   8.035  12.047  0.00  0.00    +0.000 A 
ATOM      5  C   UNL     1      46.375   8.961  12.360  0.00  0.00    +0.000 A 
ATOM      6  C   UNL     1      45.041   8.664  12.100  0.00  0.00    +0.000 A 
ATOM      7  C   UNL     1      44.695   7.445  11.510  0.00  0.00    +0.000 A 
ATOM      8  C   UNL     1      45.670   6.495  11.162  0.00  0.00    +0.000 A 
ATOM      9  C   UNL     1      47.012   6.808  11.457  0.00  0.00    +0.000 A 
BRANCH   8  10
ATOM     10  C   UNL     1      45.306   5.236  10.477  0.00  0.00    +0.000 A 
ATOM     11  C   UNL     1      44.604   4.214  11.133  0.00  0.00    +0.000 A 
ATOM     12  N   UNL     1      44.209   3.043  10.569  0.00  0.00    +0.000 NA
ATOM     13  C   UNL     1      44.522   2.871   9.266  0.00  0.00    +0.000 A 
ATOM     14  C   UNL     1      45.210   3.811   8.524  0.00  0.00    +0.000 A 
ATOM     15  F   UNL     1      45.487   3.588   7.233  0.00  0.00    +0.000 F 
ATOM     16  C   UNL     1      45.610   4.997   9.129  0.00  0.00    +0.000 A 
ENDBRANCH   8  10
ENDBRANCH   1   4
BRANCH   1  17
ATOM     17  C   UNL     1      49.072   8.711  13.776  0.00  0.00    +0.000 C 
BRANCH  17  18
ATOM     18  N   UNL     1      49.818   7.673  14.510  0.00  0.00    +0.000 N 
ATOM     19  H   UNL     1      50.645   7.327  14.023  0.00  0.00    +0.000 HD
BRANCH  18  23
ATOM     20  C   UNL     1      47.861   4.561  16.584  0.00  0.00    +0.000 A 
ATOM     21  C   UNL     1      48.902   5.252  17.203  0.00  0.00    +0.000 A 
ATOM     22  C   UNL     1      49.546   6.302  16.536  0.00  0.00    +0.000 A 
ATOM     23  C   UNL     1      49.148   6.706  15.256  0.00  0.00    +0.000 A 
ATOM     24  C   UNL     1      48.105   5.994  14.646  0.00  0.00    +0.000 A 
ATOM     25  C   UNL     1      47.462   4.934  15.299  0.00  0.00    +0.000 A 
BRANCH  20  27
ATOM     26  N   UNL     1      46.704   2.588  17.808  0.00  0.00    +0.000 NA
ATOM     27  C   UNL     1      47.222   3.469  17.255  0.00  0.00    +0.000 C 
ENDBRANCH  20  27
ENDBRANCH  18  23
ENDBRANCH  17  18
ENDBRANCH   1  17
TORSDOF 6
ENDMDL
MODEL 9
REMARK VINA RESULT:    -6.526      2.247      7.234
REMARK INTER + INTRA:          -9.918
REMARK INTER:                  -9.029
REMARK INTRA:                  -0.889
REMARK UNBOUND:                -1.102
REMARK  Name = 
REMARK  6 active torsions:
REMARK  status: ('A' for Active; 'I' for Inactive)
REMARK    1  A    between atoms: C_2  and  C_3
REMARK    2  A    between atoms: C_6  and  N_7
REMARK    3  A    between atoms: N_7  and  C_8
REMARK    4  A    between atoms: C_8  and  C_9
REMARK    5  A    between atoms: C_9  and  C_12
REMARK    6  A    between atoms: C_16  and  C_17
REMARK                            x       y       z     vdW  Elec       q    Type
REMARK                         _______ _______ _______ _____ _____    ______ ____
ROOT
ATOM      1  C   UNL     1      43.432   4.080  12.305  0.00  0.00    +0.000 C 
ATOM      2  F   UNL     1      43.037   2.780  12.167  0.00  0.00    +0.000 F 
ATOM      3  F   UNL     1      42.272   4.800  12.395  0.00  0.00    +0.000 F 
ENDROOT
BRANCH   1   4
ATOM      4  C   UNL     1      44.302   4.535  11.146  0.00  0.00    +0.000 A 
ATOM      5  C   UNL     1      44.694   5.874  11.039  0.00  0.00    +0.000 A 
ATOM      6  C   UNL     1      45.532   6.277  10.003  0.00  0.00    +0.000 A 
ATOM      7  C   UNL     1      45.999   5.344   9.074  0.00  0.00    +0.000 A 
ATOM      8  C   UNL     1      45.646   3.986   9.156  0.00  0.00    +0.000 A 
ATOM      9  C   UNL     1      44.777   3.606  10.198  0.00  0.00    +0.000 A 
BRANCH   8  10
ATOM     10  C   UNL     1      46.196   2.991   8.211  0.00  0.00    +0.000 A 
ATOM     11  C   UNL     1      46.885   3.375   7.050  0.00  0.00    +0.000 A 
ATOM     12  N   UNL     1      47.442   2.526   6.148  0.00  0.00    +0.000 NA
ATOM     13  C   UNL     1      47.316   1.207   6.412  0.00  0.00    +0.000 A 
ATOM     14  C   UNL     1      46.659   0.718   7.523  0.00  0.00    +0.000 A 
ATOM     15  F   UNL     1      46.571  -0.601   7.736  0.00  0.00    +0.000 F 
ATOM     16  C   UNL     1      46.090   1.609   8.426  0.00  0.00    +0.000 A 
ENDBRANCH   8  10
ENDBRANCH   1   4
BRANCH   1  17
ATOM     17  C   UNL     1      44.203   4.239  13.641  0.00  0.00    +0.000 C 
BRANCH  17  18
ATOM     18  N   UNL     1      45.645   3.954  13.534  0.00  0.00    +0.000 N 
ATOM     19  H   UNL     1      45.880   2.961  13.551  0.00  0.00    +0.000 HD
BRANCH  18  23
ATOM     20  C   UNL     1      48.654   6.224  15.434  0.00  0.00    +0.000 A 
ATOM     21  C   UNL     1      48.189   6.612  14.178  0.00  0.00    +0.000 A 
ATOM     22  C   UNL     1      47.174   5.883  13.546  0.00  0.00    +0.000 A 
ATOM     23  C   UNL     1      46.582   4.773  14.161  0.00  0.00    +0.000 A 
ATOM     24  C   UNL     1      47.069   4.392  15.419  0.00  0.00    +0.000 A 
ATOM     25  C   UNL     1      48.092   5.108  16.056  0.00  0.00    +0.000 A 
BRANCH  20  27
ATOM     26  N   UNL     1      50.574   7.544  16.574  0.00  0.00    +0.000 NA
ATOM     27  C   UNL     1      49.711   6.954  16.068  0.00  0.00    +0.000 C 
ENDBRANCH  20  27
ENDBRANCH  18  23
ENDBRANCH  17  18
ENDBRANCH   1  17
TORSDOF 6
ENDMDL
