MODEL 1
REMARK VINA RESULT:    -7.587      0.000      0.000
REMARK INTER + INTRA:         -10.064
REMARK INTER:                  -9.361
REMARK INTRA:                  -0.703
REMARK UNBOUND:                -0.703
REMARK  Name = 
REMARK  4 active torsions:
REMARK  status: ('A' for Active; 'I' for Inactive)
REMARK    1  A    between atoms: C_5  and  N_6
REMARK    2  A    between atoms: N_6  and  C_7
REMARK    3  A    between atoms: C_7  and  C_8
REMARK    4  A    between atoms: C_12  and  C_13
REMARK                            x       y       z     vdW  Elec       q    Type
REMARK                         _______ _______ _______ _____ _____    ______ ____
ROOT
ATOM      1  C   UNL     1      44.946   3.966  11.087  0.00  0.00    +0.000 A 
ATOM      2  C   UNL     1      45.286   3.269  12.255  0.00  0.00    +0.000 A 
ATOM      3  C   UNL     1      46.046   3.883  13.247  0.00  0.00    +0.000 A 
ATOM      4  C   UNL     1      46.473   5.200  13.084  0.00  0.00    +0.000 A 
ATOM      5  C   UNL     1      46.136   5.928  11.933  0.00  0.00    +0.000 A 
ATOM      6  C   UNL     1      45.348   5.306  10.952  0.00  0.00    +0.000 A 
ENDROOT
BRANCH   5   7
ATOM      7  C   UNL     1      46.662   7.333  11.704  0.00  0.00    +0.000 C 
ATOM      8  C   UNL     1      48.190   7.387  11.866  0.00  0.00    +0.000 C 
ATOM      9  C   UNL     1      48.700   8.814  11.728  0.00  0.00    +0.000 C 
ATOM     10  O   UNL     1      48.035   9.680  12.645  0.00  0.00    +0.000 OA
ATOM     11  C   UNL     1      46.629   9.742  12.407  0.00  0.00    +0.000 C 
ATOM     12  C   UNL     1      45.989   8.374  12.608  0.00  0.00    +0.000 C 
ENDBRANCH   5   7
BRANCH   1  13
ATOM     13  C   UNL     1      44.203   3.269   9.972  0.00  0.00    +0.000 C 
BRANCH  13  14
ATOM     14  N   UNL     1      44.925   2.091   9.527  0.00  0.00    +0.000 N 
ATOM     15  H   UNL     1      44.393   1.227   9.613  0.00  0.00    +0.000 HD
BRANCH  14  20
ATOM     16  C   UNL     1      46.784   3.309   6.532  0.00  0.00    +0.000 A 
ATOM     17  C   UNL     1      47.488   2.156   6.247  0.00  0.00    +0.000 A 
ATOM     18  N   UNL     1      47.361   1.017   6.956  0.00  0.00    +0.000 NA
ATOM     19  C   UNL     1      46.493   1.049   7.998  0.00  0.00    +0.000 A 
ATOM     20  C   UNL     1      45.709   2.147   8.373  0.00  0.00    +0.000 A 
ATOM     21  C   UNL     1      45.899   3.301   7.609  0.00  0.00    +0.000 A 
ENDBRANCH  14  20
ENDBRANCH  13  14
ENDBRANCH   1  13
TORSDOF 4
ENDMDL
MODEL 2
REMARK VINA RESULT:    -7.475      0.914      1.509
REMARK INTER + INTRA:          -9.925
REMARK INTER:                  -9.305
REMARK INTRA:                  -0.620
REMARK UNBOUND:                -0.703
REMARK  Name = 
REMARK  4 active torsions:
REMARK  status: ('A' for Active; 'I' for Inactive)
REMARK    1  A    between atoms: C_5  and  N_6
REMARK    2  A    between atoms: N_6  and  C_7
REMARK    3  A    between atoms: C_7  and  C_8
REMARK    4  A    between atoms: C_12  and  C_13
REMARK                            x       y       z     vdW  Elec       q    Type
REMARK                         _______ _______ _______ _____ _____    ______ ____
ROOT
ATOM      1  C   UNL     1      44.942   4.501  11.210  0.00  0.00    +0.000 A 
ATOM      2  C   UNL     1      45.262   3.489  12.126  0.00  0.00    +0.000 A 
ATOM      3  C   UNL     1      46.113   3.752  13.198  0.00  0.00    +0.000 A 
ATOM      4  C   UNL     1      46.650   5.027  13.366  0.00  0.00    +0.000 A 
ATOM      5  C   UNL     1      46.336   6.063  12.474  0.00  0.00    +0.000 A 
ATOM      6  C   UNL     1      45.458   5.793  11.412  0.00  0.00    +0.000 A 
ENDROOT
BRANCH   5   7
ATOM      7  C   UNL     1      46.978   7.433  12.597  0.00  0.00    +0.000 C 
ATOM      8  C   UNL     1      46.001   8.543  12.171  0.00  0.00    +0.000 C 
ATOM      9  C   UNL     1      46.678   9.904  12.208  0.00  0.00    +0.000 C 
ATOM     10  O   UNL     1      47.862   9.902  11.412  0.00  0.00    +0.000 OA
ATOM     11  C   UNL     1      48.831   8.970  11.890  0.00  0.00    +0.000 C 
ATOM     12  C   UNL     1      48.292   7.547  11.814  0.00  0.00    +0.000 C 
ENDBRANCH   5   7
BRANCH   1  13
ATOM     13  C   UNL     1      44.098   4.192   9.997  0.00  0.00    +0.000 C 
BRANCH  13  14
ATOM     14  N   UNL     1      44.837   4.444   8.773  0.00  0.00    +0.000 N 
ATOM     15  H   UNL     1      45.319   5.342   8.762  0.00  0.00    +0.000 HD
BRANCH  14  20
ATOM     16  C   UNL     1      47.288   2.550   6.695  0.00  0.00    +0.000 A 
ATOM     17  C   UNL     1      47.106   1.302   7.255  0.00  0.00    +0.000 A 
ATOM     18  N   UNL     1      46.218   1.053   8.237  0.00  0.00    +0.000 NA
ATOM     19  C   UNL     1      45.490   2.110   8.674  0.00  0.00    +0.000 A 
ATOM     20  C   UNL     1      45.567   3.416   8.174  0.00  0.00    +0.000 A 
ATOM     21  C   UNL     1      46.518   3.612   7.169  0.00  0.00    +0.000 A 
ENDBRANCH  14  20
ENDBRANCH  13  14
ENDBRANCH   1  13
TORSDOF 4
ENDMDL
MODEL 3
REMARK VINA RESULT:    -7.464      1.225      1.480
REMARK INTER + INTRA:          -9.913
REMARK INTER:                  -9.247
REMARK INTRA:                  -0.666
REMARK UNBOUND:                -0.703
REMARK  Name = 
REMARK  4 active torsions:
REMARK  status: ('A' for Active; 'I' for Inactive)
REMARK    1  A    between atoms: C_5  and  N_6
REMARK    2  A    between atoms: N_6  and  C_7
REMARK    3  A    between atoms: C_7  and  C_8
REMARK    4  A    between atoms: C_12  and  C_13
REMARK                            x       y       z     vdW  Elec       q    Type
REMARK                         _______ _______ _______ _____ _____    ______ ____
ROOT
ATOM      1  C   UNL     1      44.183   3.650  10.703  0.00  0.00    +0.000 A 
ATOM      2  C   UNL     1      43.183   3.596  11.683  0.00  0.00    +0.000 A 
ATOM      3  C   UNL     1      43.260   4.403  12.816  0.00  0.00    +0.000 A 
ATOM      4  C   UNL     1      44.337   5.272  12.980  0.00  0.00    +0.000 A 
ATOM      5  C   UNL     1      45.346   5.359  12.010  0.00  0.00    +0.000 A 
ATOM      6  C   UNL     1      45.243   4.559  10.860  0.00  0.00    +0.000 A 
ENDROOT
BRANCH   5   7
ATOM      7  C   UNL     1      46.566   6.240  12.213  0.00  0.00    +0.000 C 
ATOM      8  C   UNL     1      47.302   5.876  13.513  0.00  0.00    +0.000 C 
ATOM      9  C   UNL     1      48.468   6.822  13.758  0.00  0.00    +0.000 C 
ATOM     10  O   UNL     1      48.028   8.179  13.756  0.00  0.00    +0.000 OA
ATOM     11  C   UNL     1      47.470   8.563  12.500  0.00  0.00    +0.000 C 
ATOM     12  C   UNL     1      46.229   7.737  12.188  0.00  0.00    +0.000 C 
ENDBRANCH   5   7
BRANCH   1  13
ATOM     13  C   UNL     1      44.147   2.708   9.523  0.00  0.00    +0.000 C 
BRANCH  13  14
ATOM     14  N   UNL     1      45.429   2.049   9.347  0.00  0.00    +0.000 N 
ATOM     15  H   UNL     1      45.469   1.115   9.752  0.00  0.00    +0.000 HD
BRANCH  14  20
ATOM     16  C   UNL     1      46.879   3.371   6.175  0.00  0.00    +0.000 A 
ATOM     17  C   UNL     1      47.701   2.305   5.868  0.00  0.00    +0.000 A 
ATOM     18  N   UNL     1      47.777   1.189   6.619  0.00  0.00    +0.000 NA
ATOM     19  C   UNL     1      46.995   1.153   7.727  0.00  0.00    +0.000 A 
ATOM     20  C   UNL     1      46.108   2.157   8.132  0.00  0.00    +0.000 A 
ATOM     21  C   UNL     1      46.088   3.294   7.321  0.00  0.00    +0.000 A 
ENDBRANCH  14  20
ENDBRANCH  13  14
ENDBRANCH   1  13
TORSDOF 4
ENDMDL
MODEL 4
REMARK VINA RESULT:    -7.318      3.279      6.326
REMARK INTER + INTRA:          -9.733
REMARK INTER:                  -8.977
REMARK INTRA:                  -0.756
REMARK UNBOUND:                -0.703
REMARK  Name = 
REMARK  4 active torsions:
REMARK  status: ('A' for Active; 'I' for Inactive)
REMARK    1  A    between atoms: C_5  and  N_6
REMARK    2  A    between atoms: N_6  and  C_7
REMARK    3  A    between atoms: C_7  and  C_8
REMARK    4  A    between atoms: C_12  and  C_13
REMARK                            x       y       z     vdW  Elec       q    Type
REMARK                         _______ _______ _______ _____ _____    ______ ____
ROOT
ATOM      1  C   UNL     1      44.134   5.190  11.080  0.00  0.00    +0.000 A 
ATOM      2  C   UNL     1      43.462   4.264  11.891  0.00  0.00    +0.000 A 
ATOM      3  C   UNL     1      43.434   2.914  11.546  0.00  0.00    +0.000 A 
ATOM      4  C   UNL     1      44.078   2.477  10.390  0.00  0.00    +0.000 A 
ATOM      5  C   UNL     1      44.769   3.378   9.567  0.00  0.00    +0.000 A 
ATOM      6  C   UNL     1      44.812   4.731   9.939  0.00  0.00    +0.000 A 
ENDROOT
BRANCH   5   7
ATOM      7  C   UNL     1      45.405   2.930   8.262  0.00  0.00    +0.000 C 
ATOM      8  C   UNL     1      46.141   1.591   8.435  0.00  0.00    +0.000 C 
ATOM      9  C   UNL     1      46.852   1.195   7.151  0.00  0.00    +0.000 C 
ATOM     10  O   UNL     1      47.729   2.233   6.716  0.00  0.00    +0.000 OA
ATOM     11  C   UNL     1      47.029   3.440   6.419  0.00  0.00    +0.000 C 
ATOM     12  C   UNL     1      46.344   3.986   7.666  0.00  0.00    +0.000 C 
ENDBRANCH   5   7
BRANCH   1  13
ATOM     13  C   UNL     1      44.083   6.664  11.404  0.00  0.00    +0.000 C 
BRANCH  13  14
ATOM     14  N   UNL     1      44.831   6.955  12.614  0.00  0.00    +0.000 N 
ATOM     15  H   UNL     1      44.436   6.530  13.452  0.00  0.00    +0.000 HD
BRANCH  14  20
ATOM     16  C   UNL     1      48.400   7.956  12.203  0.00  0.00    +0.000 A 
ATOM     17  C   UNL     1      48.987   6.880  12.838  0.00  0.00    +0.000 A 
ATOM     18  N   UNL     1      48.285   5.853  13.356  0.00  0.00    +0.000 NA
ATOM     19  C   UNL     1      46.936   5.920  13.231  0.00  0.00    +0.000 A 
ATOM     20  C   UNL     1      46.227   6.945  12.592  0.00  0.00    +0.000 A 
ATOM     21  C   UNL     1      47.010   7.987  12.091  0.00  0.00    +0.000 A 
ENDBRANCH  14  20
ENDBRANCH  13  14
ENDBRANCH   1  13
TORSDOF 4
ENDMDL
MODEL 5
REMARK VINA RESULT:    -7.227      2.470      3.708
REMARK INTER + INTRA:          -9.620
REMARK INTER:                  -8.953
REMARK INTRA:                  -0.667
REMARK UNBOUND:                -0.703
REMARK  Name = 
REMARK  4 active torsions:
REMARK  status: ('A' for Active; 'I' for Inactive)
REMARK    1  A    between atoms: C_5  and  N_6
REMARK    2  A    between atoms: N_6  and  C_7
REMARK    3  A    between atoms: C_7  and  C_8
REMARK    4  A    between atoms: C_12  and  C_13
REMARK                            x       y       z     vdW  Elec       q    Type
REMARK                         _______ _______ _______ _____ _____    ______ ____
ROOT
ATOM      1  C   UNL     1      45.294   4.922  11.528  0.00  0.00    +0.000 A 
ATOM      2  C   UNL     1      45.842   6.093  10.986  0.00  0.00    +0.000 A 
ATOM      3  C   UNL     1      46.787   6.826  11.701  0.00  0.00    +0.000 A 
ATOM      4  C   UNL     1      47.195   6.396  12.963  0.00  0.00    +0.000 A 
ATOM      5  C   UNL     1      46.674   5.221  13.525  0.00  0.00    +0.000 A 
ATOM      6  C   UNL     1      45.742   4.478  12.784  0.00  0.00    +0.000 A 
ENDROOT
BRANCH   5   7
ATOM      7  C   UNL     1      47.046   4.785  14.930  0.00  0.00    +0.000 C 
ATOM      8  C   UNL     1      48.152   5.680  15.515  0.00  0.00    +0.000 C 
ATOM      9  C   UNL     1      48.584   5.181  16.885  0.00  0.00    +0.000 C 
ATOM     10  O   UNL     1      48.982   3.812  16.823  0.00  0.00    +0.000 OA
ATOM     11  C   UNL     1      47.915   2.958  16.415  0.00  0.00    +0.000 C 
ATOM     12  C   UNL     1      47.455   3.308  15.006  0.00  0.00    +0.000 C 
ENDBRANCH   5   7
BRANCH   1  13
ATOM     13  C   UNL     1      44.202   4.182  10.794  0.00  0.00    +0.000 C 
BRANCH  13  14
ATOM     14  N   UNL     1      44.349   4.332   9.358  0.00  0.00    +0.000 N 
ATOM     15  H   UNL     1      44.426   5.301   9.052  0.00  0.00    +0.000 HD
BRANCH  14  20
ATOM     16  C   UNL     1      46.982   2.948   7.108  0.00  0.00    +0.000 A 
ATOM     17  C   UNL     1      46.900   1.624   7.491  0.00  0.00    +0.000 A 
ATOM     18  N   UNL     1      46.023   1.171   8.408  0.00  0.00    +0.000 NA
ATOM     19  C   UNL     1      45.201   2.096   8.964  0.00  0.00    +0.000 A 
ATOM     20  C   UNL     1      45.173   3.459   8.645  0.00  0.00    +0.000 A 
ATOM     21  C   UNL     1      46.117   3.868   7.700  0.00  0.00    +0.000 A 
ENDBRANCH  14  20
ENDBRANCH  13  14
ENDBRANCH   1  13
TORSDOF 4
ENDMDL
MODEL 6
REMARK VINA RESULT:    -6.493      3.674      6.928
REMARK INTER + INTRA:          -8.714
REMARK INTER:                  -8.006
REMARK INTRA:                  -0.708
REMARK UNBOUND:                -0.703
REMARK  Name = 
REMARK  4 active torsions:
REMARK  status: ('A' for Active; 'I' for Inactive)
REMARK    1  A    between atoms: C_5  and  N_6
REMARK    2  A    between atoms: N_6  and  C_7
REMARK    3  A    between atoms: C_7  and  C_8
REMARK    4  A    between atoms: C_12  and  C_13
REMARK                            x       y       z     vdW  Elec       q    Type
REMARK                         _______ _______ _______ _____ _____    ______ ____
ROOT
ATOM      1  C   UNL     1      45.141   5.994  12.265  0.00  0.00    +0.000 A 
ATOM      2  C   UNL     1      43.859   5.887  12.823  0.00  0.00    +0.000 A 
ATOM      3  C   UNL     1      42.902   5.062  12.236  0.00  0.00    +0.000 A 
ATOM      4  C   UNL     1      43.215   4.336  11.088  0.00  0.00    +0.000 A 
ATOM      5  C   UNL     1      44.494   4.413  10.516  0.00  0.00    +0.000 A 
ATOM      6  C   UNL     1      45.458   5.227  11.131  0.00  0.00    +0.000 A 
ENDROOT
BRANCH   5   7
ATOM      7  C   UNL     1      44.825   3.693   9.221  0.00  0.00    +0.000 C 
ATOM      8  C   UNL     1      45.293   2.253   9.491  0.00  0.00    +0.000 C 
ATOM      9  C   UNL     1      45.711   1.568   8.199  0.00  0.00    +0.000 C 
ATOM     10  O   UNL     1      46.705   2.334   7.520  0.00  0.00    +0.000 OA
ATOM     11  C   UNL     1      46.227   3.624   7.141  0.00  0.00    +0.000 C 
ATOM     12  C   UNL     1      45.860   4.443   8.372  0.00  0.00    +0.000 C 
ENDBRANCH   5   7
BRANCH   1  13
ATOM     13  C   UNL     1      46.146   6.960  12.846  0.00  0.00    +0.000 C 
BRANCH  13  14
ATOM     14  N   UNL     1      47.389   6.283  13.167  0.00  0.00    +0.000 N 
ATOM     15  H   UNL     1      48.214   6.730  12.771  0.00  0.00    +0.000 HD
BRANCH  14  20
ATOM     16  C   UNL     1      47.388   4.077  16.174  0.00  0.00    +0.000 A 
ATOM     17  C   UNL     1      48.296   4.779  16.942  0.00  0.00    +0.000 A 
ATOM     18  N   UNL     1      48.871   5.930  16.540  0.00  0.00    +0.000 NA
ATOM     19  C   UNL     1      48.518   6.384  15.312  0.00  0.00    +0.000 A 
ATOM     20  C   UNL     1      47.596   5.775  14.451  0.00  0.00    +0.000 A 
ATOM     21  C   UNL     1      47.049   4.577  14.918  0.00  0.00    +0.000 A 
ENDBRANCH  14  20
ENDBRANCH  13  14
ENDBRANCH   1  13
TORSDOF 4
ENDMDL
MODEL 7
REMARK VINA RESULT:    -6.226      3.912      7.209
REMARK INTER + INTRA:          -8.385
REMARK INTER:                  -7.770
REMARK INTRA:                  -0.615
REMARK UNBOUND:                -0.703
REMARK  Name = 
REMARK  4 active torsions:
REMARK  status: ('A' for Active; 'I' for Inactive)
REMARK    1  A    between atoms: C_5  and  N_6
REMARK    2  A    between atoms: N_6  and  C_7
REMARK    3  A    between atoms: C_7  and  C_8
REMARK    4  A    between atoms: C_12  and  C_13
REMARK                            x       y       z     vdW  Elec       q    Type
REMARK                         _______ _______ _______ _____ _____    ______ ____
ROOT
ATOM      1  C   UNL     1      47.249   7.001  13.271  0.00  0.00    +0.000 A 
ATOM      2  C   UNL     1      46.756   8.313  13.284  0.00  0.00    +0.000 A 
ATOM      3  C   UNL     1      45.653   8.660  12.507  0.00  0.00    +0.000 A 
ATOM      4  C   UNL     1      45.031   7.700  11.711  0.00  0.00    +0.000 A 
ATOM      5  C   UNL     1      45.493   6.375  11.689  0.00  0.00    +0.000 A 
ATOM      6  C   UNL     1      46.590   6.033  12.496  0.00  0.00    +0.000 A 
ENDROOT
BRANCH   5   7
ATOM      7  C   UNL     1      44.879   5.339  10.765  0.00  0.00    +0.000 C 
ATOM      8  C   UNL     1      44.742   3.979  11.472  0.00  0.00    +0.000 C 
ATOM      9  C   UNL     1      44.213   2.923  10.514  0.00  0.00    +0.000 C 
ATOM     10  O   UNL     1      45.032   2.839   9.349  0.00  0.00    +0.000 OA
ATOM     11  C   UNL     1      45.048   4.061   8.612  0.00  0.00    +0.000 C 
ATOM     12  C   UNL     1      45.650   5.184   9.448  0.00  0.00    +0.000 C 
ENDBRANCH   5   7
BRANCH   1  13
ATOM     13  C   UNL     1      48.501   6.650  14.040  0.00  0.00    +0.000 C 
BRANCH  13  14
ATOM     14  N   UNL     1      48.234   6.590  15.466  0.00  0.00    +0.000 N 
ATOM     15  H   UNL     1      47.470   7.194  15.765  0.00  0.00    +0.000 HD
BRANCH  14  20
ATOM     16  C   UNL     1      49.086   3.836  17.830  0.00  0.00    +0.000 A 
ATOM     17  C   UNL     1      48.049   2.978  17.525  0.00  0.00    +0.000 A 
ATOM     18  N   UNL     1      47.123   3.241  16.583  0.00  0.00    +0.000 NA
ATOM     19  C   UNL     1      47.249   4.422  15.928  0.00  0.00    +0.000 A 
ATOM     20  C   UNL     1      48.266   5.364  16.131  0.00  0.00    +0.000 A 
ATOM     21  C   UNL     1      49.184   5.039  17.133  0.00  0.00    +0.000 A 
ENDBRANCH  14  20
ENDBRANCH  13  14
ENDBRANCH   1  13
TORSDOF 4
ENDMDL
MODEL 8
REMARK VINA RESULT:    -6.053      4.329      7.426
REMARK INTER + INTRA:          -8.172
REMARK INTER:                  -7.510
REMARK INTRA:                  -0.662
REMARK UNBOUND:                -0.703
REMARK  Name = 
REMARK  4 active torsions:
REMARK  status: ('A' for Active; 'I' for Inactive)
REMARK    1  A    between atoms: C_5  and  N_6
REMARK    2  A    between atoms: N_6  and  C_7
REMARK    3  A    between atoms: C_7  and  C_8
REMARK    4  A    between atoms: C_12  and  C_13
REMARK                            x       y       z     vdW  Elec       q    Type
REMARK                         _______ _______ _______ _____ _____    ______ ____
ROOT
ATOM      1  C   UNL     1      47.557   7.072  13.803  0.00  0.00    +0.000 A 
ATOM      2  C   UNL     1      47.086   8.282  13.275  0.00  0.00    +0.000 A 
ATOM      3  C   UNL     1      46.045   8.289  12.348  0.00  0.00    +0.000 A 
ATOM      4  C   UNL     1      45.466   7.089  11.940  0.00  0.00    +0.000 A 
ATOM      5  C   UNL     1      45.907   5.864  12.463  0.00  0.00    +0.000 A 
ATOM      6  C   UNL     1      46.938   5.871  13.415  0.00  0.00    +0.000 A 
ENDROOT
BRANCH   5   7
ATOM      7  C   UNL     1      45.342   4.544  11.968  0.00  0.00    +0.000 C 
ATOM      8  C   UNL     1      45.029   4.603  10.464  0.00  0.00    +0.000 C 
ATOM      9  C   UNL     1      44.378   3.311   9.995  0.00  0.00    +0.000 C 
ATOM     10  O   UNL     1      43.216   3.020  10.770  0.00  0.00    +0.000 OA
ATOM     11  C   UNL     1      43.524   2.824  12.149  0.00  0.00    +0.000 C 
ATOM     12  C   UNL     1      44.104   4.095  12.756  0.00  0.00    +0.000 C 
ENDBRANCH   5   7
BRANCH   1  13
ATOM     13  C   UNL     1      48.745   7.059  14.734  0.00  0.00    +0.000 C 
BRANCH  13  14
ATOM     14  N   UNL     1      48.343   6.703  16.083  0.00  0.00    +0.000 N 
ATOM     15  H   UNL     1      47.411   7.031  16.333  0.00  0.00    +0.000 HD
BRANCH  14  20
ATOM     16  C   UNL     1      48.142   3.101  17.027  0.00  0.00    +0.000 A 
ATOM     17  C   UNL     1      49.456   2.917  17.407  0.00  0.00    +0.000 A 
ATOM     18  N   UNL     1      50.375   3.903  17.396  0.00  0.00    +0.000 NA
ATOM     19  C   UNL     1      49.948   5.121  16.978  0.00  0.00    +0.000 A 
ATOM     20  C   UNL     1      48.640   5.437  16.590  0.00  0.00    +0.000 A 
ATOM     21  C   UNL     1      47.740   4.369  16.607  0.00  0.00    +0.000 A 
ENDBRANCH  14  20
ENDBRANCH  13  14
ENDBRANCH   1  13
TORSDOF 4
ENDMDL
MODEL 9
REMARK VINA RESULT:    -5.879      1.784      2.876
REMARK INTER + INTRA:          -7.956
REMARK INTER:                  -7.329
REMARK INTRA:                  -0.627
REMARK UNBOUND:                -0.703
REMARK  Name = 
REMARK  4 active torsions:
REMARK  status: ('A' for Active; 'I' for Inactive)
REMARK    1  A    between atoms: C_5  and  N_6
REMARK    2  A    between atoms: N_6  and  C_7
REMARK    3  A    between atoms: C_7  and  C_8
REMARK    4  A    between atoms: C_12  and  C_13
REMARK                            x       y       z     vdW  Elec       q    Type
REMARK                         _______ _______ _______ _____ _____    ______ ____
ROOT
ATOM      1  C   UNL     1      45.181   6.470  11.547  0.00  0.00    +0.000 A 
ATOM      2  C   UNL     1      44.214   7.455  11.306  0.00  0.00    +0.000 A 
ATOM      3  C   UNL     1      44.521   8.803  11.482  0.00  0.00    +0.000 A 
ATOM      4  C   UNL     1      45.796   9.179  11.900  0.00  0.00    +0.000 A 
ATOM      5  C   UNL     1      46.789   8.216  12.136  0.00  0.00    +0.000 A 
ATOM      6  C   UNL     1      46.475   6.863  11.930  0.00  0.00    +0.000 A 
ENDROOT
BRANCH   5   7
ATOM      7  C   UNL     1      48.156   8.604  12.670  0.00  0.00    +0.000 C 
ATOM      8  C   UNL     1      49.272   7.827  11.952  0.00  0.00    +0.000 C 
ATOM      9  C   UNL     1      50.631   8.151  12.554  0.00  0.00    +0.000 C 
ATOM     10  O   UNL     1      50.632   7.909  13.960  0.00  0.00    +0.000 OA
ATOM     11  C   UNL     1      49.692   8.732  14.650  0.00  0.00    +0.000 C 
ATOM     12  C   UNL     1      48.272   8.428  14.190  0.00  0.00    +0.000 C 
ENDBRANCH   5   7
BRANCH   1  13
ATOM     13  C   UNL     1      44.820   5.007  11.447  0.00  0.00    +0.000 C 
BRANCH  13  14
ATOM     14  N   UNL     1      44.248   4.702  10.148  0.00  0.00    +0.000 N 
ATOM     15  H   UNL     1      43.796   5.498   9.702  0.00  0.00    +0.000 HD
BRANCH  14  20
ATOM     16  C   UNL     1      46.490   3.491   7.425  0.00  0.00    +0.000 A 
ATOM     17  C   UNL     1      46.450   2.142   7.714  0.00  0.00    +0.000 A 
ATOM     18  N   UNL     1      45.717   1.621   8.718  0.00  0.00    +0.000 NA
ATOM     19  C   UNL     1      45.001   2.501   9.461  0.00  0.00    +0.000 A 
ATOM     20  C   UNL     1      44.943   3.885   9.254  0.00  0.00    +0.000 A 
ATOM     21  C   UNL     1      45.738   4.364   8.210  0.00  0.00    +0.000 A 
ENDBRANCH  14  20
ENDBRANCH  13  14
ENDBRANCH   1  13
TORSDOF 4
ENDMDL
