MODEL 1
REMARK VINA RESULT:    -8.972      0.000      0.000
REMARK INTER + INTRA:         -12.216
REMARK INTER:                 -11.070
REMARK INTRA:                  -1.145
REMARK UNBOUND:                -1.145
REMARK  Name = 
REMARK  4 active torsions:
REMARK  status: ('A' for Active; 'I' for Inactive)
REMARK    1  A    between atoms: C_2  and  C_4
REMARK    2  A    between atoms: N_8  and  C_9
REMARK    3  A    between atoms: C_9  and  C_10
REMARK    4  A    between atoms: C_14  and  C_15
REMARK                            x       y       z     vdW  Elec       q    Type
REMARK                         _______ _______ _______ _____ _____    ______ ____
ROOT
ATOM      1  C   UNL     1      43.807   4.877  11.355  0.00  0.00    +0.000 C 
ATOM      2  C   UNL     1      42.467   5.133  12.034  0.00  0.00    +0.000 C 
ATOM      3  C   UNL     1      42.988   6.113  11.040  0.00  0.00    +0.000 C 
ENDROOT
BRANCH   1   8
ATOM      4  C   UNL     1      46.584   2.772   7.497  0.00  0.00    +0.000 A 
ATOM      5  C   UNL     1      46.209   4.103   7.659  0.00  0.00    +0.000 A 
ATOM      6  C   UNL     1      45.318   4.442   8.681  0.00  0.00    +0.000 A 
ATOM      7  C   UNL     1      44.812   3.449   9.511  0.00  0.00    +0.000 A 
ATOM      8  N   UNL     1      43.833   3.688  10.481  0.00  0.00    +0.000 N 
ATOM      9  N   UNL     1      45.169   2.155   9.363  0.00  0.00    +0.000 NA
ATOM     10  C   UNL     1      46.036   1.842   8.366  0.00  0.00    +0.000 A 
ATOM     11  H   UNL     1      43.721   2.796  10.964  0.00  0.00    +0.000 HD
BRANCH   4  13
ATOM     12  N   UNL     1      47.428   2.960   5.227  0.00  0.00    +0.000 N 
ATOM     13  C   UNL     1      47.489   2.310   6.426  0.00  0.00    +0.000 C 
ATOM     14  O   UNL     1      48.283   1.396   6.611  0.00  0.00    +0.000 OA
ATOM     15  H   UNL     1      48.121   2.694   4.537  0.00  0.00    +0.000 HD
ATOM     16  H   UNL     1      46.981   3.858   5.113  0.00  0.00    +0.000 HD
ENDBRANCH   4  13
ENDBRANCH   1   8
BRANCH   1  17
ATOM     17  C   UNL     1      45.086   5.044  12.170  0.00  0.00    +0.000 A 
ATOM     18  C   UNL     1      45.561   4.037  13.023  0.00  0.00    +0.000 A 
ATOM     19  C   UNL     1      46.788   4.155  13.672  0.00  0.00    +0.000 A 
ATOM     20  C   UNL     1      47.581   5.285  13.465  0.00  0.00    +0.000 A 
ATOM     21  C   UNL     1      47.162   6.318  12.613  0.00  0.00    +0.000 A 
ATOM     22  C   UNL     1      45.900   6.184  12.005  0.00  0.00    +0.000 A 
BRANCH  21  23
ATOM     23  C   UNL     1      48.042   7.466  12.295  0.00  0.00    +0.000 A 
ATOM     24  C   UNL     1      49.418   7.290  12.103  0.00  0.00    +0.000 A 
ATOM     25  C   UNL     1      50.207   8.377  11.752  0.00  0.00    +0.000 A 
ATOM     26  N   UNL     1      49.727   9.621  11.576  0.00  0.00    +0.000 NA
ATOM     27  C   UNL     1      48.403   9.787  11.763  0.00  0.00    +0.000 A 
ATOM     28  C   UNL     1      47.536   8.762  12.123  0.00  0.00    +0.000 A 
ENDBRANCH  21  23
ENDBRANCH   1  17
TORSDOF 4
ENDMDL
MODEL 2
REMARK VINA RESULT:    -8.621      2.097      3.296
REMARK INTER + INTRA:         -11.783
REMARK INTER:                 -11.259
REMARK INTRA:                  -0.524
REMARK UNBOUND:                -1.145
REMARK  Name = 
REMARK  4 active torsions:
REMARK  status: ('A' for Active; 'I' for Inactive)
REMARK    1  A    between atoms: C_2  and  C_4
REMARK    2  A    between atoms: N_8  and  C_9
REMARK    3  A    between atoms: C_9  and  C_10
REMARK    4  A    between atoms: C_14  and  C_15
REMARK                            x       y       z     vdW  Elec       q    Type
REMARK                         _______ _______ _______ _____ _____    ______ ____
ROOT
ATOM      1  C   UNL     1      43.864   4.859  11.503  0.00  0.00    +0.000 C 
ATOM      2  C   UNL     1      42.721   4.914  12.508  0.00  0.00    +0.000 C 
ATOM      3  C   UNL     1      42.763   5.894  11.386  0.00  0.00    +0.000 C 
ENDROOT
BRANCH   1   8
ATOM      4  C   UNL     1      46.450   2.752   7.515  0.00  0.00    +0.000 A 
ATOM      5  C   UNL     1      45.996   4.061   7.649  0.00  0.00    +0.000 A 
ATOM      6  C   UNL     1      45.172   4.391   8.729  0.00  0.00    +0.000 A 
ATOM      7  C   UNL     1      44.811   3.410   9.644  0.00  0.00    +0.000 A 
ATOM      8  N   UNL     1      43.902   3.632  10.685  0.00  0.00    +0.000 N 
ATOM      9  N   UNL     1      45.246   2.137   9.524  0.00  0.00    +0.000 NA
ATOM     10  C   UNL     1      46.046   1.832   8.470  0.00  0.00    +0.000 A 
ATOM     11  H   UNL     1      43.896   2.760  11.215  0.00  0.00    +0.000 HD
BRANCH   4  13
ATOM     12  N   UNL     1      47.153   2.948   5.198  0.00  0.00    +0.000 N 
ATOM     13  C   UNL     1      47.292   2.298   6.391  0.00  0.00    +0.000 C 
ATOM     14  O   UNL     1      48.103   1.390   6.526  0.00  0.00    +0.000 OA
ATOM     15  H   UNL     1      47.806   2.689   4.467  0.00  0.00    +0.000 HD
ATOM     16  H   UNL     1      46.693   3.843   5.113  0.00  0.00    +0.000 HD
ENDBRANCH   4  13
ENDBRANCH   1   8
BRANCH   1  17
ATOM     17  C   UNL     1      45.250   5.323  11.943  0.00  0.00    +0.000 A 
ATOM     18  C   UNL     1      45.956   6.317  11.249  0.00  0.00    +0.000 A 
ATOM     19  C   UNL     1      47.169   6.811  11.726  0.00  0.00    +0.000 A 
ATOM     20  C   UNL     1      47.694   6.333  12.927  0.00  0.00    +0.000 A 
ATOM     21  C   UNL     1      47.025   5.348  13.669  0.00  0.00    +0.000 A 
ATOM     22  C   UNL     1      45.824   4.841  13.138  0.00  0.00    +0.000 A 
BRANCH  21  23
ATOM     23  C   UNL     1      47.512   4.914  14.998  0.00  0.00    +0.000 A 
ATOM     24  C   UNL     1      48.292   5.762  15.794  0.00  0.00    +0.000 A 
ATOM     25  C   UNL     1      48.687   5.347  17.058  0.00  0.00    +0.000 A 
ATOM     26  N   UNL     1      48.360   4.155  17.588  0.00  0.00    +0.000 NA
ATOM     27  C   UNL     1      47.610   3.341  16.819  0.00  0.00    +0.000 A 
ATOM     28  C   UNL     1      47.174   3.666  15.540  0.00  0.00    +0.000 A 
ENDBRANCH  21  23
ENDBRANCH   1  17
TORSDOF 4
ENDMDL
MODEL 3
REMARK VINA RESULT:    -6.614      4.350      8.252
REMARK INTER + INTRA:          -9.306
REMARK INTER:                  -8.297
REMARK INTRA:                  -1.009
REMARK UNBOUND:                -1.145
REMARK  Name = 
REMARK  4 active torsions:
REMARK  status: ('A' for Active; 'I' for Inactive)
REMARK    1  A    between atoms: C_2  and  C_4
REMARK    2  A    between atoms: N_8  and  C_9
REMARK    3  A    between atoms: C_9  and  C_10
REMARK    4  A    between atoms: C_14  and  C_15
REMARK                            x       y       z     vdW  Elec       q    Type
REMARK                         _______ _______ _______ _____ _____    ______ ____
ROOT
ATOM      1  C   UNL     1      49.071   7.935  12.683  0.00  0.00    +0.000 C 
ATOM      2  C   UNL     1      50.021   8.133  11.509  0.00  0.00    +0.000 C 
ATOM      3  C   UNL     1      49.722   9.277  12.416  0.00  0.00    +0.000 C 
ENDROOT
BRANCH   1   8
ATOM      4  C   UNL     1      48.414   6.777  17.709  0.00  0.00    +0.000 A 
ATOM      5  C   UNL     1      48.516   8.036  17.123  0.00  0.00    +0.000 A 
ATOM      6  C   UNL     1      48.858   8.135  15.772  0.00  0.00    +0.000 A 
ATOM      7  C   UNL     1      49.101   6.982  15.037  0.00  0.00    +0.000 A 
ATOM      8  N   UNL     1      49.557   6.998  13.714  0.00  0.00    +0.000 N 
ATOM      9  N   UNL     1      49.006   5.755  15.595  0.00  0.00    +0.000 NA
ATOM     10  C   UNL     1      48.672   5.676  16.909  0.00  0.00    +0.000 A 
ATOM     11  H   UNL     1      49.574   6.018  13.432  0.00  0.00    +0.000 HD
BRANCH   4  13
ATOM     12  N   UNL     1      47.250   5.545  19.450  0.00  0.00    +0.000 N 
ATOM     13  C   UNL     1      48.095   6.571  19.136  0.00  0.00    +0.000 C 
ATOM     14  O   UNL     1      48.587   7.275  20.009  0.00  0.00    +0.000 OA
ATOM     15  H   UNL     1      47.120   5.358  20.437  0.00  0.00    +0.000 HD
ATOM     16  H   UNL     1      47.028   4.802  18.803  0.00  0.00    +0.000 HD
ENDBRANCH   4  13
ENDBRANCH   1   8
BRANCH   1  17
ATOM     17  C   UNL     1      47.578   7.786  12.402  0.00  0.00    +0.000 A 
ATOM     18  C   UNL     1      46.670   8.828  12.636  0.00  0.00    +0.000 A 
ATOM     19  C   UNL     1      45.330   8.718  12.268  0.00  0.00    +0.000 A 
ATOM     20  C   UNL     1      44.872   7.562  11.634  0.00  0.00    +0.000 A 
ATOM     21  C   UNL     1      45.739   6.493  11.364  0.00  0.00    +0.000 A 
ATOM     22  C   UNL     1      47.076   6.620  11.785  0.00  0.00    +0.000 A 
BRANCH  21  23
ATOM     23  C   UNL     1      45.295   5.310  10.591  0.00  0.00    +0.000 A 
ATOM     24  C   UNL     1      45.652   5.149   9.247  0.00  0.00    +0.000 A 
ATOM     25  C   UNL     1      45.266   4.003   8.566  0.00  0.00    +0.000 A 
ATOM     26  N   UNL     1      44.554   3.008   9.124  0.00  0.00    +0.000 NA
ATOM     27  C   UNL     1      44.210   3.167  10.417  0.00  0.00    +0.000 A 
ATOM     28  C   UNL     1      44.545   4.282  11.178  0.00  0.00    +0.000 A 
ENDBRANCH  21  23
ENDBRANCH   1  17
TORSDOF 4
ENDMDL
MODEL 4
REMARK VINA RESULT:    -6.386      3.636      7.493
REMARK INTER + INTRA:          -9.025
REMARK INTER:                  -9.000
REMARK INTRA:                  -0.025
REMARK UNBOUND:                -1.145
REMARK  Name = 
REMARK  4 active torsions:
REMARK  status: ('A' for Active; 'I' for Inactive)
REMARK    1  A    between atoms: C_2  and  C_4
REMARK    2  A    between atoms: N_8  and  C_9
REMARK    3  A    between atoms: C_9  and  C_10
REMARK    4  A    between atoms: C_14  and  C_15
REMARK                            x       y       z     vdW  Elec       q    Type
REMARK                         _______ _______ _______ _____ _____    ______ ____
ROOT
ATOM      1  C   UNL     1      48.503   7.852  12.837  0.00  0.00    +0.000 C 
ATOM      2  C   UNL     1      49.668   7.248  12.062  0.00  0.00    +0.000 C 
ATOM      3  C   UNL     1      49.445   8.722  12.029  0.00  0.00    +0.000 C 
ENDROOT
BRANCH   1   8
ATOM      4  C   UNL     1      48.011   4.275  16.578  0.00  0.00    +0.000 A 
ATOM      5  C   UNL     1      47.193   4.478  15.470  0.00  0.00    +0.000 A 
ATOM      6  C   UNL     1      47.398   5.603  14.666  0.00  0.00    +0.000 A 
ATOM      7  C   UNL     1      48.405   6.504  14.988  0.00  0.00    +0.000 A 
ATOM      8  N   UNL     1      48.602   7.708  14.302  0.00  0.00    +0.000 N 
ATOM      9  N   UNL     1      49.204   6.318  16.060  0.00  0.00    +0.000 NA
ATOM     10  C   UNL     1      48.993   5.220  16.831  0.00  0.00    +0.000 A 
ATOM     11  H   UNL     1      49.442   8.111  14.719  0.00  0.00    +0.000 HD
BRANCH   4  13
ATOM     12  N   UNL     1      48.952   2.733  18.203  0.00  0.00    +0.000 N 
ATOM     13  C   UNL     1      47.849   3.139  17.508  0.00  0.00    +0.000 C 
ATOM     14  O   UNL     1      46.764   2.597  17.670  0.00  0.00    +0.000 OA
ATOM     15  H   UNL     1      48.801   2.019  18.905  0.00  0.00    +0.000 HD
ATOM     16  H   UNL     1      49.784   3.299  18.287  0.00  0.00    +0.000 HD
ENDBRANCH   4  13
ENDBRANCH   1   8
BRANCH   1  17
ATOM     17  C   UNL     1      47.085   7.639  12.314  0.00  0.00    +0.000 A 
ATOM     18  C   UNL     1      46.118   8.653  12.355  0.00  0.00    +0.000 A 
ATOM     19  C   UNL     1      44.863   8.483  11.771  0.00  0.00    +0.000 A 
ATOM     20  C   UNL     1      44.557   7.292  11.110  0.00  0.00    +0.000 A 
ATOM     21  C   UNL     1      45.490   6.248  11.028  0.00  0.00    +0.000 A 
ATOM     22  C   UNL     1      46.732   6.437  11.663  0.00  0.00    +0.000 A 
BRANCH  21  23
ATOM     23  C   UNL     1      45.221   5.028  10.234  0.00  0.00    +0.000 A 
ATOM     24  C   UNL     1      44.522   3.946  10.786  0.00  0.00    +0.000 A 
ATOM     25  C   UNL     1      44.237   2.839   9.999  0.00  0.00    +0.000 A 
ATOM     26  N   UNL     1      44.593   2.731   8.706  0.00  0.00    +0.000 NA
ATOM     27  C   UNL     1      45.267   3.772   8.179  0.00  0.00    +0.000 A 
ATOM     28  C   UNL     1      45.603   4.919   8.890  0.00  0.00    +0.000 A 
ENDBRANCH  21  23
ENDBRANCH   1  17
TORSDOF 4
ENDMDL
MODEL 5
REMARK VINA RESULT:    -6.122      3.874      6.001
REMARK INTER + INTRA:          -8.699
REMARK INTER:                  -8.344
REMARK INTRA:                  -0.356
REMARK UNBOUND:                -1.145
REMARK  Name = 
REMARK  4 active torsions:
REMARK  status: ('A' for Active; 'I' for Inactive)
REMARK    1  A    between atoms: C_2  and  C_4
REMARK    2  A    between atoms: N_8  and  C_9
REMARK    3  A    between atoms: C_9  and  C_10
REMARK    4  A    between atoms: C_14  and  C_15
REMARK                            x       y       z     vdW  Elec       q    Type
REMARK                         _______ _______ _______ _____ _____    ______ ____
ROOT
ATOM      1  C   UNL     1      47.606   8.323  13.375  0.00  0.00    +0.000 C 
ATOM      2  C   UNL     1      47.967   9.585  12.603  0.00  0.00    +0.000 C 
ATOM      3  C   UNL     1      48.545   8.276  12.186  0.00  0.00    +0.000 C 
ENDROOT
BRANCH   1   8
ATOM      4  C   UNL     1      44.535   4.665  11.322  0.00  0.00    +0.000 A 
ATOM      5  C   UNL     1      45.614   5.313  10.728  0.00  0.00    +0.000 A 
ATOM      6  C   UNL     1      46.212   6.390  11.389  0.00  0.00    +0.000 A 
ATOM      7  C   UNL     1      45.716   6.804  12.619  0.00  0.00    +0.000 A 
ATOM      8  N   UNL     1      46.184   7.939  13.290  0.00  0.00    +0.000 N 
ATOM      9  N   UNL     1      44.670   6.182  13.204  0.00  0.00    +0.000 NA
ATOM     10  C   UNL     1      44.100   5.137  12.550  0.00  0.00    +0.000 A 
ATOM     11  H   UNL     1      45.683   7.941  14.179  0.00  0.00    +0.000 HD
BRANCH   4  13
ATOM     12  N   UNL     1      44.073   3.295   9.369  0.00  0.00    +0.000 N 
ATOM     13  C   UNL     1      43.814   3.543  10.687  0.00  0.00    +0.000 C 
ATOM     14  O   UNL     1      43.034   2.845  11.321  0.00  0.00    +0.000 OA
ATOM     15  H   UNL     1      43.644   2.465   8.977  0.00  0.00    +0.000 HD
ATOM     16  H   UNL     1      44.875   3.675   8.888  0.00  0.00    +0.000 HD
ENDBRANCH   4  13
ENDBRANCH   1   8
BRANCH   1  17
ATOM     17  C   UNL     1      48.193   8.123  14.769  0.00  0.00    +0.000 A 
ATOM     18  C   UNL     1      48.194   9.145  15.729  0.00  0.00    +0.000 A 
ATOM     19  C   UNL     1      48.629   8.915  17.033  0.00  0.00    +0.000 A 
ATOM     20  C   UNL     1      49.056   7.642  17.413  0.00  0.00    +0.000 A 
ATOM     21  C   UNL     1      49.064   6.578  16.498  0.00  0.00    +0.000 A 
ATOM     22  C   UNL     1      48.658   6.855  15.179  0.00  0.00    +0.000 A 
BRANCH  21  23
ATOM     23  C   UNL     1      49.404   5.199  16.915  0.00  0.00    +0.000 A 
ATOM     24  C   UNL     1      48.452   4.174  16.869  0.00  0.00    +0.000 A 
ATOM     25  C   UNL     1      48.817   2.880  17.214  0.00  0.00    +0.000 A 
ATOM     26  N   UNL     1      50.058   2.533  17.599  0.00  0.00    +0.000 NA
ATOM     27  C   UNL     1      50.972   3.522  17.645  0.00  0.00    +0.000 A 
ATOM     28  C   UNL     1      50.698   4.847  17.324  0.00  0.00    +0.000 A 
ENDBRANCH  21  23
ENDBRANCH   1  17
TORSDOF 4
ENDMDL
