MODEL 1
REMARK VINA RESULT:    -9.164      0.000      0.000
REMARK INTER + INTRA:         -10.914
REMARK INTER:                 -11.307
REMARK INTRA:                   0.393
REMARK UNBOUND:                 0.393
REMARK  Name = 
REMARK  5 active torsions:
REMARK  status: ('A' for Active; 'I' for Inactive)
REMARK    1  A    between atoms: C_1  and  O_2
REMARK    2  A    between atoms: O_2  and  C_3
REMARK    3  A    between atoms: C_5  and  C_6
REMARK    4  A    between atoms: C_6  and  N_7
REMARK    5  A    between atoms: C_11  and  C_12
REMARK                            x       y       z     vdW  Elec       q    Type
REMARK                         _______ _______ _______ _____ _____    ______ ____
ROOT
ATOM      1  N   UNL     1      44.296   5.102   9.880  0.00  0.00    +0.000 N 
ATOM      2  C   UNL     1      45.006   4.167   9.129  0.00  0.00    +0.000 A 
ATOM      3  N   UNL     1      45.067   2.883   9.515  0.00  0.00    +0.000 NA
ATOM      4  C   UNL     1      45.809   2.042   8.763  0.00  0.00    +0.000 A 
ATOM      5  C   UNL     1      46.497   2.436   7.641  0.00  0.00    +0.000 A 
ATOM      6  C   UNL     1      46.377   3.767   7.324  0.00  0.00    +0.000 A 
ATOM      7  N   UNL     1      45.636   4.645   8.042  0.00  0.00    +0.000 NA
ATOM      8  H   UNL     1      44.562   6.015   9.537  0.00  0.00    +0.000 HD
ENDROOT
BRANCH   5   9
ATOM      9  C   UNL     1      47.334   1.474   6.914  0.00  0.00    +0.000 C 
ATOM     10  N   UNL     1      48.445   1.938   6.269  0.00  0.00    +0.000 N 
ATOM     11  O   UNL     1      47.034   0.288   6.875  0.00  0.00    +0.000 OA
ATOM     12  H   UNL     1      48.615   2.914   6.066  0.00  0.00    +0.000 HD
ATOM     13  H   UNL     1      48.943   1.256   5.708  0.00  0.00    +0.000 HD
ENDBRANCH   5   9
BRANCH   1  14
ATOM     14  C   UNL     1      44.076   4.909  11.321  0.00  0.00    +0.000 C 
ATOM     15  C   UNL     1      42.760   5.266  11.991  0.00  0.00    +0.000 C 
ATOM     16  C   UNL     1      43.053   3.836  11.685  0.00  0.00    +0.000 C 
BRANCH  14  19
ATOM     17  C   UNL     1      46.955   4.162  13.728  0.00  0.00    +0.000 A 
ATOM     18  C   UNL     1      45.800   3.994  12.980  0.00  0.00    +0.000 A 
ATOM     19  C   UNL     1      45.338   5.042  12.170  0.00  0.00    +0.000 A 
ATOM     20  C   UNL     1      46.089   6.224  12.179  0.00  0.00    +0.000 A 
ATOM     21  C   UNL     1      47.240   6.296  12.948  0.00  0.00    +0.000 A 
ATOM     22  N   UNL     1      47.694   5.290  13.719  0.00  0.00    +0.000 NA
BRANCH  17  24
ATOM     23  C   UNL     1      47.677   3.498  15.850  0.00  0.00    +0.000 C 
ATOM     24  O   UNL     1      47.339   3.099  14.524  0.00  0.00    +0.000 OA
ENDBRANCH  17  24
ENDBRANCH  14  19
ENDBRANCH   1  14
TORSDOF 4
ENDMDL
MODEL 2
REMARK VINA RESULT:    -8.639      1.360      2.066
REMARK INTER + INTRA:         -10.266
REMARK INTER:                 -10.577
REMARK INTRA:                   0.311
REMARK UNBOUND:                 0.393
REMARK  Name = 
REMARK  5 active torsions:
REMARK  status: ('A' for Active; 'I' for Inactive)
REMARK    1  A    between atoms: C_1  and  O_2
REMARK    2  A    between atoms: O_2  and  C_3
REMARK    3  A    between atoms: C_5  and  C_6
REMARK    4  A    between atoms: C_6  and  N_7
REMARK    5  A    between atoms: C_11  and  C_12
REMARK                            x       y       z     vdW  Elec       q    Type
REMARK                         _______ _______ _______ _____ _____    ______ ____
ROOT
ATOM      1  N   UNL     1      44.338   5.179   9.722  0.00  0.00    +0.000 N 
ATOM      2  C   UNL     1      44.967   4.106   9.092  0.00  0.00    +0.000 A 
ATOM      3  N   UNL     1      44.865   2.865   9.591  0.00  0.00    +0.000 NA
ATOM      4  C   UNL     1      45.536   1.882   8.954  0.00  0.00    +0.000 A 
ATOM      5  C   UNL     1      46.308   2.092   7.838  0.00  0.00    +0.000 A 
ATOM      6  C   UNL     1      46.354   3.392   7.399  0.00  0.00    +0.000 A 
ATOM      7  N   UNL     1      45.690   4.410   8.000  0.00  0.00    +0.000 NA
ATOM      8  H   UNL     1      44.720   6.022   9.314  0.00  0.00    +0.000 HD
ENDROOT
BRANCH   5   9
ATOM      9  C   UNL     1      47.059   0.980   7.241  0.00  0.00    +0.000 C 
ATOM     10  N   UNL     1      46.741  -0.294   7.618  0.00  0.00    +0.000 N 
ATOM     11  O   UNL     1      47.958   1.192   6.438  0.00  0.00    +0.000 OA
ATOM     12  H   UNL     1      46.187  -0.521   8.432  0.00  0.00    +0.000 HD
ATOM     13  H   UNL     1      47.342  -1.023   7.249  0.00  0.00    +0.000 HD
ENDBRANCH   5   9
BRANCH   1  14
ATOM     14  C   UNL     1      44.041   5.146  11.161  0.00  0.00    +0.000 C 
ATOM     15  C   UNL     1      42.816   5.828  11.747  0.00  0.00    +0.000 C 
ATOM     16  C   UNL     1      42.798   4.350  11.550  0.00  0.00    +0.000 C 
BRANCH  14  19
ATOM     17  C   UNL     1      47.300   6.002  12.974  0.00  0.00    +0.000 A 
ATOM     18  C   UNL     1      46.196   6.121  12.145  0.00  0.00    +0.000 A 
ATOM     19  C   UNL     1      45.276   5.065  12.054  0.00  0.00    +0.000 A 
ATOM     20  C   UNL     1      45.549   3.924  12.819  0.00  0.00    +0.000 A 
ATOM     21  C   UNL     1      46.672   3.900  13.632  0.00  0.00    +0.000 A 
ATOM     22  N   UNL     1      47.551   4.915  13.731  0.00  0.00    +0.000 NA
BRANCH  17  24
ATOM     23  C   UNL     1      48.243   7.753  11.748  0.00  0.00    +0.000 C 
ATOM     24  O   UNL     1      48.177   7.069  12.996  0.00  0.00    +0.000 OA
ENDBRANCH  17  24
ENDBRANCH  14  19
ENDBRANCH   1  14
TORSDOF 4
ENDMDL
MODEL 3
REMARK VINA RESULT:    -7.538      2.165      6.515
REMARK INTER + INTRA:          -8.907
REMARK INTER:                  -8.668
REMARK INTRA:                  -0.239
REMARK UNBOUND:                 0.393
REMARK  Name = 
REMARK  5 active torsions:
REMARK  status: ('A' for Active; 'I' for Inactive)
REMARK    1  A    between atoms: C_1  and  O_2
REMARK    2  A    between atoms: O_2  and  C_3
REMARK    3  A    between atoms: C_5  and  C_6
REMARK    4  A    between atoms: C_6  and  N_7
REMARK    5  A    between atoms: C_11  and  C_12
REMARK                            x       y       z     vdW  Elec       q    Type
REMARK                         _______ _______ _______ _____ _____    ______ ____
ROOT
ATOM      1  N   UNL     1      44.915   6.485  11.214  0.00  0.00    +0.000 N 
ATOM      2  C   UNL     1      45.951   6.601  12.139  0.00  0.00    +0.000 A 
ATOM      3  N   UNL     1      46.563   5.509  12.621  0.00  0.00    +0.000 NA
ATOM      4  C   UNL     1      47.528   5.695  13.547  0.00  0.00    +0.000 A 
ATOM      5  C   UNL     1      47.903   6.931  14.012  0.00  0.00    +0.000 A 
ATOM      6  C   UNL     1      47.222   7.989  13.463  0.00  0.00    +0.000 A 
ATOM      7  N   UNL     1      46.254   7.853  12.525  0.00  0.00    +0.000 NA
ATOM      8  H   UNL     1      44.468   7.390  11.160  0.00  0.00    +0.000 HD
ENDROOT
BRANCH   5   9
ATOM      9  C   UNL     1      48.918   7.045  15.068  0.00  0.00    +0.000 C 
ATOM     10  N   UNL     1      48.497   7.244  16.352  0.00  0.00    +0.000 N 
ATOM     11  O   UNL     1      50.110   6.980  14.799  0.00  0.00    +0.000 OA
ATOM     12  H   UNL     1      47.563   7.538  16.603  0.00  0.00    +0.000 HD
ATOM     13  H   UNL     1      49.231   7.405  17.034  0.00  0.00    +0.000 HD
ENDBRANCH   5   9
BRANCH   1  14
ATOM     14  C   UNL     1      44.090   5.269  11.147  0.00  0.00    +0.000 C 
ATOM     15  C   UNL     1      43.369   4.716  12.364  0.00  0.00    +0.000 C 
ATOM     16  C   UNL     1      42.593   5.487  11.351  0.00  0.00    +0.000 C 
BRANCH  14  19
ATOM     17  C   UNL     1      45.699   3.683   8.059  0.00  0.00    +0.000 A 
ATOM     18  C   UNL     1      45.299   4.641   8.977  0.00  0.00    +0.000 A 
ATOM     19  C   UNL     1      44.552   4.257  10.102  0.00  0.00    +0.000 A 
ATOM     20  C   UNL     1      44.243   2.896  10.219  0.00  0.00    +0.000 A 
ATOM     21  C   UNL     1      44.700   2.007   9.257  0.00  0.00    +0.000 A 
ATOM     22  N   UNL     1      45.425   2.369   8.183  0.00  0.00    +0.000 NA
BRANCH  17  24
ATOM     23  C   UNL     1      46.785   3.081   6.079  0.00  0.00    +0.000 C 
ATOM     24  O   UNL     1      46.409   4.134   6.962  0.00  0.00    +0.000 OA
ENDBRANCH  17  24
ENDBRANCH  14  19
ENDBRANCH   1  14
TORSDOF 4
ENDMDL
MODEL 4
REMARK VINA RESULT:    -7.524      1.900      6.530
REMARK INTER + INTRA:          -8.889
REMARK INTER:                  -8.567
REMARK INTRA:                  -0.323
REMARK UNBOUND:                 0.393
REMARK  Name = 
REMARK  5 active torsions:
REMARK  status: ('A' for Active; 'I' for Inactive)
REMARK    1  A    between atoms: C_1  and  O_2
REMARK    2  A    between atoms: O_2  and  C_3
REMARK    3  A    between atoms: C_5  and  C_6
REMARK    4  A    between atoms: C_6  and  N_7
REMARK    5  A    between atoms: C_11  and  C_12
REMARK                            x       y       z     vdW  Elec       q    Type
REMARK                         _______ _______ _______ _____ _____    ______ ____
ROOT
ATOM      1  N   UNL     1      45.640   5.855  11.827  0.00  0.00    +0.000 N 
ATOM      2  C   UNL     1      46.252   5.300  12.950  0.00  0.00    +0.000 A 
ATOM      3  N   UNL     1      46.144   3.988  13.210  0.00  0.00    +0.000 NA
ATOM      4  C   UNL     1      46.725   3.528  14.338  0.00  0.00    +0.000 A 
ATOM      5  C   UNL     1      47.410   4.329  15.219  0.00  0.00    +0.000 A 
ATOM      6  C   UNL     1      47.469   5.656  14.870  0.00  0.00    +0.000 A 
ATOM      7  N   UNL     1      46.910   6.162  13.745  0.00  0.00    +0.000 NA
ATOM      8  H   UNL     1      45.666   6.859  11.946  0.00  0.00    +0.000 HD
ENDROOT
BRANCH   5   9
ATOM      9  C   UNL     1      47.960   3.763  16.457  0.00  0.00    +0.000 C 
ATOM     10  N   UNL     1      47.124   3.054  17.272  0.00  0.00    +0.000 N 
ATOM     11  O   UNL     1      49.133   3.937  16.758  0.00  0.00    +0.000 OA
ATOM     12  H   UNL     1      46.116   3.075  17.205  0.00  0.00    +0.000 HD
ATOM     13  H   UNL     1      47.522   2.757  18.157  0.00  0.00    +0.000 HD
ENDBRANCH   5   9
BRANCH   1  14
ATOM     14  C   UNL     1      44.453   5.231  11.224  0.00  0.00    +0.000 C 
ATOM     15  C   UNL     1      43.179   4.989  12.017  0.00  0.00    +0.000 C 
ATOM     16  C   UNL     1      43.240   6.147  11.079  0.00  0.00    +0.000 C 
BRANCH  14  19
ATOM     17  C   UNL     1      45.742   3.681   7.972  0.00  0.00    +0.000 A 
ATOM     18  C   UNL     1      45.477   4.620   8.957  0.00  0.00    +0.000 A 
ATOM     19  C   UNL     1      44.766   4.241  10.107  0.00  0.00    +0.000 A 
ATOM     20  C   UNL     1      44.351   2.905  10.179  0.00  0.00    +0.000 A 
ATOM     21  C   UNL     1      44.675   2.032   9.151  0.00  0.00    +0.000 A 
ATOM     22  N   UNL     1      45.365   2.389   8.052  0.00  0.00    +0.000 NA
BRANCH  17  24
ATOM     23  C   UNL     1      46.777   3.072   5.968  0.00  0.00    +0.000 C 
ATOM     24  O   UNL     1      46.423   4.128   6.857  0.00  0.00    +0.000 OA
ENDBRANCH  17  24
ENDBRANCH  14  19
ENDBRANCH   1  14
TORSDOF 4
ENDMDL
MODEL 5
REMARK VINA RESULT:    -6.715      3.112      7.808
REMARK INTER + INTRA:          -7.891
REMARK INTER:                  -8.317
REMARK INTRA:                   0.425
REMARK UNBOUND:                 0.393
REMARK  Name = 
REMARK  5 active torsions:
REMARK  status: ('A' for Active; 'I' for Inactive)
REMARK    1  A    between atoms: C_1  and  O_2
REMARK    2  A    between atoms: O_2  and  C_3
REMARK    3  A    between atoms: C_5  and  C_6
REMARK    4  A    between atoms: C_6  and  N_7
REMARK    5  A    between atoms: C_11  and  C_12
REMARK                            x       y       z     vdW  Elec       q    Type
REMARK                         _______ _______ _______ _____ _____    ______ ____
ROOT
ATOM      1  N   UNL     1      47.028   3.570  14.198  0.00  0.00    +0.000 N 
ATOM      2  C   UNL     1      47.512   3.685  15.500  0.00  0.00    +0.000 A 
ATOM      3  N   UNL     1      47.097   4.678  16.300  0.00  0.00    +0.000 NA
ATOM      4  C   UNL     1      47.641   4.753  17.533  0.00  0.00    +0.000 A 
ATOM      5  C   UNL     1      48.587   3.873  17.998  0.00  0.00    +0.000 A 
ATOM      6  C   UNL     1      48.951   2.890  17.111  0.00  0.00    +0.000 A 
ATOM      7  N   UNL     1      48.427   2.770  15.868  0.00  0.00    +0.000 NA
ATOM      8  H   UNL     1      47.623   2.906  13.721  0.00  0.00    +0.000 HD
ENDROOT
BRANCH   5   9
ATOM      9  C   UNL     1      49.178   4.060  19.329  0.00  0.00    +0.000 C 
ATOM     10  N   UNL     1      48.467   3.641  20.418  0.00  0.00    +0.000 N 
ATOM     11  O   UNL     1      50.271   4.594  19.459  0.00  0.00    +0.000 OA
ATOM     12  H   UNL     1      47.482   3.417  20.399  0.00  0.00    +0.000 HD
ATOM     13  H   UNL     1      48.872   3.870  21.320  0.00  0.00    +0.000 HD
ENDBRANCH   5   9
BRANCH   1  14
ATOM     14  C   UNL     1      46.532   4.746  13.467  0.00  0.00    +0.000 C 
ATOM     15  C   UNL     1      46.823   6.164  13.929  0.00  0.00    +0.000 C 
ATOM     16  C   UNL     1      47.607   5.595  12.795  0.00  0.00    +0.000 C 
BRANCH  14  19
ATOM     17  C   UNL     1      43.818   3.295  11.193  0.00  0.00    +0.000 A 
ATOM     18  C   UNL     1      45.040   3.464  11.826  0.00  0.00    +0.000 A 
ATOM     19  C   UNL     1      45.211   4.517  12.738  0.00  0.00    +0.000 A 
ATOM     20  C   UNL     1      44.109   5.357  12.945  0.00  0.00    +0.000 A 
ATOM     21  C   UNL     1      42.921   5.101  12.278  0.00  0.00    +0.000 A 
ATOM     22  N   UNL     1      42.748   4.087  11.410  0.00  0.00    +0.000 NA
BRANCH  17  24
ATOM     23  C   UNL     1      44.669   2.365   9.225  0.00  0.00    +0.000 C 
ATOM     24  O   UNL     1      43.727   2.255  10.289  0.00  0.00    +0.000 OA
ENDBRANCH  17  24
ENDBRANCH  14  19
ENDBRANCH   1  14
TORSDOF 4
ENDMDL
MODEL 6
REMARK VINA RESULT:    -6.596      3.930      6.557
REMARK INTER + INTRA:          -7.744
REMARK INTER:                  -7.732
REMARK INTRA:                  -0.013
REMARK UNBOUND:                 0.393
REMARK  Name = 
REMARK  5 active torsions:
REMARK  status: ('A' for Active; 'I' for Inactive)
REMARK    1  A    between atoms: C_1  and  O_2
REMARK    2  A    between atoms: O_2  and  C_3
REMARK    3  A    between atoms: C_5  and  C_6
REMARK    4  A    between atoms: C_6  and  N_7
REMARK    5  A    between atoms: C_11  and  C_12
REMARK                            x       y       z     vdW  Elec       q    Type
REMARK                         _______ _______ _______ _____ _____    ______ ____
ROOT
ATOM      1  N   UNL     1      47.647   2.874  15.325  0.00  0.00    +0.000 N 
ATOM      2  C   UNL     1      47.187   3.777  14.368  0.00  0.00    +0.000 A 
ATOM      3  N   UNL     1      47.489   5.081  14.457  0.00  0.00    +0.000 NA
ATOM      4  C   UNL     1      46.973   5.904  13.520  0.00  0.00    +0.000 A 
ATOM      5  C   UNL     1      46.164   5.474  12.497  0.00  0.00    +0.000 A 
ATOM      6  C   UNL     1      45.909   4.125  12.486  0.00  0.00    +0.000 A 
ATOM      7  N   UNL     1      46.412   3.259  13.399  0.00  0.00    +0.000 NA
ATOM      8  H   UNL     1      47.133   2.014  15.188  0.00  0.00    +0.000 HD
ENDROOT
BRANCH   5   9
ATOM      9  C   UNL     1      45.590   6.442  11.554  0.00  0.00    +0.000 C 
ATOM     10  N   UNL     1      45.303   6.021  10.287  0.00  0.00    +0.000 N 
ATOM     11  O   UNL     1      45.391   7.601  11.892  0.00  0.00    +0.000 OA
ATOM     12  H   UNL     1      45.655   5.165   9.882  0.00  0.00    +0.000 HD
ATOM     13  H   UNL     1      44.992   6.743   9.645  0.00  0.00    +0.000 HD
ENDBRANCH   5   9
BRANCH   1  14
ATOM     14  C   UNL     1      47.964   3.313  16.693  0.00  0.00    +0.000 C 
ATOM     15  C   UNL     1      47.172   4.404  17.393  0.00  0.00    +0.000 C 
ATOM     16  C   UNL     1      46.909   2.978  17.744  0.00  0.00    +0.000 C 
BRANCH  14  19
ATOM     17  C   UNL     1      51.450   1.894  17.381  0.00  0.00    +0.000 A 
ATOM     18  C   UNL     1      50.108   1.954  17.040  0.00  0.00    +0.000 A 
ATOM     19  C   UNL     1      49.439   3.188  17.063  0.00  0.00    +0.000 A 
ATOM     20  C   UNL     1      50.191   4.306  17.450  0.00  0.00    +0.000 A 
ATOM     21  C   UNL     1      51.534   4.152  17.758  0.00  0.00    +0.000 A 
ATOM     22  N   UNL     1      52.182   2.972  17.728  0.00  0.00    +0.000 NA
BRANCH  17  24
ATOM     23  C   UNL     1      53.463   0.706  17.405  0.00  0.00    +0.000 C 
ATOM     24  O   UNL     1      52.039   0.645  17.362  0.00  0.00    +0.000 OA
ENDBRANCH  17  24
ENDBRANCH  14  19
ENDBRANCH   1  14
TORSDOF 4
ENDMDL
MODEL 7
REMARK VINA RESULT:    -6.240      3.616      5.196
REMARK INTER + INTRA:          -7.306
REMARK INTER:                  -6.999
REMARK INTRA:                  -0.307
REMARK UNBOUND:                 0.393
REMARK  Name = 
REMARK  5 active torsions:
REMARK  status: ('A' for Active; 'I' for Inactive)
REMARK    1  A    between atoms: C_1  and  O_2
REMARK    2  A    between atoms: O_2  and  C_3
REMARK    3  A    between atoms: C_5  and  C_6
REMARK    4  A    between atoms: C_6  and  N_7
REMARK    5  A    between atoms: C_11  and  C_12
REMARK                            x       y       z     vdW  Elec       q    Type
REMARK                         _______ _______ _______ _____ _____    ______ ____
ROOT
ATOM      1  N   UNL     1      46.474   8.119  12.582  0.00  0.00    +0.000 N 
ATOM      2  C   UNL     1      45.833   6.899  12.370  0.00  0.00    +0.000 A 
ATOM      3  N   UNL     1      46.375   5.755  12.812  0.00  0.00    +0.000 NA
ATOM      4  C   UNL     1      45.721   4.607  12.532  0.00  0.00    +0.000 A 
ATOM      5  C   UNL     1      44.545   4.560  11.824  0.00  0.00    +0.000 A 
ATOM      6  C   UNL     1      44.065   5.779  11.413  0.00  0.00    +0.000 A 
ATOM      7  N   UNL     1      44.681   6.956  11.678  0.00  0.00    +0.000 NA
ATOM      8  H   UNL     1      46.014   8.798  11.992  0.00  0.00    +0.000 HD
ENDROOT
BRANCH   5   9
ATOM      9  C   UNL     1      43.928   3.266  11.505  0.00  0.00    +0.000 C 
ATOM     10  N   UNL     1      43.674   2.399  12.530  0.00  0.00    +0.000 N 
ATOM     11  O   UNL     1      43.665   2.967  10.348  0.00  0.00    +0.000 OA
ATOM     12  H   UNL     1      44.074   2.482  13.454  0.00  0.00    +0.000 HD
ATOM     13  H   UNL     1      43.330   1.485  12.255  0.00  0.00    +0.000 HD
ENDBRANCH   5   9
BRANCH   1  14
ATOM     14  C   UNL     1      47.932   8.188  12.760  0.00  0.00    +0.000 C 
ATOM     15  C   UNL     1      48.898   7.707  11.691  0.00  0.00    +0.000 C 
ATOM     16  C   UNL     1      48.653   9.170  11.840  0.00  0.00    +0.000 C 
BRANCH  14  19
ATOM     17  C   UNL     1      49.575   6.919  15.974  0.00  0.00    +0.000 A 
ATOM     18  C   UNL     1      49.178   6.985  14.648  0.00  0.00    +0.000 A 
ATOM     19  C   UNL     1      48.392   8.063  14.210  0.00  0.00    +0.000 A 
ATOM     20  C   UNL     1      48.044   9.020  15.171  0.00  0.00    +0.000 A 
ATOM     21  C   UNL     1      48.500   8.879  16.472  0.00  0.00    +0.000 A 
ATOM     22  N   UNL     1      49.262   7.853  16.895  0.00  0.00    +0.000 NA
BRANCH  17  24
ATOM     23  C   UNL     1      49.715   5.062  17.386  0.00  0.00    +0.000 C 
ATOM     24  O   UNL     1      50.324   5.818  16.343  0.00  0.00    +0.000 OA
ENDBRANCH  17  24
ENDBRANCH  14  19
ENDBRANCH   1  14
TORSDOF 4
ENDMDL
