MODEL 1
REMARK VINA RESULT:    -7.879      0.000      0.000
REMARK INTER + INTRA:          -8.096
REMARK INTER:                  -9.261
REMARK INTRA:                   1.164
REMARK UNBOUND:                 1.164
REMARK  Name = 
REMARK  4 active torsions:
REMARK  status: ('A' for Active; 'I' for Inactive)
REMARK    1  A    between atoms: C_1  and  N_2
REMARK    2  A    between atoms: C_4  and  N_5
REMARK    3  A    between atoms: C_4  and  C_15
REMARK    4  A    between atoms: C_9  and  C_10
REMARK                            x       y       z     vdW  Elec       q    Type
REMARK                         _______ _______ _______ _____ _____    ______ ____
ROOT
ATOM      1  N   UNL     1      44.736   5.224   9.935  0.00  0.00    +0.000 N 
ATOM      2  C   UNL     1      45.409   4.356   9.064  0.00  0.00    +0.000 A 
ATOM      3  N   UNL     1      45.265   3.029   9.203  0.00  0.00    +0.000 NA
ATOM      4  C   UNL     1      45.931   2.238   8.334  0.00  0.00    +0.000 A 
ATOM      5  C   UNL     1      46.734   2.720   7.327  0.00  0.00    +0.000 A 
ATOM      6  C   UNL     1      46.852   4.092   7.290  0.00  0.00    +0.000 A 
ATOM      7  N   UNL     1      46.198   4.923   8.135  0.00  0.00    +0.000 NA
ATOM      8  H   UNL     1      45.242   6.108   9.881  0.00  0.00    +0.000 HD
ENDROOT
BRANCH   1  12
ATOM      9  C   UNL     1      43.216   1.855  12.370  0.00  0.00    +0.000 C 
ATOM     10  N   UNL     1      43.699   3.220  12.424  0.00  0.00    +0.000 NA
ATOM     11  C   UNL     1      43.056   4.064  11.384  0.00  0.00    +0.000 C 
ATOM     12  C   UNL     1      44.418   4.862  11.319  0.00  0.00    +0.000 C 
ATOM     13  C   UNL     1      44.988   3.435  11.716  0.00  0.00    +0.000 C 
BRANCH  12  14
ATOM     14  C   UNL     1      44.691   6.076  12.246  0.00  0.00    +0.000 C 
ATOM     15  C   UNL     1      45.527   7.226  11.692  0.00  0.00    +0.000 C 
ATOM     16  C   UNL     1      47.020   6.945  11.669  0.00  0.00    +0.000 C 
ATOM     17  C   UNL     1      47.507   6.339  12.973  0.00  0.00    +0.000 C 
ATOM     18  C   UNL     1      46.558   5.325  13.605  0.00  0.00    +0.000 C 
ATOM     19  O   UNL     1      45.178   5.668  13.541  0.00  0.00    +0.000 OA
ENDBRANCH  12  14
ENDBRANCH   1  12
BRANCH   5  20
ATOM     20  C   UNL     1      47.410   1.793   6.412  0.00  0.00    +0.000 C 
ATOM     21  N   UNL     1      48.345   2.299   5.552  0.00  0.00    +0.000 N 
ATOM     22  O   UNL     1      47.116   0.603   6.390  0.00  0.00    +0.000 OA
ATOM     23  H   UNL     1      48.451   3.283   5.355  0.00  0.00    +0.000 HD
ATOM     24  H   UNL     1      48.707   1.653   4.860  0.00  0.00    +0.000 HD
ENDBRANCH   5  20
TORSDOF 3
ENDMDL
MODEL 2
REMARK VINA RESULT:    -6.933      1.666      3.020
REMARK INTER + INTRA:          -6.984
REMARK INTER:                  -8.369
REMARK INTRA:                   1.384
REMARK UNBOUND:                 1.164
REMARK  Name = 
REMARK  4 active torsions:
REMARK  status: ('A' for Active; 'I' for Inactive)
REMARK    1  A    between atoms: C_1  and  N_2
REMARK    2  A    between atoms: C_4  and  N_5
REMARK    3  A    between atoms: C_4  and  C_15
REMARK    4  A    between atoms: C_9  and  C_10
REMARK                            x       y       z     vdW  Elec       q    Type
REMARK                         _______ _______ _______ _____ _____    ______ ____
ROOT
ATOM      1  N   UNL     1      44.951   5.545   9.400  0.00  0.00    +0.000 N 
ATOM      2  C   UNL     1      45.527   4.415   8.803  0.00  0.00    +0.000 A 
ATOM      3  N   UNL     1      45.310   3.199   9.330  0.00  0.00    +0.000 NA
ATOM      4  C   UNL     1      45.885   2.144   8.713  0.00  0.00    +0.000 A 
ATOM      5  C   UNL     1      46.668   2.253   7.588  0.00  0.00    +0.000 A 
ATOM      6  C   UNL     1      46.867   3.542   7.146  0.00  0.00    +0.000 A 
ATOM      7  N   UNL     1      46.305   4.629   7.728  0.00  0.00    +0.000 NA
ATOM      8  H   UNL     1      45.506   6.336   9.074  0.00  0.00    +0.000 HD
ENDROOT
BRANCH   1  12
ATOM      9  C   UNL     1      46.844   6.716  13.225  0.00  0.00    +0.000 C 
ATOM     10  N   UNL     1      45.628   6.209  12.622  0.00  0.00    +0.000 NA
ATOM     11  C   UNL     1      45.915   5.107  11.668  0.00  0.00    +0.000 C 
ATOM     12  C   UNL     1      44.676   5.625  10.837  0.00  0.00    +0.000 C 
ATOM     13  C   UNL     1      45.147   7.006  11.464  0.00  0.00    +0.000 C 
BRANCH  12  14
ATOM     14  C   UNL     1      43.239   5.112  11.117  0.00  0.00    +0.000 C 
ATOM     15  C   UNL     1      42.579   5.515  12.432  0.00  0.00    +0.000 C 
ATOM     16  C   UNL     1      43.064   4.722  13.633  0.00  0.00    +0.000 C 
ATOM     17  C   UNL     1      43.119   3.231  13.347  0.00  0.00    +0.000 C 
ATOM     18  C   UNL     1      43.608   2.862  11.951  0.00  0.00    +0.000 C 
ATOM     19  O   UNL     1      43.122   3.691  10.901  0.00  0.00    +0.000 OA
ENDBRANCH  12  14
ENDBRANCH   1  12
BRANCH   5  20
ATOM     20  C   UNL     1      47.242   1.054   6.967  0.00  0.00    +0.000 C 
ATOM     21  N   UNL     1      46.886  -0.167   7.469  0.00  0.00    +0.000 N 
ATOM     22  O   UNL     1      48.050   1.144   6.049  0.00  0.00    +0.000 OA
ATOM     23  H   UNL     1      46.429  -0.296   8.360  0.00  0.00    +0.000 HD
ATOM     24  H   UNL     1      47.386  -0.964   7.092  0.00  0.00    +0.000 HD
ENDBRANCH   5  20
TORSDOF 3
ENDMDL
MODEL 3
REMARK VINA RESULT:    -6.581      3.781      7.378
REMARK INTER + INTRA:          -6.571
REMARK INTER:                  -7.590
REMARK INTRA:                   1.019
REMARK UNBOUND:                 1.164
REMARK  Name = 
REMARK  4 active torsions:
REMARK  status: ('A' for Active; 'I' for Inactive)
REMARK    1  A    between atoms: C_1  and  N_2
REMARK    2  A    between atoms: C_4  and  N_5
REMARK    3  A    between atoms: C_4  and  C_15
REMARK    4  A    between atoms: C_9  and  C_10
REMARK                            x       y       z     vdW  Elec       q    Type
REMARK                         _______ _______ _______ _____ _____    ______ ____
ROOT
ATOM      1  N   UNL     1      47.515   5.527  13.302  0.00  0.00    +0.000 N 
ATOM      2  C   UNL     1      47.704   5.249  14.663  0.00  0.00    +0.000 A 
ATOM      3  N   UNL     1      46.865   4.411  15.294  0.00  0.00    +0.000 NA
ATOM      4  C   UNL     1      47.095   4.174  16.604  0.00  0.00    +0.000 A 
ATOM      5  C   UNL     1      48.132   4.738  17.310  0.00  0.00    +0.000 A 
ATOM      6  C   UNL     1      48.912   5.614  16.588  0.00  0.00    +0.000 A 
ATOM      7  N   UNL     1      48.724   5.876  15.273  0.00  0.00    +0.000 NA
ATOM      8  H   UNL     1      48.009   6.404  13.134  0.00  0.00    +0.000 HD
ENDROOT
BRANCH   1  12
ATOM      9  C   UNL     1      44.611   8.202  11.303  0.00  0.00    +0.000 C 
ATOM     10  N   UNL     1      44.858   6.837  11.718  0.00  0.00    +0.000 NA
ATOM     11  C   UNL     1      45.354   6.776  13.117  0.00  0.00    +0.000 C 
ATOM     12  C   UNL     1      46.193   5.515  12.670  0.00  0.00    +0.000 C 
ATOM     13  C   UNL     1      46.178   6.303  11.291  0.00  0.00    +0.000 C 
BRANCH  12  14
ATOM     14  C   UNL     1      45.602   4.082  12.736  0.00  0.00    +0.000 C 
ATOM     15  C   UNL     1      45.451   3.309  11.429  0.00  0.00    +0.000 C 
ATOM     16  C   UNL     1      44.252   3.733  10.599  0.00  0.00    +0.000 C 
ATOM     17  C   UNL     1      42.995   3.868  11.440  0.00  0.00    +0.000 C 
ATOM     18  C   UNL     1      43.208   4.475  12.823  0.00  0.00    +0.000 C 
ATOM     19  O   UNL     1      44.380   4.037  13.501  0.00  0.00    +0.000 OA
ENDBRANCH  12  14
ENDBRANCH   1  12
BRANCH   5  20
ATOM     20  C   UNL     1      48.324   4.414  18.728  0.00  0.00    +0.000 C 
ATOM     21  N   UNL     1      48.302   3.098  19.099  0.00  0.00    +0.000 N 
ATOM     22  O   UNL     1      48.461   5.300  19.564  0.00  0.00    +0.000 OA
ATOM     23  H   UNL     1      47.956   2.355  18.510  0.00  0.00    +0.000 HD
ATOM     24  H   UNL     1      48.324   2.918  20.097  0.00  0.00    +0.000 HD
ENDBRANCH   5  20
TORSDOF 3
ENDMDL
MODEL 4
REMARK VINA RESULT:    -6.474      3.457      6.814
REMARK INTER + INTRA:          -6.445
REMARK INTER:                  -6.988
REMARK INTRA:                   0.543
REMARK UNBOUND:                 1.164
REMARK  Name = 
REMARK  4 active torsions:
REMARK  status: ('A' for Active; 'I' for Inactive)
REMARK    1  A    between atoms: C_1  and  N_2
REMARK    2  A    between atoms: C_4  and  N_5
REMARK    3  A    between atoms: C_4  and  C_15
REMARK    4  A    between atoms: C_9  and  C_10
REMARK                            x       y       z     vdW  Elec       q    Type
REMARK                         _______ _______ _______ _____ _____    ______ ____
ROOT
ATOM      1  N   UNL     1      46.958   5.189  12.809  0.00  0.00    +0.000 N 
ATOM      2  C   UNL     1      47.316   5.073  14.159  0.00  0.00    +0.000 A 
ATOM      3  N   UNL     1      46.736   4.134  14.924  0.00  0.00    +0.000 NA
ATOM      4  C   UNL     1      47.121   4.061  16.217  0.00  0.00    +0.000 A 
ATOM      5  C   UNL     1      48.066   4.888  16.777  0.00  0.00    +0.000 A 
ATOM      6  C   UNL     1      48.574   5.844  15.927  0.00  0.00    +0.000 A 
ATOM      7  N   UNL     1      48.223   5.949  14.622  0.00  0.00    +0.000 NA
ATOM      8  H   UNL     1      47.233   6.133  12.536  0.00  0.00    +0.000 HD
ENDROOT
BRANCH   1  12
ATOM      9  C   UNL     1      44.912   2.529   9.924  0.00  0.00    +0.000 C 
ATOM     10  N   UNL     1      44.706   3.549  10.931  0.00  0.00    +0.000 NA
ATOM     11  C   UNL     1      45.635   4.693  10.743  0.00  0.00    +0.000 C 
ATOM     12  C   UNL     1      45.621   4.847  12.315  0.00  0.00    +0.000 C 
ATOM     13  C   UNL     1      45.398   3.278  12.219  0.00  0.00    +0.000 C 
BRANCH  12  14
ATOM     14  C   UNL     1      44.564   5.724  13.035  0.00  0.00    +0.000 C 
ATOM     15  C   UNL     1      43.090   5.423  12.780  0.00  0.00    +0.000 C 
ATOM     16  C   UNL     1      42.576   5.948  11.451  0.00  0.00    +0.000 C 
ATOM     17  C   UNL     1      43.016   7.379  11.194  0.00  0.00    +0.000 C 
ATOM     18  C   UNL     1      44.440   7.703  11.634  0.00  0.00    +0.000 C 
ATOM     19  O   UNL     1      44.833   7.132  12.877  0.00  0.00    +0.000 OA
ENDBRANCH  12  14
ENDBRANCH   1  12
BRANCH   5  20
ATOM     20  C   UNL     1      48.442   4.731  18.187  0.00  0.00    +0.000 C 
ATOM     21  N   UNL     1      48.007   3.619  18.853  0.00  0.00    +0.000 N 
ATOM     22  O   UNL     1      49.096   5.593  18.765  0.00  0.00    +0.000 OA
ATOM     23  H   UNL     1      47.279   3.010  18.511  0.00  0.00    +0.000 HD
ATOM     24  H   UNL     1      48.190   3.599  19.850  0.00  0.00    +0.000 HD
ENDBRANCH   5  20
TORSDOF 3
ENDMDL
MODEL 5
REMARK VINA RESULT:    -6.439      2.397      6.021
REMARK INTER + INTRA:          -6.403
REMARK INTER:                  -7.632
REMARK INTRA:                   1.229
REMARK UNBOUND:                 1.164
REMARK  Name = 
REMARK  4 active torsions:
REMARK  status: ('A' for Active; 'I' for Inactive)
REMARK    1  A    between atoms: C_1  and  N_2
REMARK    2  A    between atoms: C_4  and  N_5
REMARK    3  A    between atoms: C_4  and  C_15
REMARK    4  A    between atoms: C_9  and  C_10
REMARK                            x       y       z     vdW  Elec       q    Type
REMARK                         _______ _______ _______ _____ _____    ______ ____
ROOT
ATOM      1  N   UNL     1      45.539   5.555   9.974  0.00  0.00    +0.000 N 
ATOM      2  C   UNL     1      46.122   6.120  11.117  0.00  0.00    +0.000 A 
ATOM      3  N   UNL     1      46.454   5.334  12.153  0.00  0.00    +0.000 NA
ATOM      4  C   UNL     1      47.017   5.929  13.228  0.00  0.00    +0.000 A 
ATOM      5  C   UNL     1      47.264   7.279  13.308  0.00  0.00    +0.000 A 
ATOM      6  C   UNL     1      46.852   8.008  12.214  0.00  0.00    +0.000 A 
ATOM      7  N   UNL     1      46.291   7.454  11.113  0.00  0.00    +0.000 NA
ATOM      8  H   UNL     1      45.069   6.327   9.499  0.00  0.00    +0.000 HD
ENDROOT
BRANCH   1  12
ATOM      9  C   UNL     1      43.414   2.941  12.845  0.00  0.00    +0.000 C 
ATOM     10  N   UNL     1      43.701   3.157  11.441  0.00  0.00    +0.000 NA
ATOM     11  C   UNL     1      45.146   3.418  11.217  0.00  0.00    +0.000 C 
ATOM     12  C   UNL     1      44.699   4.355  10.027  0.00  0.00    +0.000 C 
ATOM     13  C   UNL     1      43.439   4.543  10.975  0.00  0.00    +0.000 C 
BRANCH  12  14
ATOM     14  C   UNL     1      44.496   3.803   8.591  0.00  0.00    +0.000 C 
ATOM     15  C   UNL     1      44.518   2.290   8.396  0.00  0.00    +0.000 C 
ATOM     16  C   UNL     1      45.913   1.690   8.398  0.00  0.00    +0.000 C 
ATOM     17  C   UNL     1      46.877   2.484   7.535  0.00  0.00    +0.000 C 
ATOM     18  C   UNL     1      46.708   3.998   7.607  0.00  0.00    +0.000 C 
ATOM     19  O   UNL     1      45.359   4.454   7.636  0.00  0.00    +0.000 OA
ENDBRANCH  12  14
ENDBRANCH   1  12
BRANCH   5  20
ATOM     20  C   UNL     1      47.897   7.845  14.505  0.00  0.00    +0.000 C 
ATOM     21  N   UNL     1      47.419   9.031  14.990  0.00  0.00    +0.000 N 
ATOM     22  O   UNL     1      48.853   7.290  15.034  0.00  0.00    +0.000 OA
ATOM     23  H   UNL     1      46.811   9.645  14.469  0.00  0.00    +0.000 HD
ATOM     24  H   UNL     1      47.950   9.447  15.747  0.00  0.00    +0.000 HD
ENDBRANCH   5  20
TORSDOF 3
ENDMDL
MODEL 6
REMARK VINA RESULT:    -6.323      4.125      7.609
REMARK INTER + INTRA:          -6.267
REMARK INTER:                  -7.458
REMARK INTRA:                   1.191
REMARK UNBOUND:                 1.164
REMARK  Name = 
REMARK  4 active torsions:
REMARK  status: ('A' for Active; 'I' for Inactive)
REMARK    1  A    between atoms: C_1  and  N_2
REMARK    2  A    between atoms: C_4  and  N_5
REMARK    3  A    between atoms: C_4  and  C_15
REMARK    4  A    between atoms: C_9  and  C_10
REMARK                            x       y       z     vdW  Elec       q    Type
REMARK                         _______ _______ _______ _____ _____    ______ ____
ROOT
ATOM      1  N   UNL     1      46.095   4.674  14.589  0.00  0.00    +0.000 N 
ATOM      2  C   UNL     1      47.126   4.557  15.531  0.00  0.00    +0.000 A 
ATOM      3  N   UNL     1      48.146   5.431  15.515  0.00  0.00    +0.000 NA
ATOM      4  C   UNL     1      49.111   5.275  16.448  0.00  0.00    +0.000 A 
ATOM      5  C   UNL     1      49.097   4.281  17.399  0.00  0.00    +0.000 A 
ATOM      6  C   UNL     1      48.035   3.411  17.309  0.00  0.00    +0.000 A 
ATOM      7  N   UNL     1      47.041   3.532  16.397  0.00  0.00    +0.000 NA
ATOM      8  H   UNL     1      45.651   3.757  14.557  0.00  0.00    +0.000 HD
ENDROOT
BRANCH   1  12
ATOM      9  C   UNL     1      47.809   8.191  12.520  0.00  0.00    +0.000 C 
ATOM     10  N   UNL     1      47.152   6.916  12.321  0.00  0.00    +0.000 NA
ATOM     11  C   UNL     1      45.977   6.766  13.219  0.00  0.00    +0.000 C 
ATOM     12  C   UNL     1      46.310   5.222  13.247  0.00  0.00    +0.000 C 
ATOM     13  C   UNL     1      47.781   5.788  13.056  0.00  0.00    +0.000 C 
BRANCH  12  14
ATOM     14  C   UNL     1      45.726   4.247  12.191  0.00  0.00    +0.000 C 
ATOM     15  C   UNL     1      45.238   4.831  10.869  0.00  0.00    +0.000 C 
ATOM     16  C   UNL     1      43.878   5.502  10.958  0.00  0.00    +0.000 C 
ATOM     17  C   UNL     1      42.874   4.657  11.721  0.00  0.00    +0.000 C 
ATOM     18  C   UNL     1      43.437   3.930  12.938  0.00  0.00    +0.000 C 
ATOM     19  O   UNL     1      44.733   3.368  12.759  0.00  0.00    +0.000 OA
ENDBRANCH  12  14
ENDBRANCH   1  12
BRANCH   5  20
ATOM     20  C   UNL     1      50.176   4.192  18.390  0.00  0.00    +0.000 C 
ATOM     21  N   UNL     1      49.843   4.243  19.715  0.00  0.00    +0.000 N 
ATOM     22  O   UNL     1      51.348   4.114  18.040  0.00  0.00    +0.000 OA
ATOM     23  H   UNL     1      48.943   4.547  20.056  0.00  0.00    +0.000 HD
ATOM     24  H   UNL     1      50.619   4.293  20.366  0.00  0.00    +0.000 HD
ENDBRANCH   5  20
TORSDOF 3
ENDMDL
MODEL 7
REMARK VINA RESULT:    -6.102      3.451      5.559
REMARK INTER + INTRA:          -6.008
REMARK INTER:                  -6.743
REMARK INTRA:                   0.735
REMARK UNBOUND:                 1.164
REMARK  Name = 
REMARK  4 active torsions:
REMARK  status: ('A' for Active; 'I' for Inactive)
REMARK    1  A    between atoms: C_1  and  N_2
REMARK    2  A    between atoms: C_4  and  N_5
REMARK    3  A    between atoms: C_4  and  C_15
REMARK    4  A    between atoms: C_9  and  C_10
REMARK                            x       y       z     vdW  Elec       q    Type
REMARK                         _______ _______ _______ _____ _____    ______ ____
ROOT
ATOM      1  N   UNL     1      46.149   7.547  13.265  0.00  0.00    +0.000 N 
ATOM      2  C   UNL     1      45.600   6.378  12.722  0.00  0.00    +0.000 A 
ATOM      3  N   UNL     1      46.232   5.205  12.890  0.00  0.00    +0.000 NA
ATOM      4  C   UNL     1      45.657   4.107  12.350  0.00  0.00    +0.000 A 
ATOM      5  C   UNL     1      44.473   4.134  11.651  0.00  0.00    +0.000 A 
ATOM      6  C   UNL     1      43.922   5.386  11.497  0.00  0.00    +0.000 A 
ATOM      7  N   UNL     1      44.458   6.512  12.026  0.00  0.00    +0.000 NA
ATOM      8  H   UNL     1      45.725   8.314  12.742  0.00  0.00    +0.000 HD
ENDROOT
BRANCH   1  12
ATOM      9  C   UNL     1      49.256   7.811  16.405  0.00  0.00    +0.000 C 
ATOM     10  N   UNL     1      49.025   7.843  14.976  0.00  0.00    +0.000 NA
ATOM     11  C   UNL     1      47.882   8.728  14.631  0.00  0.00    +0.000 C 
ATOM     12  C   UNL     1      47.592   7.737  13.436  0.00  0.00    +0.000 C 
ATOM     13  C   UNL     1      48.217   6.703  14.467  0.00  0.00    +0.000 C 
BRANCH  12  14
ATOM     14  C   UNL     1      48.257   7.923  12.046  0.00  0.00    +0.000 C 
ATOM     15  C   UNL     1      49.688   7.426  11.865  0.00  0.00    +0.000 C 
ATOM     16  C   UNL     1      50.739   8.347  12.458  0.00  0.00    +0.000 C 
ATOM     17  C   UNL     1      50.491   9.802  12.099  0.00  0.00    +0.000 C 
ATOM     18  C   UNL     1      49.026  10.226  12.106  0.00  0.00    +0.000 C 
ATOM     19  O   UNL     1      48.119   9.274  11.560  0.00  0.00    +0.000 OA
ENDBRANCH  12  14
ENDBRANCH   1  12
BRANCH   5  20
ATOM     20  C   UNL     1      43.905   2.892  11.112  0.00  0.00    +0.000 C 
ATOM     21  N   UNL     1      44.469   2.360   9.986  0.00  0.00    +0.000 N 
ATOM     22  O   UNL     1      42.928   2.367  11.634  0.00  0.00    +0.000 OA
ATOM     23  H   UNL     1      45.102   2.864   9.383  0.00  0.00    +0.000 HD
ATOM     24  H   UNL     1      43.983   1.569   9.579  0.00  0.00    +0.000 HD
ENDBRANCH   5  20
TORSDOF 3
ENDMDL
MODEL 8
REMARK VINA RESULT:    -5.804      4.154      6.494
REMARK INTER + INTRA:          -5.658
REMARK INTER:                  -6.474
REMARK INTRA:                   0.816
REMARK UNBOUND:                 1.164
REMARK  Name = 
REMARK  4 active torsions:
REMARK  status: ('A' for Active; 'I' for Inactive)
REMARK    1  A    between atoms: C_1  and  N_2
REMARK    2  A    between atoms: C_4  and  N_5
REMARK    3  A    between atoms: C_4  and  C_15
REMARK    4  A    between atoms: C_9  and  C_10
REMARK                            x       y       z     vdW  Elec       q    Type
REMARK                         _______ _______ _______ _____ _____    ______ ____
ROOT
ATOM      1  N   UNL     1      48.240   6.245  13.324  0.00  0.00    +0.000 N 
ATOM      2  C   UNL     1      46.931   5.955  12.915  0.00  0.00    +0.000 A 
ATOM      3  N   UNL     1      46.370   6.666  11.924  0.00  0.00    +0.000 NA
ATOM      4  C   UNL     1      45.108   6.342  11.566  0.00  0.00    +0.000 A 
ATOM      5  C   UNL     1      44.385   5.332  12.155  0.00  0.00    +0.000 A 
ATOM      6  C   UNL     1      45.029   4.687  13.187  0.00  0.00    +0.000 A 
ATOM      7  N   UNL     1      46.295   4.973  13.576  0.00  0.00    +0.000 NA
ATOM      8  H   UNL     1      48.324   5.855  14.262  0.00  0.00    +0.000 HD
ENDROOT
BRANCH   1  12
ATOM      9  C   UNL     1      49.275   9.730  15.849  0.00  0.00    +0.000 C 
ATOM     10  N   UNL     1      49.292   9.212  14.496  0.00  0.00    +0.000 NA
ATOM     11  C   UNL     1      47.988   8.601  14.132  0.00  0.00    +0.000 C 
ATOM     12  C   UNL     1      48.813   7.592  13.240  0.00  0.00    +0.000 C 
ATOM     13  C   UNL     1      49.893   7.858  14.373  0.00  0.00    +0.000 C 
BRANCH  12  14
ATOM     14  C   UNL     1      49.163   7.913  11.763  0.00  0.00    +0.000 C 
ATOM     15  C   UNL     1      50.620   7.786  11.329  0.00  0.00    +0.000 C 
ATOM     16  C   UNL     1      51.493   8.952  11.758  0.00  0.00    +0.000 C 
ATOM     17  C   UNL     1      50.833  10.291  11.482  0.00  0.00    +0.000 C 
ATOM     18  C   UNL     1      49.331  10.335  11.749  0.00  0.00    +0.000 C 
ATOM     19  O   UNL     1      48.612   9.177  11.340  0.00  0.00    +0.000 OA
ENDBRANCH  12  14
ENDBRANCH   1  12
BRANCH   5  20
ATOM     20  C   UNL     1      43.024   5.030  11.694  0.00  0.00    +0.000 C 
ATOM     21  N   UNL     1      42.086   6.022  11.757  0.00  0.00    +0.000 N 
ATOM     22  O   UNL     1      42.727   3.908  11.300  0.00  0.00    +0.000 OA
ATOM     23  H   UNL     1      42.203   6.872  12.288  0.00  0.00    +0.000 HD
ATOM     24  H   UNL     1      41.135   5.747  11.538  0.00  0.00    +0.000 HD
ENDBRANCH   5  20
TORSDOF 3
ENDMDL
MODEL 9
REMARK VINA RESULT:    -5.751      4.541      6.937
REMARK INTER + INTRA:          -5.595
REMARK INTER:                  -6.092
REMARK INTRA:                   0.497
REMARK UNBOUND:                 1.164
REMARK  Name = 
REMARK  4 active torsions:
REMARK  status: ('A' for Active; 'I' for Inactive)
REMARK    1  A    between atoms: C_1  and  N_2
REMARK    2  A    between atoms: C_4  and  N_5
REMARK    3  A    between atoms: C_4  and  C_15
REMARK    4  A    between atoms: C_9  and  C_10
REMARK                            x       y       z     vdW  Elec       q    Type
REMARK                         _______ _______ _______ _____ _____    ______ ____
ROOT
ATOM      1  N   UNL     1      48.869   6.686  13.151  0.00  0.00    +0.000 N 
ATOM      2  C   UNL     1      47.569   6.162  13.138  0.00  0.00    +0.000 A 
ATOM      3  N   UNL     1      46.545   6.933  12.738  0.00  0.00    +0.000 NA
ATOM      4  C   UNL     1      45.313   6.378  12.740  0.00  0.00    +0.000 A 
ATOM      5  C   UNL     1      45.063   5.080  13.124  0.00  0.00    +0.000 A 
ATOM      6  C   UNL     1      46.168   4.383  13.556  0.00  0.00    +0.000 A 
ATOM      7  N   UNL     1      47.422   4.896  13.563  0.00  0.00    +0.000 NA
ATOM      8  H   UNL     1      49.395   6.088  13.788  0.00  0.00    +0.000 HD
ENDROOT
BRANCH   1  12
ATOM      9  C   UNL     1      50.747  10.201  11.226  0.00  0.00    +0.000 C 
ATOM     10  N   UNL     1      50.045   9.744  12.408  0.00  0.00    +0.000 NA
ATOM     11  C   UNL     1      50.612   8.467  12.915  0.00  0.00    +0.000 C 
ATOM     12  C   UNL     1      49.146   8.106  13.380  0.00  0.00    +0.000 C 
ATOM     13  C   UNL     1      48.790   9.001  12.118  0.00  0.00    +0.000 C 
BRANCH  12  14
ATOM     14  C   UNL     1      48.615   8.516  14.780  0.00  0.00    +0.000 C 
ATOM     15  C   UNL     1      49.020   9.881  15.327  0.00  0.00    +0.000 C 
ATOM     16  C   UNL     1      50.432   9.927  15.883  0.00  0.00    +0.000 C 
ATOM     17  C   UNL     1      50.731   8.737  16.778  0.00  0.00    +0.000 C 
ATOM     18  C   UNL     1      50.151   7.410  16.300  0.00  0.00    +0.000 C 
ATOM     19  O   UNL     1      48.835   7.485  15.764  0.00  0.00    +0.000 OA
ENDBRANCH  12  14
ENDBRANCH   1  12
BRANCH   5  20
ATOM     20  C   UNL     1      43.696   4.547  13.079  0.00  0.00    +0.000 C 
ATOM     21  N   UNL     1      42.657   5.435  13.026  0.00  0.00    +0.000 N 
ATOM     22  O   UNL     1      43.489   3.340  13.129  0.00  0.00    +0.000 OA
ATOM     23  H   UNL     1      42.750   6.419  13.226  0.00  0.00    +0.000 HD
ATOM     24  H   UNL     1      41.729   5.036  13.110  0.00  0.00    +0.000 HD
ENDBRANCH   5  20
TORSDOF 3
ENDMDL
