MODEL 1
REMARK VINA RESULT:    -8.034      0.000      0.000
REMARK INTER + INTRA:         -12.618
REMARK INTER:                 -11.322
REMARK INTRA:                  -1.296
REMARK UNBOUND:                -1.296
REMARK  Name = 
REMARK  8 active torsions:
REMARK  status: ('A' for Active; 'I' for Inactive)
REMARK    1  A    between atoms: C_1  and  C_2
REMARK    2  A    between atoms: C_2  and  N_3
REMARK    3  A    between atoms: C_2  and  C_25
REMARK    4  A    between atoms: N_3  and  C_4
REMARK    5  A    between atoms: C_4  and  C_5
REMARK    6  A    between atoms: C_8  and  C_9
REMARK    7  A    between atoms: C_9  and  N_10
REMARK    8  A    between atoms: C_11  and  C_13
REMARK                            x       y       z     vdW  Elec       q    Type
REMARK                         _______ _______ _______ _____ _____    ______ ____
ROOT
ATOM      1  C   UNL     1      44.711   5.500  10.821  0.00  0.00    +0.000 A 
ATOM      2  C   UNL     1      44.197   5.946  12.049  0.00  0.00    +0.000 A 
ATOM      3  C   UNL     1      44.960   6.767  12.886  0.00  0.00    +0.000 A 
ATOM      4  C   UNL     1      46.252   7.162  12.515  0.00  0.00    +0.000 A 
ATOM      5  C   UNL     1      46.787   6.671  11.318  0.00  0.00    +0.000 A 
ATOM      6  C   UNL     1      46.023   5.857  10.477  0.00  0.00    +0.000 A 
ENDROOT
BRANCH   1   7
ATOM      7  C   UNL     1      43.885   4.646   9.883  0.00  0.00    +0.000 C 
BRANCH   7   8
ATOM      8  N   UNL     1      44.637   4.289   8.678  0.00  0.00    +0.000 NA
ATOM      9  H   UNL     1      44.208   4.762   7.882  0.00  0.00    +0.000 HD
BRANCH   8  11
ATOM     10  C   UNL     1      44.432   2.007   9.671  0.00  0.00    +0.000 C 
ATOM     11  C   UNL     1      44.650   2.844   8.403  0.00  0.00    +0.000 C 
BRANCH  11  12
ATOM     12  C   UNL     1      45.976   2.478   7.783  0.00  0.00    +0.000 A 
ATOM     13  C   UNL     1      46.628   1.257   7.752  0.00  0.00    +0.000 A 
ATOM     14  N   UNL     1      47.833   1.229   7.078  0.00  0.00    +0.000 NA
ATOM     15  C   UNL     1      48.094   2.430   6.614  0.00  0.00    +0.000 A 
ATOM     16  S   UNL     1      46.926   3.641   6.947  0.00  0.00    +0.000 S 
ENDBRANCH  11  12
ENDBRANCH   8  11
ENDBRANCH   7   8
ENDBRANCH   1   7
BRANCH   4  17
ATOM     17  C   UNL     1      47.078   8.059  13.400  0.00  0.00    +0.000 C 
BRANCH  17  18
ATOM     18  N   UNL     1      47.532   7.345  14.563  0.00  0.00    +0.000 N 
ATOM     19  C   UNL     1      48.803   6.838  14.654  0.00  0.00    +0.000 C 
ATOM     20  O   UNL     1      49.639   7.009  13.775  0.00  0.00    +0.000 OA
ATOM     21  H   UNL     1      46.809   6.982  15.176  0.00  0.00    +0.000 HD
BRANCH  19  22
ATOM     22  C   UNL     1      49.126   6.137  15.904  0.00  0.00    +0.000 A 
ATOM     23  C   UNL     1      50.211   6.550  16.666  0.00  0.00    +0.000 A 
ATOM     24  S   UNL     1      50.382   5.690  18.131  0.00  0.00    +0.000 S 
ATOM     25  C   UNL     1      49.046   4.700  17.769  0.00  0.00    +0.000 A 
ATOM     26  N   UNL     1      48.646   3.722  18.628  0.00  0.00    +0.000 NA
ATOM     27  C   UNL     1      47.640   3.028  18.214  0.00  0.00    +0.000 A 
ATOM     28  N   UNL     1      46.999   3.219  17.016  0.00  0.00    +0.000 N 
ATOM     29  C   UNL     1      47.361   4.198  16.123  0.00  0.00    +0.000 A 
ATOM     30  O   UNL     1      46.756   4.348  15.067  0.00  0.00    +0.000 OA
ATOM     31  C   UNL     1      48.481   5.017  16.548  0.00  0.00    +0.000 A 
ATOM     32  H   UNL     1      46.221   2.636  16.747  0.00  0.00    +0.000 HD
ENDBRANCH  19  22
ENDBRANCH  17  18
ENDBRANCH   4  17
TORSDOF 7
ENDMDL
MODEL 2
REMARK VINA RESULT:    -7.070      1.844      2.118
REMARK INTER + INTRA:         -11.260
REMARK INTER:                 -10.451
REMARK INTRA:                  -0.809
REMARK UNBOUND:                -1.296
REMARK  Name = 
REMARK  8 active torsions:
REMARK  status: ('A' for Active; 'I' for Inactive)
REMARK    1  A    between atoms: C_1  and  C_2
REMARK    2  A    between atoms: C_2  and  N_3
REMARK    3  A    between atoms: C_2  and  C_25
REMARK    4  A    between atoms: N_3  and  C_4
REMARK    5  A    between atoms: C_4  and  C_5
REMARK    6  A    between atoms: C_8  and  C_9
REMARK    7  A    between atoms: C_9  and  N_10
REMARK    8  A    between atoms: C_11  and  C_13
REMARK                            x       y       z     vdW  Elec       q    Type
REMARK                         _______ _______ _______ _____ _____    ______ ____
ROOT
ATOM      1  C   UNL     1      45.570   5.284  11.487  0.00  0.00    +0.000 A 
ATOM      2  C   UNL     1      45.962   4.752  12.725  0.00  0.00    +0.000 A 
ATOM      3  C   UNL     1      46.993   5.344  13.463  0.00  0.00    +0.000 A 
ATOM      4  C   UNL     1      47.653   6.482  12.980  0.00  0.00    +0.000 A 
ATOM      5  C   UNL     1      47.302   6.980  11.719  0.00  0.00    +0.000 A 
ATOM      6  C   UNL     1      46.267   6.394  10.986  0.00  0.00    +0.000 A 
ENDROOT
BRANCH   1   7
ATOM      7  C   UNL     1      44.429   4.682  10.695  0.00  0.00    +0.000 C 
BRANCH   7   8
ATOM      8  N   UNL     1      44.795   4.483   9.291  0.00  0.00    +0.000 NA
ATOM      9  H   UNL     1      44.226   5.107   8.720  0.00  0.00    +0.000 HD
BRANCH   8  11
ATOM     10  C   UNL     1      44.263   2.139   9.970  0.00  0.00    +0.000 C 
ATOM     11  C   UNL     1      44.581   3.105   8.821  0.00  0.00    +0.000 C 
BRANCH  11  12
ATOM     12  C   UNL     1      45.823   2.637   8.102  0.00  0.00    +0.000 A 
ATOM     13  C   UNL     1      46.392   1.377   8.056  0.00  0.00    +0.000 A 
ATOM     14  N   UNL     1      47.531   1.252   7.283  0.00  0.00    +0.000 NA
ATOM     15  C   UNL     1      47.823   2.420   6.758  0.00  0.00    +0.000 A 
ATOM     16  S   UNL     1      46.766   3.713   7.148  0.00  0.00    +0.000 S 
ENDBRANCH  11  12
ENDBRANCH   8  11
ENDBRANCH   7   8
ENDBRANCH   1   7
BRANCH   4  17
ATOM     17  C   UNL     1      48.753   7.140  13.772  0.00  0.00    +0.000 C 
BRANCH  17  18
ATOM     18  N   UNL     1      48.422   7.169  15.172  0.00  0.00    +0.000 N 
ATOM     19  C   UNL     1      49.319   6.793  16.139  0.00  0.00    +0.000 C 
ATOM     20  O   UNL     1      50.468   6.462  15.871  0.00  0.00    +0.000 OA
ATOM     21  H   UNL     1      47.433   7.195  15.397  0.00  0.00    +0.000 HD
BRANCH  19  22
ATOM     22  C   UNL     1      48.842   6.880  17.525  0.00  0.00    +0.000 A 
ATOM     23  C   UNL     1      48.264   8.056  17.983  0.00  0.00    +0.000 A 
ATOM     24  S   UNL     1      47.679   7.950  19.584  0.00  0.00    +0.000 S 
ATOM     25  C   UNL     1      48.230   6.348  19.738  0.00  0.00    +0.000 A 
ATOM     26  N   UNL     1      48.050   5.653  20.894  0.00  0.00    +0.000 NA
ATOM     27  C   UNL     1      48.545   4.460  20.883  0.00  0.00    +0.000 A 
ATOM     28  N   UNL     1      49.208   3.901  19.820  0.00  0.00    +0.000 N 
ATOM     29  C   UNL     1      49.404   4.559  18.631  0.00  0.00    +0.000 A 
ATOM     30  O   UNL     1      49.990   4.021  17.697  0.00  0.00    +0.000 OA
ATOM     31  C   UNL     1      48.855   5.902  18.588  0.00  0.00    +0.000 A 
ATOM     32  H   UNL     1      49.577   2.963  19.877  0.00  0.00    +0.000 HD
ENDBRANCH  19  22
ENDBRANCH  17  18
ENDBRANCH   4  17
TORSDOF 7
ENDMDL
MODEL 3
REMARK VINA RESULT:    -6.700      2.594      8.081
REMARK INTER + INTRA:         -10.738
REMARK INTER:                  -9.428
REMARK INTRA:                  -1.310
REMARK UNBOUND:                -1.296
REMARK  Name = 
REMARK  8 active torsions:
REMARK  status: ('A' for Active; 'I' for Inactive)
REMARK    1  A    between atoms: C_1  and  C_2
REMARK    2  A    between atoms: C_2  and  N_3
REMARK    3  A    between atoms: C_2  and  C_25
REMARK    4  A    between atoms: N_3  and  C_4
REMARK    5  A    between atoms: C_4  and  C_5
REMARK    6  A    between atoms: C_8  and  C_9
REMARK    7  A    between atoms: C_9  and  N_10
REMARK    8  A    between atoms: C_11  and  C_13
REMARK                            x       y       z     vdW  Elec       q    Type
REMARK                         _______ _______ _______ _____ _____    ______ ____
ROOT
ATOM      1  C   UNL     1      49.244   8.242  16.006  0.00  0.00    +0.000 A 
ATOM      2  C   UNL     1      48.114   8.946  15.563  0.00  0.00    +0.000 A 
ATOM      3  C   UNL     1      47.669   8.824  14.242  0.00  0.00    +0.000 A 
ATOM      4  C   UNL     1      48.342   7.994  13.336  0.00  0.00    +0.000 A 
ATOM      5  C   UNL     1      49.503   7.335  13.762  0.00  0.00    +0.000 A 
ATOM      6  C   UNL     1      49.943   7.451  15.083  0.00  0.00    +0.000 A 
ENDROOT
BRANCH   1   7
ATOM      7  C   UNL     1      49.715   8.329  17.442  0.00  0.00    +0.000 C 
BRANCH   7   8
ATOM      8  N   UNL     1      49.776   7.006  18.070  0.00  0.00    +0.000 NA
ATOM      9  H   UNL     1      50.411   6.423  17.525  0.00  0.00    +0.000 HD
BRANCH   8  11
ATOM     10  C   UNL     1      47.922   6.267  19.571  0.00  0.00    +0.000 C 
ATOM     11  C   UNL     1      48.472   6.331  18.139  0.00  0.00    +0.000 C 
BRANCH  11  12
ATOM     12  C   UNL     1      48.619   4.931  17.596  0.00  0.00    +0.000 A 
ATOM     13  C   UNL     1      49.757   4.156  17.452  0.00  0.00    +0.000 A 
ATOM     14  N   UNL     1      49.567   2.887  16.940  0.00  0.00    +0.000 NA
ATOM     15  C   UNL     1      48.290   2.712  16.688  0.00  0.00    +0.000 A 
ATOM     16  S   UNL     1      47.258   4.033  17.050  0.00  0.00    +0.000 S 
ENDBRANCH  11  12
ENDBRANCH   8  11
ENDBRANCH   7   8
ENDBRANCH   1   7
BRANCH   4  17
ATOM     17  C   UNL     1      47.864   7.840  11.916  0.00  0.00    +0.000 C 
BRANCH  17  18
ATOM     18  N   UNL     1      47.121   6.618  11.761  0.00  0.00    +0.000 N 
ATOM     19  C   UNL     1      45.751   6.587  11.821  0.00  0.00    +0.000 C 
ATOM     20  O   UNL     1      45.081   7.604  11.957  0.00  0.00    +0.000 OA
ATOM     21  H   UNL     1      47.642   5.757  11.896  0.00  0.00    +0.000 HD
BRANCH  19  22
ATOM     22  C   UNL     1      45.130   5.269  11.639  0.00  0.00    +0.000 A 
ATOM     23  C   UNL     1      44.491   4.654  12.707  0.00  0.00    +0.000 A 
ATOM     24  S   UNL     1      43.743   3.176  12.294  0.00  0.00    +0.000 S 
ATOM     25  C   UNL     1      44.296   3.281  10.689  0.00  0.00    +0.000 A 
ATOM     26  N   UNL     1      44.004   2.308   9.782  0.00  0.00    +0.000 NA
ATOM     27  C   UNL     1      44.514   2.500   8.611  0.00  0.00    +0.000 A 
ATOM     28  N   UNL     1      45.292   3.575   8.265  0.00  0.00    +0.000 N 
ATOM     29  C   UNL     1      45.604   4.585   9.142  0.00  0.00    +0.000 A 
ATOM     30  O   UNL     1      46.292   5.538   8.793  0.00  0.00    +0.000 OA
ATOM     31  C   UNL     1      45.044   4.423  10.471  0.00  0.00    +0.000 A 
ATOM     32  H   UNL     1      45.667   3.663   7.332  0.00  0.00    +0.000 HD
ENDBRANCH  19  22
ENDBRANCH  17  18
ENDBRANCH   4  17
TORSDOF 7
ENDMDL
MODEL 4
REMARK VINA RESULT:    -6.259      2.640      7.842
REMARK INTER + INTRA:         -10.116
REMARK INTER:                  -9.052
REMARK INTRA:                  -1.065
REMARK UNBOUND:                -1.296
REMARK  Name = 
REMARK  8 active torsions:
REMARK  status: ('A' for Active; 'I' for Inactive)
REMARK    1  A    between atoms: C_1  and  C_2
REMARK    2  A    between atoms: C_2  and  N_3
REMARK    3  A    between atoms: C_2  and  C_25
REMARK    4  A    between atoms: N_3  and  C_4
REMARK    5  A    between atoms: C_4  and  C_5
REMARK    6  A    between atoms: C_8  and  C_9
REMARK    7  A    between atoms: C_9  and  N_10
REMARK    8  A    between atoms: C_11  and  C_13
REMARK                            x       y       z     vdW  Elec       q    Type
REMARK                         _______ _______ _______ _____ _____    ______ ____
ROOT
ATOM      1  C   UNL     1      50.112   6.997  15.836  0.00  0.00    +0.000 A 
ATOM      2  C   UNL     1      48.766   6.718  15.555  0.00  0.00    +0.000 A 
ATOM      3  C   UNL     1      48.207   7.068  14.321  0.00  0.00    +0.000 A 
ATOM      4  C   UNL     1      48.981   7.702  13.340  0.00  0.00    +0.000 A 
ATOM      5  C   UNL     1      50.309   8.032  13.641  0.00  0.00    +0.000 A 
ATOM      6  C   UNL     1      50.870   7.676  14.870  0.00  0.00    +0.000 A 
ENDROOT
BRANCH   1   7
ATOM      7  C   UNL     1      50.745   6.588  17.149  0.00  0.00    +0.000 C 
BRANCH   7   8
ATOM      8  N   UNL     1      51.541   5.367  17.006  0.00  0.00    +0.000 NA
ATOM      9  H   UNL     1      51.380   4.988  16.073  0.00  0.00    +0.000 HD
BRANCH   8  11
ATOM     10  C   UNL     1      52.414   3.466  18.371  0.00  0.00    +0.000 C 
ATOM     11  C   UNL     1      51.202   4.329  17.991  0.00  0.00    +0.000 C 
BRANCH  11  12
ATOM     12  C   UNL     1      50.120   3.448  17.418  0.00  0.00    +0.000 A 
ATOM     13  C   UNL     1      50.230   2.328  16.612  0.00  0.00    +0.000 A 
ATOM     14  N   UNL     1      49.044   1.711  16.264  0.00  0.00    +0.000 NA
ATOM     15  C   UNL     1      48.043   2.373  16.798  0.00  0.00    +0.000 A 
ATOM     16  S   UNL     1      48.457   3.746  17.737  0.00  0.00    +0.000 S 
ENDBRANCH  11  12
ENDBRANCH   8  11
ENDBRANCH   7   8
ENDBRANCH   1   7
BRANCH   4  17
ATOM     17  C   UNL     1      48.397   8.069  12.001  0.00  0.00    +0.000 C 
BRANCH  17  18
ATOM     18  N   UNL     1      47.649   6.967  11.456  0.00  0.00    +0.000 N 
ATOM     19  C   UNL     1      46.280   6.988  11.374  0.00  0.00    +0.000 C 
ATOM     20  O   UNL     1      45.620   7.964  11.711  0.00  0.00    +0.000 OA
ATOM     21  H   UNL     1      48.134   6.077  11.407  0.00  0.00    +0.000 HD
BRANCH  19  22
ATOM     22  C   UNL     1      45.654   5.795  10.789  0.00  0.00    +0.000 A 
ATOM     23  C   UNL     1      45.836   5.509   9.443  0.00  0.00    +0.000 A 
ATOM     24  S   UNL     1      45.121   4.037   8.956  0.00  0.00    +0.000 S 
ATOM     25  C   UNL     1      44.496   3.761  10.513  0.00  0.00    +0.000 A 
ATOM     26  N   UNL     1      43.758   2.650  10.786  0.00  0.00    +0.000 NA
ATOM     27  C   UNL     1      43.321   2.584  11.998  0.00  0.00    +0.000 A 
ATOM     28  N   UNL     1      43.550   3.531  12.964  0.00  0.00    +0.000 N 
ATOM     29  C   UNL     1      44.296   4.662  12.739  0.00  0.00    +0.000 A 
ATOM     30  O   UNL     1      44.492   5.481  13.631  0.00  0.00    +0.000 OA
ATOM     31  C   UNL     1      44.823   4.778  11.391  0.00  0.00    +0.000 A 
ATOM     32  H   UNL     1      43.174   3.423  13.894  0.00  0.00    +0.000 HD
ENDBRANCH  19  22
ENDBRANCH  17  18
ENDBRANCH   4  17
TORSDOF 7
ENDMDL
MODEL 5
REMARK VINA RESULT:    -6.227      3.572      4.981
REMARK INTER + INTRA:         -10.072
REMARK INTER:                  -8.852
REMARK INTRA:                  -1.220
REMARK UNBOUND:                -1.296
REMARK  Name = 
REMARK  8 active torsions:
REMARK  status: ('A' for Active; 'I' for Inactive)
REMARK    1  A    between atoms: C_1  and  C_2
REMARK    2  A    between atoms: C_2  and  N_3
REMARK    3  A    between atoms: C_2  and  C_25
REMARK    4  A    between atoms: N_3  and  C_4
REMARK    5  A    between atoms: C_4  and  C_5
REMARK    6  A    between atoms: C_8  and  C_9
REMARK    7  A    between atoms: C_9  and  N_10
REMARK    8  A    between atoms: C_11  and  C_13
REMARK                            x       y       z     vdW  Elec       q    Type
REMARK                         _______ _______ _______ _____ _____    ______ ____
ROOT
ATOM      1  C   UNL     1      45.668   5.813  11.721  0.00  0.00    +0.000 A 
ATOM      2  C   UNL     1      46.228   7.099  11.741  0.00  0.00    +0.000 A 
ATOM      3  C   UNL     1      47.187   7.445  12.700  0.00  0.00    +0.000 A 
ATOM      4  C   UNL     1      47.608   6.512  13.656  0.00  0.00    +0.000 A 
ATOM      5  C   UNL     1      47.009   5.247  13.672  0.00  0.00    +0.000 A 
ATOM      6  C   UNL     1      46.057   4.898  12.710  0.00  0.00    +0.000 A 
ENDROOT
BRANCH   1   7
ATOM      7  C   UNL     1      44.661   5.407  10.665  0.00  0.00    +0.000 C 
BRANCH   7   8
ATOM      8  N   UNL     1      45.318   5.023   9.414  0.00  0.00    +0.000 NA
ATOM      9  H   UNL     1      45.175   5.770   8.735  0.00  0.00    +0.000 HD
BRANCH   8  11
ATOM     10  C   UNL     1      44.277   2.809   9.916  0.00  0.00    +0.000 C 
ATOM     11  C   UNL     1      44.798   3.772   8.841  0.00  0.00    +0.000 C 
BRANCH  11  12
ATOM     12  C   UNL     1      45.899   3.100   8.057  0.00  0.00    +0.000 A 
ATOM     13  C   UNL     1      46.852   3.656   7.223  0.00  0.00    +0.000 A 
ATOM     14  N   UNL     1      47.755   2.775   6.660  0.00  0.00    +0.000 NA
ATOM     15  C   UNL     1      47.472   1.556   7.060  0.00  0.00    +0.000 A 
ATOM     16  S   UNL     1      46.136   1.399   8.123  0.00  0.00    +0.000 S 
ENDBRANCH  11  12
ENDBRANCH   8  11
ENDBRANCH   7   8
ENDBRANCH   1   7
BRANCH   4  17
ATOM     17  C   UNL     1      48.652   6.866  14.684  0.00  0.00    +0.000 C 
BRANCH  17  18
ATOM     18  N   UNL     1      49.887   7.235  14.045  0.00  0.00    +0.000 N 
ATOM     19  C   UNL     1      50.361   8.521  14.065  0.00  0.00    +0.000 C 
ATOM     20  O   UNL     1      49.788   9.419  14.672  0.00  0.00    +0.000 OA
ATOM     21  H   UNL     1      50.239   6.589  13.346  0.00  0.00    +0.000 HD
BRANCH  19  22
ATOM     22  C   UNL     1      51.638   8.746  13.376  0.00  0.00    +0.000 A 
ATOM     23  C   UNL     1      52.673   9.395  14.034  0.00  0.00    +0.000 A 
ATOM     24  S   UNL     1      54.113   9.484  13.121  0.00  0.00    +0.000 S 
ATOM     25  C   UNL     1      53.384   8.709  11.794  0.00  0.00    +0.000 A 
ATOM     26  N   UNL     1      54.083   8.473  10.650  0.00  0.00    +0.000 NA
ATOM     27  C   UNL     1      53.398   7.906   9.713  0.00  0.00    +0.000 A 
ATOM     28  N   UNL     1      52.075   7.558   9.815  0.00  0.00    +0.000 N 
ATOM     29  C   UNL     1      51.333   7.768  10.952  0.00  0.00    +0.000 A 
ATOM     30  O   UNL     1      50.155   7.430  11.011  0.00  0.00    +0.000 OA
ATOM     31  C   UNL     1      52.061   8.391  12.041  0.00  0.00    +0.000 A 
ATOM     32  H   UNL     1      51.594   7.123   9.042  0.00  0.00    +0.000 HD
ENDBRANCH  19  22
ENDBRANCH  17  18
ENDBRANCH   4  17
TORSDOF 7
ENDMDL
MODEL 6
REMARK VINA RESULT:    -6.198      4.622      7.490
REMARK INTER + INTRA:         -10.031
REMARK INTER:                  -9.094
REMARK INTRA:                  -0.937
REMARK UNBOUND:                -1.296
REMARK  Name = 
REMARK  8 active torsions:
REMARK  status: ('A' for Active; 'I' for Inactive)
REMARK    1  A    between atoms: C_1  and  C_2
REMARK    2  A    between atoms: C_2  and  N_3
REMARK    3  A    between atoms: C_2  and  C_25
REMARK    4  A    between atoms: N_3  and  C_4
REMARK    5  A    between atoms: C_4  and  C_5
REMARK    6  A    between atoms: C_8  and  C_9
REMARK    7  A    between atoms: C_9  and  N_10
REMARK    8  A    between atoms: C_11  and  C_13
REMARK                            x       y       z     vdW  Elec       q    Type
REMARK                         _______ _______ _______ _____ _____    ______ ____
ROOT
ATOM      1  C   UNL     1      50.495   8.757  11.455  0.00  0.00    +0.000 A 
ATOM      2  C   UNL     1      49.583   9.824  11.450  0.00  0.00    +0.000 A 
ATOM      3  C   UNL     1      48.262   9.637  11.872  0.00  0.00    +0.000 A 
ATOM      4  C   UNL     1      47.824   8.380  12.309  0.00  0.00    +0.000 A 
ATOM      5  C   UNL     1      48.717   7.302  12.260  0.00  0.00    +0.000 A 
ATOM      6  C   UNL     1      50.038   7.490  11.847  0.00  0.00    +0.000 A 
ENDROOT
BRANCH   1   7
ATOM      7  C   UNL     1      51.938   8.950  11.043  0.00  0.00    +0.000 C 
BRANCH   7   8
ATOM      8  N   UNL     1      52.392   7.880  10.151  0.00  0.00    +0.000 NA
ATOM      9  H   UNL     1      52.868   7.176  10.714  0.00  0.00    +0.000 HD
BRANCH   8  11
ATOM     10  C   UNL     1      52.834   9.627   8.422  0.00  0.00    +0.000 C 
ATOM     11  C   UNL     1      53.319   8.343   9.107  0.00  0.00    +0.000 C 
BRANCH  11  12
ATOM     12  C   UNL     1      53.475   7.252   8.076  0.00  0.00    +0.000 A 
ATOM     13  C   UNL     1      53.327   7.312   6.701  0.00  0.00    +0.000 A 
ATOM     14  N   UNL     1      53.562   6.137   6.013  0.00  0.00    +0.000 NA
ATOM     15  C   UNL     1      53.874   5.193   6.871  0.00  0.00    +0.000 A 
ATOM     16  S   UNL     1      53.909   5.650   8.523  0.00  0.00    +0.000 S 
ENDBRANCH  11  12
ENDBRANCH   8  11
ENDBRANCH   7   8
ENDBRANCH   1   7
BRANCH   4  17
ATOM     17  C   UNL     1      46.409   8.169  12.781  0.00  0.00    +0.000 C 
BRANCH  17  18
ATOM     18  N   UNL     1      45.965   6.837  12.468  0.00  0.00    +0.000 N 
ATOM     19  C   UNL     1      44.839   6.603  11.720  0.00  0.00    +0.000 C 
ATOM     20  O   UNL     1      44.178   7.512  11.233  0.00  0.00    +0.000 OA
ATOM     21  H   UNL     1      46.335   6.093  13.050  0.00  0.00    +0.000 HD
BRANCH  19  22
ATOM     22  C   UNL     1      44.512   5.192  11.477  0.00  0.00    +0.000 A 
ATOM     23  C   UNL     1      43.795   4.476  12.425  0.00  0.00    +0.000 A 
ATOM     24  S   UNL     1      43.419   2.883  11.936  0.00  0.00    +0.000 S 
ATOM     25  C   UNL     1      44.252   3.079  10.466  0.00  0.00    +0.000 A 
ATOM     26  N   UNL     1      44.325   2.065   9.561  0.00  0.00    +0.000 NA
ATOM     27  C   UNL     1      45.013   2.340   8.504  0.00  0.00    +0.000 A 
ATOM     28  N   UNL     1      45.640   3.538   8.272  0.00  0.00    +0.000 N 
ATOM     29  C   UNL     1      45.586   4.593   9.150  0.00  0.00    +0.000 A 
ATOM     30  O   UNL     1      46.148   5.655   8.901  0.00  0.00    +0.000 OA
ATOM     31  C   UNL     1      44.812   4.338  10.350  0.00  0.00    +0.000 A 
ATOM     32  H   UNL     1      46.170   3.689   7.426  0.00  0.00    +0.000 HD
ENDBRANCH  19  22
ENDBRANCH  17  18
ENDBRANCH   4  17
TORSDOF 7
ENDMDL
MODEL 7
REMARK VINA RESULT:    -6.156      3.004      3.809
REMARK INTER + INTRA:          -9.971
REMARK INTER:                  -9.119
REMARK INTRA:                  -0.853
REMARK UNBOUND:                -1.296
REMARK  Name = 
REMARK  8 active torsions:
REMARK  status: ('A' for Active; 'I' for Inactive)
REMARK    1  A    between atoms: C_1  and  C_2
REMARK    2  A    between atoms: C_2  and  N_3
REMARK    3  A    between atoms: C_2  and  C_25
REMARK    4  A    between atoms: N_3  and  C_4
REMARK    5  A    between atoms: C_4  and  C_5
REMARK    6  A    between atoms: C_8  and  C_9
REMARK    7  A    between atoms: C_9  and  N_10
REMARK    8  A    between atoms: C_11  and  C_13
REMARK                            x       y       z     vdW  Elec       q    Type
REMARK                         _______ _______ _______ _____ _____    ______ ____
ROOT
ATOM      1  C   UNL     1      46.425   5.041  14.010  0.00  0.00    +0.000 A 
ATOM      2  C   UNL     1      46.875   4.546  15.244  0.00  0.00    +0.000 A 
ATOM      3  C   UNL     1      47.951   5.148  15.905  0.00  0.00    +0.000 A 
ATOM      4  C   UNL     1      48.600   6.258  15.349  0.00  0.00    +0.000 A 
ATOM      5  C   UNL     1      48.190   6.717  14.091  0.00  0.00    +0.000 A 
ATOM      6  C   UNL     1      47.109   6.121  13.434  0.00  0.00    +0.000 A 
ENDROOT
BRANCH   1   7
ATOM      7  C   UNL     1      45.236   4.430  13.301  0.00  0.00    +0.000 C 
BRANCH   7   8
ATOM      8  N   UNL     1      45.626   3.806  12.034  0.00  0.00    +0.000 NA
ATOM      9  H   UNL     1      46.396   4.344  11.637  0.00  0.00    +0.000 HD
BRANCH   8  11
ATOM     10  C   UNL     1      43.440   2.757  11.435  0.00  0.00    +0.000 C 
ATOM     11  C   UNL     1      44.537   3.758  11.046  0.00  0.00    +0.000 C 
BRANCH  11  12
ATOM     12  C   UNL     1      45.113   3.374   9.705  0.00  0.00    +0.000 A 
ATOM     13  C   UNL     1      45.303   2.118   9.155  0.00  0.00    +0.000 A 
ATOM     14  N   UNL     1      45.837   2.088   7.881  0.00  0.00    +0.000 NA
ATOM     15  C   UNL     1      46.058   3.319   7.479  0.00  0.00    +0.000 A 
ATOM     16  S   UNL     1      45.642   4.563   8.582  0.00  0.00    +0.000 S 
ENDBRANCH  11  12
ENDBRANCH   8  11
ENDBRANCH   7   8
ENDBRANCH   1   7
BRANCH   4  17
ATOM     17  C   UNL     1      49.750   6.925  16.058  0.00  0.00    +0.000 C 
BRANCH  17  18
ATOM     18  N   UNL     1      50.704   5.947  16.508  0.00  0.00    +0.000 N 
ATOM     19  C   UNL     1      50.871   5.653  17.837  0.00  0.00    +0.000 C 
ATOM     20  O   UNL     1      50.183   6.166  18.712  0.00  0.00    +0.000 OA
ATOM     21  H   UNL     1      51.437   5.701  15.851  0.00  0.00    +0.000 HD
BRANCH  19  22
ATOM     22  C   UNL     1      51.877   4.628  18.146  0.00  0.00    +0.000 A 
ATOM     23  C   UNL     1      53.069   4.993  18.758  0.00  0.00    +0.000 A 
ATOM     24  S   UNL     1      54.078   3.668  19.131  0.00  0.00    +0.000 S 
ATOM     25  C   UNL     1      52.982   2.567  18.437  0.00  0.00    +0.000 A 
ATOM     26  N   UNL     1      53.247   1.232  18.417  0.00  0.00    +0.000 NA
ATOM     27  C   UNL     1      52.345   0.517  17.832  0.00  0.00    +0.000 A 
ATOM     28  N   UNL     1      51.202   1.017  17.261  0.00  0.00    +0.000 N 
ATOM     29  C   UNL     1      50.888   2.354  17.266  0.00  0.00    +0.000 A 
ATOM     30  O   UNL     1      49.849   2.763  16.757  0.00  0.00    +0.000 OA
ATOM     31  C   UNL     1      51.865   3.201  17.924  0.00  0.00    +0.000 A 
ATOM     32  H   UNL     1      50.538   0.404  16.812  0.00  0.00    +0.000 HD
ENDBRANCH  19  22
ENDBRANCH  17  18
ENDBRANCH   4  17
TORSDOF 7
ENDMDL
MODEL 8
REMARK VINA RESULT:    -6.015      2.240      2.812
REMARK INTER + INTRA:          -9.772
REMARK INTER:                  -8.707
REMARK INTRA:                  -1.065
REMARK UNBOUND:                -1.296
REMARK  Name = 
REMARK  8 active torsions:
REMARK  status: ('A' for Active; 'I' for Inactive)
REMARK    1  A    between atoms: C_1  and  C_2
REMARK    2  A    between atoms: C_2  and  N_3
REMARK    3  A    between atoms: C_2  and  C_25
REMARK    4  A    between atoms: N_3  and  C_4
REMARK    5  A    between atoms: C_4  and  C_5
REMARK    6  A    between atoms: C_8  and  C_9
REMARK    7  A    between atoms: C_9  and  N_10
REMARK    8  A    between atoms: C_11  and  C_13
REMARK                            x       y       z     vdW  Elec       q    Type
REMARK                         _______ _______ _______ _____ _____    ______ ____
ROOT
ATOM      1  C   UNL     1      45.597   6.323  12.140  0.00  0.00    +0.000 A 
ATOM      2  C   UNL     1      46.391   5.351  12.769  0.00  0.00    +0.000 A 
ATOM      3  C   UNL     1      47.626   5.693  13.331  0.00  0.00    +0.000 A 
ATOM      4  C   UNL     1      48.093   7.012  13.279  0.00  0.00    +0.000 A 
ATOM      5  C   UNL     1      47.329   7.971  12.602  0.00  0.00    +0.000 A 
ATOM      6  C   UNL     1      46.091   7.632  12.047  0.00  0.00    +0.000 A 
ENDROOT
BRANCH   1   7
ATOM      7  C   UNL     1      44.239   5.981  11.564  0.00  0.00    +0.000 C 
BRANCH   7   8
ATOM      8  N   UNL     1      44.347   5.474  10.194  0.00  0.00    +0.000 NA
ATOM      9  H   UNL     1      43.855   6.118   9.576  0.00  0.00    +0.000 HD
BRANCH   8  11
ATOM     10  C   UNL     1      43.451   3.455  11.359  0.00  0.00    +0.000 C 
ATOM     11  C   UNL     1      43.770   4.133  10.019  0.00  0.00    +0.000 C 
BRANCH  11  12
ATOM     12  C   UNL     1      44.744   3.280   9.245  0.00  0.00    +0.000 A 
ATOM     13  C   UNL     1      44.989   1.921   9.334  0.00  0.00    +0.000 A 
ATOM     14  N   UNL     1      45.936   1.416   8.464  0.00  0.00    +0.000 NA
ATOM     15  C   UNL     1      46.411   2.397   7.730  0.00  0.00    +0.000 A 
ATOM     16  S   UNL     1      45.757   3.953   8.030  0.00  0.00    +0.000 S 
ENDBRANCH  11  12
ENDBRANCH   8  11
ENDBRANCH   7   8
ENDBRANCH   1   7
BRANCH   4  17
ATOM     17  C   UNL     1      49.414   7.397  13.894  0.00  0.00    +0.000 C 
BRANCH  17  18
ATOM     18  N   UNL     1      49.539   6.838  15.214  0.00  0.00    +0.000 N 
ATOM     19  C   UNL     1      50.713   6.899  15.921  0.00  0.00    +0.000 C 
ATOM     20  O   UNL     1      51.704   7.477  15.492  0.00  0.00    +0.000 OA
ATOM     21  H   UNL     1      48.836   6.156  15.480  0.00  0.00    +0.000 HD
BRANCH  19  22
ATOM     22  C   UNL     1      50.690   6.291  17.257  0.00  0.00    +0.000 A 
ATOM     23  C   UNL     1      51.539   5.232  17.549  0.00  0.00    +0.000 A 
ATOM     24  S   UNL     1      51.449   4.713  19.173  0.00  0.00    +0.000 S 
ATOM     25  C   UNL     1      50.232   5.848  19.526  0.00  0.00    +0.000 A 
ATOM     26  N   UNL     1      49.692   5.931  20.773  0.00  0.00    +0.000 NA
ATOM     27  C   UNL     1      48.757   6.814  20.891  0.00  0.00    +0.000 A 
ATOM     28  N   UNL     1      48.309   7.618  19.874  0.00  0.00    +0.000 N 
ATOM     29  C   UNL     1      48.830   7.576  18.604  0.00  0.00    +0.000 A 
ATOM     30  O   UNL     1      48.413   8.321  17.723  0.00  0.00    +0.000 OA
ATOM     31  C   UNL     1      49.895   6.608  18.421  0.00  0.00    +0.000 A 
ATOM     32  H   UNL     1      47.568   8.285  20.031  0.00  0.00    +0.000 HD
ENDBRANCH  19  22
ENDBRANCH  17  18
ENDBRANCH   4  17
TORSDOF 7
ENDMDL
MODEL 9
REMARK VINA RESULT:    -5.772      2.525      3.393
REMARK INTER + INTRA:          -9.431
REMARK INTER:                  -8.475
REMARK INTRA:                  -0.955
REMARK UNBOUND:                -1.296
REMARK  Name = 
REMARK  8 active torsions:
REMARK  status: ('A' for Active; 'I' for Inactive)
REMARK    1  A    between atoms: C_1  and  C_2
REMARK    2  A    between atoms: C_2  and  N_3
REMARK    3  A    between atoms: C_2  and  C_25
REMARK    4  A    between atoms: N_3  and  C_4
REMARK    5  A    between atoms: C_4  and  C_5
REMARK    6  A    between atoms: C_8  and  C_9
REMARK    7  A    between atoms: C_9  and  N_10
REMARK    8  A    between atoms: C_11  and  C_13
REMARK                            x       y       z     vdW  Elec       q    Type
REMARK                         _______ _______ _______ _____ _____    ______ ____
ROOT
ATOM      1  C   UNL     1      46.128   6.038  13.062  0.00  0.00    +0.000 A 
ATOM      2  C   UNL     1      47.028   5.632  14.059  0.00  0.00    +0.000 A 
ATOM      3  C   UNL     1      48.234   6.315  14.255  0.00  0.00    +0.000 A 
ATOM      4  C   UNL     1      48.565   7.419  13.460  0.00  0.00    +0.000 A 
ATOM      5  C   UNL     1      47.695   7.791  12.428  0.00  0.00    +0.000 A 
ATOM      6  C   UNL     1      46.487   7.114  12.237  0.00  0.00    +0.000 A 
ENDROOT
BRANCH   1   7
ATOM      7  C   UNL     1      44.801   5.339  12.864  0.00  0.00    +0.000 C 
BRANCH   7   8
ATOM      8  N   UNL     1      44.975   4.013  12.265  0.00  0.00    +0.000 NA
ATOM      9  H   UNL     1      45.912   3.963  11.866  0.00  0.00    +0.000 HD
BRANCH   8  11
ATOM     10  C   UNL     1      43.284   2.381  11.420  0.00  0.00    +0.000 C 
ATOM     11  C   UNL     1      44.003   3.720  11.201  0.00  0.00    +0.000 C 
BRANCH  11  12
ATOM     12  C   UNL     1      44.725   3.690   9.876  0.00  0.00    +0.000 A 
ATOM     13  C   UNL     1      45.299   4.727   9.163  0.00  0.00    +0.000 A 
ATOM     14  N   UNL     1      45.918   4.379   7.978  0.00  0.00    +0.000 NA
ATOM     15  C   UNL     1      45.799   3.084   7.795  0.00  0.00    +0.000 A 
ATOM     16  S   UNL     1      44.958   2.221   9.015  0.00  0.00    +0.000 S 
ENDBRANCH  11  12
ENDBRANCH   8  11
ENDBRANCH   7   8
ENDBRANCH   1   7
BRANCH   4  17
ATOM     17  C   UNL     1      49.852   8.174  13.671  0.00  0.00    +0.000 C 
BRANCH  17  18
ATOM     18  N   UNL     1      50.810   7.356  14.367  0.00  0.00    +0.000 N 
ATOM     19  C   UNL     1      51.185   7.617  15.660  0.00  0.00    +0.000 C 
ATOM     20  O   UNL     1      50.688   8.526  16.314  0.00  0.00    +0.000 OA
ATOM     21  H   UNL     1      51.404   6.772  13.788  0.00  0.00    +0.000 HD
BRANCH  19  22
ATOM     22  C   UNL     1      52.167   6.693  16.242  0.00  0.00    +0.000 A 
ATOM     23  C   UNL     1      53.522   6.891  16.012  0.00  0.00    +0.000 A 
ATOM     24  S   UNL     1      54.524   5.785  16.842  0.00  0.00    +0.000 S 
ATOM     25  C   UNL     1      53.179   4.969  17.490  0.00  0.00    +0.000 A 
ATOM     26  N   UNL     1      53.340   3.891  18.305  0.00  0.00    +0.000 NA
ATOM     27  C   UNL     1      52.236   3.350  18.699  0.00  0.00    +0.000 A 
ATOM     28  N   UNL     1      50.984   3.788  18.348  0.00  0.00    +0.000 N 
ATOM     29  C   UNL     1      50.773   4.875  17.537  0.00  0.00    +0.000 A 
ATOM     30  O   UNL     1      49.637   5.246  17.255  0.00  0.00    +0.000 OA
ATOM     31  C   UNL     1      51.984   5.528  17.077  0.00  0.00    +0.000 A 
ATOM     32  H   UNL     1      50.158   3.316  18.685  0.00  0.00    +0.000 HD
ENDBRANCH  19  22
ENDBRANCH  17  18
ENDBRANCH   4  17
TORSDOF 7
ENDMDL
