MODEL 1
REMARK VINA RESULT:    -8.035      0.000      0.000
REMARK INTER + INTRA:         -11.427
REMARK INTER:                 -11.323
REMARK INTRA:                  -0.104
REMARK UNBOUND:                -0.104
REMARK  Name = 
REMARK  9 active torsions:
REMARK  status: ('A' for Active; 'I' for Inactive)
REMARK    1  A    between atoms: C_1  and  O_2
REMARK    2  A    between atoms: O_2  and  C_3
REMARK    3  A    between atoms: C_7  and  C_8
REMARK    4  A    between atoms: C_12  and  C_13
REMARK    5  A    between atoms: C_13  and  O_14
REMARK    6  A    between atoms: O_14  and  C_15
REMARK    7  A    between atoms: C_18  and  C_19
REMARK    8  A    between atoms: C_23  and  O_24
REMARK    9  A    between atoms: O_24  and  C_25
REMARK                            x       y       z     vdW  Elec       q    Type
REMARK                         _______ _______ _______ _____ _____    ______ ____
ROOT
ATOM      1  C   UNL     1      44.558   6.103  10.741  0.00  0.00    +0.000 C 
ENDROOT
BRANCH   1   6
ATOM      2  C   UNL     1      47.766   6.421  12.811  0.00  0.00    +0.000 A 
ATOM      3  C   UNL     1      47.428   5.582  13.887  0.00  0.00    +0.000 A 
ATOM      4  C   UNL     1      46.222   4.880  13.925  0.00  0.00    +0.000 A 
ATOM      5  C   UNL     1      45.302   5.027  12.893  0.00  0.00    +0.000 A 
ATOM      6  C   UNL     1      45.588   5.868  11.814  0.00  0.00    +0.000 A 
ATOM      7  C   UNL     1      46.834   6.520  11.760  0.00  0.00    +0.000 A 
BRANCH   2  12
ATOM      8  C   UNL     1      50.934   8.125  14.070  0.00  0.00    +0.000 A 
ATOM      9  C   UNL     1      51.523   8.531  12.875  0.00  0.00    +0.000 A 
ATOM     10  C   UNL     1      50.854   8.327  11.670  0.00  0.00    +0.000 A 
ATOM     11  C   UNL     1      49.607   7.697  11.654  0.00  0.00    +0.000 A 
ATOM     12  C   UNL     1      49.007   7.231  12.838  0.00  0.00    +0.000 A 
ATOM     13  C   UNL     1      49.686   7.491  14.042  0.00  0.00    +0.000 A 
BRANCH   8  15
ATOM     14  C   UNL     1      52.041   7.110  15.906  0.00  0.00    +0.000 C 
ATOM     15  O   UNL     1      51.474   8.271  15.319  0.00  0.00    +0.000 OA
ENDBRANCH   8  15
ENDBRANCH   2  12
ENDBRANCH   1   6
BRANCH   1  16
ATOM     16  O   UNL     1      44.037   4.851  10.315  0.00  0.00    +0.000 OA
BRANCH  16  17
ATOM     17  C   UNL     1      44.801   4.115   9.450  0.00  0.00    +0.000 A 
ATOM     18  C   UNL     1      45.683   4.686   8.523  0.00  0.00    +0.000 A 
ATOM     19  C   UNL     1      46.493   3.883   7.715  0.00  0.00    +0.000 A 
ATOM     20  C   UNL     1      46.442   2.490   7.818  0.00  0.00    +0.000 A 
ATOM     21  C   UNL     1      45.545   1.915   8.722  0.00  0.00    +0.000 A 
ATOM     22  C   UNL     1      44.709   2.715   9.518  0.00  0.00    +0.000 A 
BRANCH  20  23
ATOM     23  C   UNL     1      47.363   1.700   6.954  0.00  0.00    +0.000 C 
ATOM     24  N   UNL     1      48.500   2.296   6.490  0.00  0.00    +0.000 N 
ATOM     25  O   UNL     1      47.114   0.538   6.650  0.00  0.00    +0.000 OA
ATOM     26  H   UNL     1      48.776   3.248   6.664  0.00  0.00    +0.000 HD
ATOM     27  H   UNL     1      49.092   1.736   5.887  0.00  0.00    +0.000 HD
ENDBRANCH  20  23
BRANCH  22  28
ATOM     28  O   UNL     1      43.901   1.981  10.351  0.00  0.00    +0.000 OA
ATOM     29  C   UNL     1      43.330   2.668  11.459  0.00  0.00    +0.000 C 
ENDBRANCH  22  28
ENDBRANCH  16  17
ENDBRANCH   1  16
TORSDOF 7
ENDMDL
MODEL 2
REMARK VINA RESULT:    -7.741      4.266      8.692
REMARK INTER + INTRA:         -11.012
REMARK INTER:                 -10.068
REMARK INTRA:                  -0.945
REMARK UNBOUND:                -0.104
REMARK  Name = 
REMARK  9 active torsions:
REMARK  status: ('A' for Active; 'I' for Inactive)
REMARK    1  A    between atoms: C_1  and  O_2
REMARK    2  A    between atoms: O_2  and  C_3
REMARK    3  A    between atoms: C_7  and  C_8
REMARK    4  A    between atoms: C_12  and  C_13
REMARK    5  A    between atoms: C_13  and  O_14
REMARK    6  A    between atoms: O_14  and  C_15
REMARK    7  A    between atoms: C_18  and  C_19
REMARK    8  A    between atoms: C_23  and  O_24
REMARK    9  A    between atoms: O_24  and  C_25
REMARK                            x       y       z     vdW  Elec       q    Type
REMARK                         _______ _______ _______ _____ _____    ______ ____
ROOT
ATOM      1  C   UNL     1      48.424   7.237  14.061  0.00  0.00    +0.000 C 
ENDROOT
BRANCH   1   6
ATOM      2  C   UNL     1      45.726   6.394  11.476  0.00  0.00    +0.000 A 
ATOM      3  C   UNL     1      44.930   7.547  11.590  0.00  0.00    +0.000 A 
ATOM      4  C   UNL     1      45.279   8.603  12.436  0.00  0.00    +0.000 A 
ATOM      5  C   UNL     1      46.425   8.515  13.217  0.00  0.00    +0.000 A 
ATOM      6  C   UNL     1      47.234   7.377  13.151  0.00  0.00    +0.000 A 
ATOM      7  C   UNL     1      46.903   6.349  12.248  0.00  0.00    +0.000 A 
BRANCH   2  12
ATOM      8  C   UNL     1      45.386   3.984   8.543  0.00  0.00    +0.000 A 
ATOM      9  C   UNL     1      44.699   2.926   9.134  0.00  0.00    +0.000 A 
ATOM     10  C   UNL     1      44.274   3.029  10.456  0.00  0.00    +0.000 A 
ATOM     11  C   UNL     1      44.554   4.179  11.199  0.00  0.00    +0.000 A 
ATOM     12  C   UNL     1      45.287   5.245  10.648  0.00  0.00    +0.000 A 
ATOM     13  C   UNL     1      45.665   5.130   9.297  0.00  0.00    +0.000 A 
BRANCH   8  15
ATOM     14  C   UNL     1      46.884   3.102   6.930  0.00  0.00    +0.000 C 
ATOM     15  O   UNL     1      45.850   4.019   7.256  0.00  0.00    +0.000 OA
ENDBRANCH   8  15
ENDBRANCH   2  12
ENDBRANCH   1   6
BRANCH   1  16
ATOM     16  O   UNL     1      48.408   5.943  14.652  0.00  0.00    +0.000 OA
BRANCH  16  17
ATOM     17  C   UNL     1      48.450   5.879  16.019  0.00  0.00    +0.000 A 
ATOM     18  C   UNL     1      48.616   7.001  16.840  0.00  0.00    +0.000 A 
ATOM     19  C   UNL     1      48.579   6.884  18.232  0.00  0.00    +0.000 A 
ATOM     20  C   UNL     1      48.371   5.640  18.835  0.00  0.00    +0.000 A 
ATOM     21  C   UNL     1      48.232   4.513  18.022  0.00  0.00    +0.000 A 
ATOM     22  C   UNL     1      48.295   4.619  16.623  0.00  0.00    +0.000 A 
BRANCH  20  23
ATOM     23  C   UNL     1      48.302   5.597  20.323  0.00  0.00    +0.000 C 
ATOM     24  N   UNL     1      48.272   4.382  20.944  0.00  0.00    +0.000 N 
ATOM     25  O   UNL     1      48.266   6.626  20.990  0.00  0.00    +0.000 OA
ATOM     26  H   UNL     1      48.273   3.488  20.482  0.00  0.00    +0.000 HD
ATOM     27  H   UNL     1      48.203   4.391  21.955  0.00  0.00    +0.000 HD
ENDBRANCH  20  23
BRANCH  22  28
ATOM     28  O   UNL     1      48.130   3.414  15.987  0.00  0.00    +0.000 OA
ATOM     29  C   UNL     1      48.708   2.274  16.614  0.00  0.00    +0.000 C 
ENDBRANCH  22  28
ENDBRANCH  16  17
ENDBRANCH   1  16
TORSDOF 7
ENDMDL
MODEL 3
REMARK VINA RESULT:    -7.666      4.198      8.681
REMARK INTER + INTRA:         -10.908
REMARK INTER:                  -9.799
REMARK INTRA:                  -1.108
REMARK UNBOUND:                -0.104
REMARK  Name = 
REMARK  9 active torsions:
REMARK  status: ('A' for Active; 'I' for Inactive)
REMARK    1  A    between atoms: C_1  and  O_2
REMARK    2  A    between atoms: O_2  and  C_3
REMARK    3  A    between atoms: C_7  and  C_8
REMARK    4  A    between atoms: C_12  and  C_13
REMARK    5  A    between atoms: C_13  and  O_14
REMARK    6  A    between atoms: O_14  and  C_15
REMARK    7  A    between atoms: C_18  and  C_19
REMARK    8  A    between atoms: C_23  and  O_24
REMARK    9  A    between atoms: O_24  and  C_25
REMARK                            x       y       z     vdW  Elec       q    Type
REMARK                         _______ _______ _______ _____ _____    ______ ____
ROOT
ATOM      1  C   UNL     1      48.997   7.437  13.957  0.00  0.00    +0.000 C 
ENDROOT
BRANCH   1   6
ATOM      2  C   UNL     1      46.122   6.601  11.567  0.00  0.00    +0.000 A 
ATOM      3  C   UNL     1      45.258   7.669  11.865  0.00  0.00    +0.000 A 
ATOM      4  C   UNL     1      45.611   8.672  12.771  0.00  0.00    +0.000 A 
ATOM      5  C   UNL     1      46.833   8.612  13.429  0.00  0.00    +0.000 A 
ATOM      6  C   UNL     1      47.714   7.556  13.179  0.00  0.00    +0.000 A 
ATOM      7  C   UNL     1      47.371   6.587  12.218  0.00  0.00    +0.000 A 
BRANCH   2  12
ATOM      8  C   UNL     1      44.274   3.532  10.267  0.00  0.00    +0.000 A 
ATOM      9  C   UNL     1      44.628   3.546   8.920  0.00  0.00    +0.000 A 
ATOM     10  C   UNL     1      45.530   4.499   8.452  0.00  0.00    +0.000 A 
ATOM     11  C   UNL     1      46.063   5.453   9.323  0.00  0.00    +0.000 A 
ATOM     12  C   UNL     1      45.689   5.496  10.678  0.00  0.00    +0.000 A 
ATOM     13  C   UNL     1      44.810   4.495  11.130  0.00  0.00    +0.000 A 
BRANCH   8  15
ATOM     14  C   UNL     1      43.383   2.644  12.278  0.00  0.00    +0.000 C 
ATOM     15  O   UNL     1      43.410   2.650  10.858  0.00  0.00    +0.000 OA
ENDBRANCH   8  15
ENDBRANCH   2  12
ENDBRANCH   1   6
BRANCH   1  16
ATOM     16  O   UNL     1      48.971   6.235  14.716  0.00  0.00    +0.000 OA
BRANCH  16  17
ATOM     17  C   UNL     1      48.700   6.344  16.053  0.00  0.00    +0.000 A 
ATOM     18  C   UNL     1      48.709   7.562  16.746  0.00  0.00    +0.000 A 
ATOM     19  C   UNL     1      48.353   7.622  18.096  0.00  0.00    +0.000 A 
ATOM     20  C   UNL     1      47.974   6.466  18.784  0.00  0.00    +0.000 A 
ATOM     21  C   UNL     1      47.989   5.245  18.106  0.00  0.00    +0.000 A 
ATOM     22  C   UNL     1      48.372   5.172  16.756  0.00  0.00    +0.000 A 
BRANCH  20  23
ATOM     23  C   UNL     1      47.569   6.613  20.209  0.00  0.00    +0.000 C 
ATOM     24  N   UNL     1      47.254   5.492  20.921  0.00  0.00    +0.000 N 
ATOM     25  O   UNL     1      47.506   7.715  20.746  0.00  0.00    +0.000 OA
ATOM     26  H   UNL     1      47.252   4.551  20.563  0.00  0.00    +0.000 HD
ATOM     27  H   UNL     1      46.961   5.631  21.882  0.00  0.00    +0.000 HD
ENDBRANCH  20  23
BRANCH  22  28
ATOM     28  O   UNL     1      48.318   3.896  16.253  0.00  0.00    +0.000 OA
ATOM     29  C   UNL     1      47.785   2.891  17.109  0.00  0.00    +0.000 C 
ENDBRANCH  22  28
ENDBRANCH  16  17
ENDBRANCH   1  16
TORSDOF 7
ENDMDL
MODEL 4
REMARK VINA RESULT:    -7.593      1.737      2.070
REMARK INTER + INTRA:         -10.804
REMARK INTER:                 -10.064
REMARK INTRA:                  -0.740
REMARK UNBOUND:                -0.104
REMARK  Name = 
REMARK  9 active torsions:
REMARK  status: ('A' for Active; 'I' for Inactive)
REMARK    1  A    between atoms: C_1  and  O_2
REMARK    2  A    between atoms: O_2  and  C_3
REMARK    3  A    between atoms: C_7  and  C_8
REMARK    4  A    between atoms: C_12  and  C_13
REMARK    5  A    between atoms: C_13  and  O_14
REMARK    6  A    between atoms: O_14  and  C_15
REMARK    7  A    between atoms: C_18  and  C_19
REMARK    8  A    between atoms: C_23  and  O_24
REMARK    9  A    between atoms: O_24  and  C_25
REMARK                            x       y       z     vdW  Elec       q    Type
REMARK                         _______ _______ _______ _____ _____    ______ ____
ROOT
ATOM      1  C   UNL     1      44.620   6.530  10.781  0.00  0.00    +0.000 C 
ENDROOT
BRANCH   1   6
ATOM      2  C   UNL     1      48.108   7.130  12.245  0.00  0.00    +0.000 A 
ATOM      3  C   UNL     1      48.027   6.303  13.379  0.00  0.00    +0.000 A 
ATOM      4  C   UNL     1      46.900   5.522  13.642  0.00  0.00    +0.000 A 
ATOM      5  C   UNL     1      45.806   5.574  12.787  0.00  0.00    +0.000 A 
ATOM      6  C   UNL     1      45.836   6.399  11.659  0.00  0.00    +0.000 A 
ATOM      7  C   UNL     1      47.002   7.133  11.374  0.00  0.00    +0.000 A 
BRANCH   2  12
ATOM      8  C   UNL     1      51.526   8.404  11.138  0.00  0.00    +0.000 A 
ATOM      9  C   UNL     1      51.400   9.771  11.371  0.00  0.00    +0.000 A 
ATOM     10  C   UNL     1      50.242  10.268  11.965  0.00  0.00    +0.000 A 
ATOM     11  C   UNL     1      49.198   9.404  12.304  0.00  0.00    +0.000 A 
ATOM     12  C   UNL     1      49.273   8.025  12.037  0.00  0.00    +0.000 A 
ATOM     13  C   UNL     1      50.472   7.547  11.478  0.00  0.00    +0.000 A 
BRANCH   8  15
ATOM     14  C   UNL     1      52.370   7.055   9.378  0.00  0.00    +0.000 C 
ATOM     15  O   UNL     1      52.608   7.784  10.573  0.00  0.00    +0.000 OA
ENDBRANCH   8  15
ENDBRANCH   2  12
ENDBRANCH   1   6
BRANCH   1  16
ATOM     16  O   UNL     1      44.020   5.250  10.624  0.00  0.00    +0.000 OA
BRANCH  16  17
ATOM     17  C   UNL     1      44.642   4.365   9.785  0.00  0.00    +0.000 A 
ATOM     18  C   UNL     1      45.572   4.750   8.811  0.00  0.00    +0.000 A 
ATOM     19  C   UNL     1      46.230   3.795   8.031  0.00  0.00    +0.000 A 
ATOM     20  C   UNL     1      45.976   2.432   8.211  0.00  0.00    +0.000 A 
ATOM     21  C   UNL     1      45.029   2.044   9.162  0.00  0.00    +0.000 A 
ATOM     22  C   UNL     1      44.344   3.000   9.931  0.00  0.00    +0.000 A 
BRANCH  20  23
ATOM     23  C   UNL     1      46.744   1.470   7.372  0.00  0.00    +0.000 C 
ATOM     24  N   UNL     1      46.710   0.144   7.696  0.00  0.00    +0.000 N 
ATOM     25  O   UNL     1      47.405   1.848   6.410  0.00  0.00    +0.000 OA
ATOM     26  H   UNL     1      46.219  -0.255   8.477  0.00  0.00    +0.000 HD
ATOM     27  H   UNL     1      47.262  -0.478   7.116  0.00  0.00    +0.000 HD
ENDBRANCH  20  23
BRANCH  22  28
ATOM     28  O   UNL     1      43.460   2.438  10.818  0.00  0.00    +0.000 OA
ATOM     29  C   UNL     1      43.782   2.549  12.201  0.00  0.00    +0.000 C 
ENDBRANCH  22  28
ENDBRANCH  16  17
ENDBRANCH   1  16
TORSDOF 7
ENDMDL
MODEL 5
REMARK VINA RESULT:    -7.421      3.450      8.322
REMARK INTER + INTRA:         -10.562
REMARK INTER:                  -9.562
REMARK INTRA:                  -1.000
REMARK UNBOUND:                -0.104
REMARK  Name = 
REMARK  9 active torsions:
REMARK  status: ('A' for Active; 'I' for Inactive)
REMARK    1  A    between atoms: C_1  and  O_2
REMARK    2  A    between atoms: O_2  and  C_3
REMARK    3  A    between atoms: C_7  and  C_8
REMARK    4  A    between atoms: C_12  and  C_13
REMARK    5  A    between atoms: C_13  and  O_14
REMARK    6  A    between atoms: O_14  and  C_15
REMARK    7  A    between atoms: C_18  and  C_19
REMARK    8  A    between atoms: C_23  and  O_24
REMARK    9  A    between atoms: O_24  and  C_25
REMARK                            x       y       z     vdW  Elec       q    Type
REMARK                         _______ _______ _______ _____ _____    ______ ____
ROOT
ATOM      1  C   UNL     1      48.859   7.506  13.219  0.00  0.00    +0.000 C 
ENDROOT
BRANCH   1   6
ATOM      2  C   UNL     1      45.761   6.405  11.252  0.00  0.00    +0.000 A 
ATOM      3  C   UNL     1      44.873   7.425  11.633  0.00  0.00    +0.000 A 
ATOM      4  C   UNL     1      45.271   8.479  12.458  0.00  0.00    +0.000 A 
ATOM      5  C   UNL     1      46.570   8.521  12.951  0.00  0.00    +0.000 A 
ATOM      6  C   UNL     1      47.480   7.515  12.614  0.00  0.00    +0.000 A 
ATOM      7  C   UNL     1      47.082   6.494  11.732  0.00  0.00    +0.000 A 
BRANCH   2  12
ATOM      8  C   UNL     1      45.400   3.887   8.414  0.00  0.00    +0.000 A 
ATOM      9  C   UNL     1      44.636   2.893   9.022  0.00  0.00    +0.000 A 
ATOM     10  C   UNL     1      44.168   3.078  10.321  0.00  0.00    +0.000 A 
ATOM     11  C   UNL     1      44.482   4.244  11.024  0.00  0.00    +0.000 A 
ATOM     12  C   UNL     1      45.292   5.245  10.457  0.00  0.00    +0.000 A 
ATOM     13  C   UNL     1      45.713   5.049   9.129  0.00  0.00    +0.000 A 
BRANCH   8  15
ATOM     14  C   UNL     1      46.878   2.829   6.890  0.00  0.00    +0.000 C 
ATOM     15  O   UNL     1      45.913   3.839   7.146  0.00  0.00    +0.000 OA
ENDBRANCH   8  15
ENDBRANCH   2  12
ENDBRANCH   1   6
BRANCH   1  16
ATOM     16  O   UNL     1      48.758   7.781  14.611  0.00  0.00    +0.000 OA
BRANCH  16  17
ATOM     17  C   UNL     1      48.783   6.711  15.464  0.00  0.00    +0.000 A 
ATOM     18  C   UNL     1      47.807   5.706  15.470  0.00  0.00    +0.000 A 
ATOM     19  C   UNL     1      47.924   4.599  16.315  0.00  0.00    +0.000 A 
ATOM     20  C   UNL     1      49.021   4.469  17.170  0.00  0.00    +0.000 A 
ATOM     21  C   UNL     1      49.984   5.482  17.188  0.00  0.00    +0.000 A 
ATOM     22  C   UNL     1      49.860   6.611  16.361  0.00  0.00    +0.000 A 
BRANCH  20  23
ATOM     23  C   UNL     1      49.099   3.243  18.013  0.00  0.00    +0.000 C 
ATOM     24  N   UNL     1      48.418   3.215  19.196  0.00  0.00    +0.000 N 
ATOM     25  O   UNL     1      49.764   2.272  17.667  0.00  0.00    +0.000 OA
ATOM     26  H   UNL     1      47.869   3.969  19.573  0.00  0.00    +0.000 HD
ATOM     27  H   UNL     1      48.512   2.374  19.753  0.00  0.00    +0.000 HD
ENDBRANCH  20  23
BRANCH  22  28
ATOM     28  O   UNL     1      50.900   7.496  16.505  0.00  0.00    +0.000 OA
ATOM     29  C   UNL     1      52.129   7.149  15.876  0.00  0.00    +0.000 C 
ENDBRANCH  22  28
ENDBRANCH  16  17
ENDBRANCH   1  16
TORSDOF 7
ENDMDL
MODEL 6
REMARK VINA RESULT:    -7.401      3.610      8.437
REMARK INTER + INTRA:         -10.534
REMARK INTER:                  -9.728
REMARK INTRA:                  -0.806
REMARK UNBOUND:                -0.104
REMARK  Name = 
REMARK  9 active torsions:
REMARK  status: ('A' for Active; 'I' for Inactive)
REMARK    1  A    between atoms: C_1  and  O_2
REMARK    2  A    between atoms: O_2  and  C_3
REMARK    3  A    between atoms: C_7  and  C_8
REMARK    4  A    between atoms: C_12  and  C_13
REMARK    5  A    between atoms: C_13  and  O_14
REMARK    6  A    between atoms: O_14  and  C_15
REMARK    7  A    between atoms: C_18  and  C_19
REMARK    8  A    between atoms: C_23  and  O_24
REMARK    9  A    between atoms: O_24  and  C_25
REMARK                            x       y       z     vdW  Elec       q    Type
REMARK                         _______ _______ _______ _____ _____    ______ ____
ROOT
ATOM      1  C   UNL     1      48.663   7.185  13.877  0.00  0.00    +0.000 C 
ENDROOT
BRANCH   1   6
ATOM      2  C   UNL     1      45.814   6.373  11.449  0.00  0.00    +0.000 A 
ATOM      3  C   UNL     1      44.994   7.492  11.675  0.00  0.00    +0.000 A 
ATOM      4  C   UNL     1      45.370   8.518  12.543  0.00  0.00    +0.000 A 
ATOM      5  C   UNL     1      46.571   8.433  13.238  0.00  0.00    +0.000 A 
ATOM      6  C   UNL     1      47.407   7.327  13.060  0.00  0.00    +0.000 A 
ATOM      7  C   UNL     1      47.044   6.331  12.134  0.00  0.00    +0.000 A 
BRANCH   2  12
ATOM      8  C   UNL     1      45.454   4.004   8.485  0.00  0.00    +0.000 A 
ATOM      9  C   UNL     1      44.713   2.968   9.048  0.00  0.00    +0.000 A 
ATOM     10  C   UNL     1      44.259   3.076  10.360  0.00  0.00    +0.000 A 
ATOM     11  C   UNL     1      44.564   4.207  11.121  0.00  0.00    +0.000 A 
ATOM     12  C   UNL     1      45.352   5.249  10.599  0.00  0.00    +0.000 A 
ATOM     13  C   UNL     1      45.759   5.131   9.257  0.00  0.00    +0.000 A 
BRANCH   8  15
ATOM     14  C   UNL     1      46.961   3.082   6.902  0.00  0.00    +0.000 C 
ATOM     15  O   UNL     1      45.952   4.032   7.210  0.00  0.00    +0.000 OA
ENDBRANCH   8  15
ENDBRANCH   2  12
ENDBRANCH   1   6
BRANCH   1  16
ATOM     16  O   UNL     1      48.311   7.005  15.244  0.00  0.00    +0.000 OA
BRANCH  16  17
ATOM     17  C   UNL     1      49.175   6.284  16.023  0.00  0.00    +0.000 A 
ATOM     18  C   UNL     1      50.516   6.636  16.217  0.00  0.00    +0.000 A 
ATOM     19  C   UNL     1      51.333   5.903  17.083  0.00  0.00    +0.000 A 
ATOM     20  C   UNL     1      50.824   4.803  17.778  0.00  0.00    +0.000 A 
ATOM     21  C   UNL     1      49.494   4.430  17.568  0.00  0.00    +0.000 A 
ATOM     22  C   UNL     1      48.675   5.146  16.680  0.00  0.00    +0.000 A 
BRANCH  20  23
ATOM     23  C   UNL     1      51.741   4.094  18.714  0.00  0.00    +0.000 C 
ATOM     24  N   UNL     1      52.067   2.793  18.455  0.00  0.00    +0.000 N 
ATOM     25  O   UNL     1      52.197   4.652  19.707  0.00  0.00    +0.000 OA
ATOM     26  H   UNL     1      51.724   2.247  17.683  0.00  0.00    +0.000 HD
ATOM     27  H   UNL     1      52.675   2.337  19.124  0.00  0.00    +0.000 HD
ENDBRANCH  20  23
BRANCH  22  28
ATOM     28  O   UNL     1      47.399   4.645  16.606  0.00  0.00    +0.000 OA
ATOM     29  C   UNL     1      47.147   3.428  17.301  0.00  0.00    +0.000 C 
ENDBRANCH  22  28
ENDBRANCH  16  17
ENDBRANCH   1  16
TORSDOF 7
ENDMDL
MODEL 7
REMARK VINA RESULT:    -7.340      1.975      3.203
REMARK INTER + INTRA:         -10.448
REMARK INTER:                  -9.902
REMARK INTRA:                  -0.546
REMARK UNBOUND:                -0.104
REMARK  Name = 
REMARK  9 active torsions:
REMARK  status: ('A' for Active; 'I' for Inactive)
REMARK    1  A    between atoms: C_1  and  O_2
REMARK    2  A    between atoms: O_2  and  C_3
REMARK    3  A    between atoms: C_7  and  C_8
REMARK    4  A    between atoms: C_12  and  C_13
REMARK    5  A    between atoms: C_13  and  O_14
REMARK    6  A    between atoms: O_14  and  C_15
REMARK    7  A    between atoms: C_18  and  C_19
REMARK    8  A    between atoms: C_23  and  O_24
REMARK    9  A    between atoms: O_24  and  C_25
REMARK                            x       y       z     vdW  Elec       q    Type
REMARK                         _______ _______ _______ _____ _____    ______ ____
ROOT
ATOM      1  C   UNL     1      44.801   6.890  11.345  0.00  0.00    +0.000 C 
ENDROOT
BRANCH   1   6
ATOM      2  C   UNL     1      47.572   6.166  13.889  0.00  0.00    +0.000 A 
ATOM      3  C   UNL     1      48.664   6.728  13.205  0.00  0.00    +0.000 A 
ATOM      4  C   UNL     1      48.510   7.379  11.979  0.00  0.00    +0.000 A 
ATOM      5  C   UNL     1      47.255   7.456  11.388  0.00  0.00    +0.000 A 
ATOM      6  C   UNL     1      46.145   6.891  12.023  0.00  0.00    +0.000 A 
ATOM      7  C   UNL     1      46.306   6.294  13.287  0.00  0.00    +0.000 A 
BRANCH   2  12
ATOM      8  C   UNL     1      48.605   5.269  17.446  0.00  0.00    +0.000 A 
ATOM      9  C   UNL     1      47.929   4.066  17.635  0.00  0.00    +0.000 A 
ATOM     10  C   UNL     1      47.209   3.505  16.583  0.00  0.00    +0.000 A 
ATOM     11  C   UNL     1      47.142   4.155  15.348  0.00  0.00    +0.000 A 
ATOM     12  C   UNL     1      47.773   5.395  15.139  0.00  0.00    +0.000 A 
ATOM     13  C   UNL     1      48.528   5.915  16.207  0.00  0.00    +0.000 A 
BRANCH   8  15
ATOM     14  C   UNL     1      50.480   6.644  17.913  0.00  0.00    +0.000 C 
ATOM     15  O   UNL     1      49.353   5.923  18.387  0.00  0.00    +0.000 OA
ENDBRANCH   8  15
ENDBRANCH   2  12
ENDBRANCH   1   6
BRANCH   1  16
ATOM     16  O   UNL     1      44.315   5.555  11.278  0.00  0.00    +0.000 OA
BRANCH  16  17
ATOM     17  C   UNL     1      44.777   4.772  10.255  0.00  0.00    +0.000 A 
ATOM     18  C   UNL     1      45.698   5.216   9.297  0.00  0.00    +0.000 A 
ATOM     19  C   UNL     1      46.189   4.349   8.317  0.00  0.00    +0.000 A 
ATOM     20  C   UNL     1      45.772   3.015   8.275  0.00  0.00    +0.000 A 
ATOM     21  C   UNL     1      44.833   2.573   9.211  0.00  0.00    +0.000 A 
ATOM     22  C   UNL     1      44.315   3.446  10.182  0.00  0.00    +0.000 A 
BRANCH  20  23
ATOM     23  C   UNL     1      46.368   2.139   7.228  0.00  0.00    +0.000 C 
ATOM     24  N   UNL     1      46.798   0.892   7.582  0.00  0.00    +0.000 N 
ATOM     25  O   UNL     1      46.486   2.519   6.068  0.00  0.00    +0.000 OA
ATOM     26  H   UNL     1      46.766   0.503   8.510  0.00  0.00    +0.000 HD
ATOM     27  H   UNL     1      47.218   0.332   6.849  0.00  0.00    +0.000 HD
ENDBRANCH  20  23
BRANCH  22  28
ATOM     28  O   UNL     1      43.413   2.839  11.020  0.00  0.00    +0.000 OA
ATOM     29  C   UNL     1      43.737   2.822  12.406  0.00  0.00    +0.000 C 
ENDBRANCH  22  28
ENDBRANCH  16  17
ENDBRANCH   1  16
TORSDOF 7
ENDMDL
MODEL 8
REMARK VINA RESULT:    -7.117      1.886      2.522
REMARK INTER + INTRA:         -10.134
REMARK INTER:                  -9.378
REMARK INTRA:                  -0.756
REMARK UNBOUND:                -0.104
REMARK  Name = 
REMARK  9 active torsions:
REMARK  status: ('A' for Active; 'I' for Inactive)
REMARK    1  A    between atoms: C_1  and  O_2
REMARK    2  A    between atoms: O_2  and  C_3
REMARK    3  A    between atoms: C_7  and  C_8
REMARK    4  A    between atoms: C_12  and  C_13
REMARK    5  A    between atoms: C_13  and  O_14
REMARK    6  A    between atoms: O_14  and  C_15
REMARK    7  A    between atoms: C_18  and  C_19
REMARK    8  A    between atoms: C_23  and  O_24
REMARK    9  A    between atoms: O_24  and  C_25
REMARK                            x       y       z     vdW  Elec       q    Type
REMARK                         _______ _______ _______ _____ _____    ______ ____
ROOT
ATOM      1  C   UNL     1      43.554   6.590  11.135  0.00  0.00    +0.000 C 
ENDROOT
BRANCH   1   6
ATOM      2  C   UNL     1      46.477   8.550  12.648  0.00  0.00    +0.000 A 
ATOM      3  C   UNL     1      46.155   9.837  12.184  0.00  0.00    +0.000 A 
ATOM      4  C   UNL     1      44.994  10.087  11.450  0.00  0.00    +0.000 A 
ATOM      5  C   UNL     1      44.137   9.040  11.132  0.00  0.00    +0.000 A 
ATOM      6  C   UNL     1      44.430   7.741  11.554  0.00  0.00    +0.000 A 
ATOM      7  C   UNL     1      45.571   7.515  12.347  0.00  0.00    +0.000 A 
BRANCH   2  12
ATOM      8  C   UNL     1      49.102   6.940  14.894  0.00  0.00    +0.000 A 
ATOM      9  C   UNL     1      50.262   7.586  14.470  0.00  0.00    +0.000 A 
ATOM     10  C   UNL     1      50.180   8.599  13.518  0.00  0.00    +0.000 A 
ATOM     11  C   UNL     1      48.945   8.954  12.970  0.00  0.00    +0.000 A 
ATOM     12  C   UNL     1      47.762   8.290  13.341  0.00  0.00    +0.000 A 
ATOM     13  C   UNL     1      47.870   7.301  14.336  0.00  0.00    +0.000 A 
BRANCH   8  15
ATOM     14  C   UNL     1      47.880   5.119  15.795  0.00  0.00    +0.000 C 
ATOM     15  O   UNL     1      49.038   5.939  15.824  0.00  0.00    +0.000 OA
ENDBRANCH   8  15
ENDBRANCH   2  12
ENDBRANCH   1   6
BRANCH   1  16
ATOM     16  O   UNL     1      44.242   5.369  11.380  0.00  0.00    +0.000 OA
BRANCH  16  17
ATOM     17  C   UNL     1      44.734   4.698  10.294  0.00  0.00    +0.000 A 
ATOM     18  C   UNL     1      45.664   5.249   9.403  0.00  0.00    +0.000 A 
ATOM     19  C   UNL     1      46.187   4.490   8.352  0.00  0.00    +0.000 A 
ATOM     20  C   UNL     1      45.794   3.161   8.170  0.00  0.00    +0.000 A 
ATOM     21  C   UNL     1      44.845   2.615   9.039  0.00  0.00    +0.000 A 
ATOM     22  C   UNL     1      44.296   3.380  10.081  0.00  0.00    +0.000 A 
BRANCH  20  23
ATOM     23  C   UNL     1      46.423   2.402   7.053  0.00  0.00    +0.000 C 
ATOM     24  N   UNL     1      47.017   1.204   7.327  0.00  0.00    +0.000 N 
ATOM     25  O   UNL     1      46.421   2.836   5.906  0.00  0.00    +0.000 OA
ATOM     26  H   UNL     1      47.090   0.781   8.237  0.00  0.00    +0.000 HD
ATOM     27  H   UNL     1      47.454   0.726   6.547  0.00  0.00    +0.000 HD
ENDBRANCH  20  23
BRANCH  22  28
ATOM     28  O   UNL     1      43.389   2.679  10.838  0.00  0.00    +0.000 OA
ATOM     29  C   UNL     1      43.655   2.586  12.233  0.00  0.00    +0.000 C 
ENDBRANCH  22  28
ENDBRANCH  16  17
ENDBRANCH   1  16
TORSDOF 7
ENDMDL
MODEL 9
REMARK VINA RESULT:    -6.791      4.351      6.947
REMARK INTER + INTRA:          -9.675
REMARK INTER:                  -8.644
REMARK INTRA:                  -1.030
REMARK UNBOUND:                -0.104
REMARK  Name = 
REMARK  9 active torsions:
REMARK  status: ('A' for Active; 'I' for Inactive)
REMARK    1  A    between atoms: C_1  and  O_2
REMARK    2  A    between atoms: O_2  and  C_3
REMARK    3  A    between atoms: C_7  and  C_8
REMARK    4  A    between atoms: C_12  and  C_13
REMARK    5  A    between atoms: C_13  and  O_14
REMARK    6  A    between atoms: O_14  and  C_15
REMARK    7  A    between atoms: C_18  and  C_19
REMARK    8  A    between atoms: C_23  and  O_24
REMARK    9  A    between atoms: O_24  and  C_25
REMARK                            x       y       z     vdW  Elec       q    Type
REMARK                         _______ _______ _______ _____ _____    ______ ____
ROOT
ATOM      1  C   UNL     1      47.022   3.767  15.988  0.00  0.00    +0.000 C 
ENDROOT
BRANCH   1   6
ATOM      2  C   UNL     1      50.410   3.581  17.764  0.00  0.00    +0.000 A 
ATOM      3  C   UNL     1      50.329   4.753  18.537  0.00  0.00    +0.000 A 
ATOM      4  C   UNL     1      49.189   5.559  18.535  0.00  0.00    +0.000 A 
ATOM      5  C   UNL     1      48.106   5.227  17.730  0.00  0.00    +0.000 A 
ATOM      6  C   UNL     1      48.153   4.082  16.930  0.00  0.00    +0.000 A 
ATOM      7  C   UNL     1      49.283   3.246  16.989  0.00  0.00    +0.000 A 
BRANCH   2  12
ATOM      8  C   UNL     1      54.086   2.624  18.081  0.00  0.00    +0.000 A 
ATOM      9  C   UNL     1      54.031   1.247  17.876  0.00  0.00    +0.000 A 
ATOM     10  C   UNL     1      52.819   0.643  17.552  0.00  0.00    +0.000 A 
ATOM     11  C   UNL     1      51.654   1.409  17.456  0.00  0.00    +0.000 A 
ATOM     12  C   UNL     1      51.665   2.793  17.705  0.00  0.00    +0.000 A 
ATOM     13  C   UNL     1      52.912   3.381  17.987  0.00  0.00    +0.000 A 
BRANCH   8  15
ATOM     14  C   UNL     1      55.469   4.489  17.599  0.00  0.00    +0.000 C 
ATOM     15  O   UNL     1      55.207   3.343  18.394  0.00  0.00    +0.000 OA
ENDBRANCH   8  15
ENDBRANCH   2  12
ENDBRANCH   1   6
BRANCH   1  16
ATOM     16  O   UNL     1      47.469   3.942  14.649  0.00  0.00    +0.000 OA
BRANCH  16  17
ATOM     17  C   UNL     1      46.756   4.802  13.858  0.00  0.00    +0.000 A 
ATOM     18  C   UNL     1      45.392   4.646  13.583  0.00  0.00    +0.000 A 
ATOM     19  C   UNL     1      44.699   5.596  12.827  0.00  0.00    +0.000 A 
ATOM     20  C   UNL     1      45.355   6.726  12.332  0.00  0.00    +0.000 A 
ATOM     21  C   UNL     1      46.722   6.873  12.579  0.00  0.00    +0.000 A 
ATOM     22  C   UNL     1      47.430   5.910  13.316  0.00  0.00    +0.000 A 
BRANCH  20  23
ATOM     23  C   UNL     1      44.544   7.716  11.569  0.00  0.00    +0.000 C 
ATOM     24  N   UNL     1      43.311   7.344  11.116  0.00  0.00    +0.000 N 
ATOM     25  O   UNL     1      44.965   8.844  11.338  0.00  0.00    +0.000 OA
ATOM     26  H   UNL     1      42.892   6.437  11.234  0.00  0.00    +0.000 HD
ATOM     27  H   UNL     1      42.797   8.035  10.582  0.00  0.00    +0.000 HD
ENDBRANCH  20  23
BRANCH  22  28
ATOM     28  O   UNL     1      48.759   6.222  13.468  0.00  0.00    +0.000 OA
ATOM     29  C   UNL     1      49.105   7.017  14.597  0.00  0.00    +0.000 C 
ENDBRANCH  22  28
ENDBRANCH  16  17
ENDBRANCH   1  16
TORSDOF 7
ENDMDL
