MODEL 1
REMARK VINA RESULT:    -7.625      0.000      0.000
REMARK INTER + INTRA:         -10.148
REMARK INTER:                  -9.630
REMARK INTRA:                  -0.517
REMARK UNBOUND:                -0.517
REMARK  Name = 
REMARK  5 active torsions:
REMARK  status: ('A' for Active; 'I' for Inactive)
REMARK    1  A    between atoms: N_1  and  C_2
REMARK    2  A    between atoms: C_2  and  C_3
REMARK    3  A    between atoms: C_3  and  C_4
REMARK    4  A    between atoms: C_7  and  C_8
REMARK    5  A    between atoms: C_8  and  N_9
REMARK                            x       y       z     vdW  Elec       q    Type
REMARK                         _______ _______ _______ _____ _____    ______ ____
ROOT
ATOM      1  C   UNL     1      46.150   2.230   7.804  0.00  0.00    +0.000 A 
ATOM      2  C   UNL     1      45.336   1.701   8.806  0.00  0.00    +0.000 A 
ATOM      3  C   UNL     1      44.552   2.551   9.584  0.00  0.00    +0.000 A 
ATOM      4  C   UNL     1      44.602   3.924   9.354  0.00  0.00    +0.000 A 
ATOM      5  N   UNL     1      45.370   4.460   8.371  0.00  0.00    +0.000 NA
ATOM      6  C   UNL     1      46.105   3.608   7.618  0.00  0.00    +0.000 A 
ENDROOT
BRANCH   1   7
ATOM      7  C   UNL     1      47.031   1.348   6.959  0.00  0.00    +0.000 C 
BRANCH   7   8
ATOM      8  C   UNL     1      48.326   2.048   6.523  0.00  0.00    +0.000 C 
BRANCH   8   9
ATOM      9  N   UNL     1      48.366   2.228   5.074  0.00  0.00    +0.000 NA
ATOM     10  H   UNL     1      47.414   2.225   4.707  0.00  0.00    +0.000 HD
ATOM     11  H   UNL     1      48.839   1.436   4.638  0.00  0.00    +0.000 HD
ENDBRANCH   8   9
ENDBRANCH   7   8
ENDBRANCH   1   7
BRANCH   4  12
ATOM     12  C   UNL     1      43.870   4.879  10.261  0.00  0.00    +0.000 C 
BRANCH  12  13
ATOM     13  N   UNL     1      44.473   4.998  11.584  0.00  0.00    +0.000 N 
ATOM     14  C   UNL     1      44.064   4.281  12.685  0.00  0.00    +0.000 A 
ATOM     15  C   UNL     1      44.995   4.461  13.682  0.00  0.00    +0.000 A 
ATOM     16  C   UNL     1      46.011   5.315  13.177  0.00  0.00    +0.000 A 
ATOM     17  C   UNL     1      47.216   5.820  13.701  0.00  0.00    +0.000 A 
ATOM     18  F   UNL     1      47.609   5.490  14.941  0.00  0.00    +0.000 F 
ATOM     19  C   UNL     1      48.027   6.655  12.933  0.00  0.00    +0.000 A 
ATOM     20  C   UNL     1      47.639   7.010  11.644  0.00  0.00    +0.000 A 
ATOM     21  C   UNL     1      46.445   6.526  11.093  0.00  0.00    +0.000 A 
ATOM     22  C   UNL     1      45.651   5.665  11.871  0.00  0.00    +0.000 A 
ENDBRANCH  12  13
ENDBRANCH   4  12
TORSDOF 5
ENDMDL
MODEL 2
REMARK VINA RESULT:    -7.449      1.391      1.529
REMARK INTER + INTRA:          -9.926
REMARK INTER:                  -9.505
REMARK INTRA:                  -0.421
REMARK UNBOUND:                -0.517
REMARK  Name = 
REMARK  5 active torsions:
REMARK  status: ('A' for Active; 'I' for Inactive)
REMARK    1  A    between atoms: N_1  and  C_2
REMARK    2  A    between atoms: C_2  and  C_3
REMARK    3  A    between atoms: C_3  and  C_4
REMARK    4  A    between atoms: C_7  and  C_8
REMARK    5  A    between atoms: C_8  and  N_9
REMARK                            x       y       z     vdW  Elec       q    Type
REMARK                         _______ _______ _______ _____ _____    ______ ____
ROOT
ATOM      1  C   UNL     1      46.142   2.382   7.891  0.00  0.00    +0.000 A 
ATOM      2  C   UNL     1      45.268   1.760   8.783  0.00  0.00    +0.000 A 
ATOM      3  C   UNL     1      44.462   2.534   9.617  0.00  0.00    +0.000 A 
ATOM      4  C   UNL     1      44.552   3.924   9.553  0.00  0.00    +0.000 A 
ATOM      5  N   UNL     1      45.380   4.549   8.677  0.00  0.00    +0.000 NA
ATOM      6  C   UNL     1      46.135   3.773   7.866  0.00  0.00    +0.000 A 
ENDROOT
BRANCH   1   7
ATOM      7  C   UNL     1      47.047   1.581   6.992  0.00  0.00    +0.000 C 
BRANCH   7   8
ATOM      8  C   UNL     1      48.257   2.388   6.498  0.00  0.00    +0.000 C 
BRANCH   8   9
ATOM      9  N   UNL     1      48.267   2.486   5.041  0.00  0.00    +0.000 NA
ATOM     10  H   UNL     1      47.522   3.115   4.740  0.00  0.00    +0.000 HD
ATOM     11  H   UNL     1      48.051   1.578   4.630  0.00  0.00    +0.000 HD
ENDBRANCH   8   9
ENDBRANCH   7   8
ENDBRANCH   1   7
BRANCH   4  12
ATOM     12  C   UNL     1      43.795   4.785  10.529  0.00  0.00    +0.000 C 
BRANCH  12  13
ATOM     13  N   UNL     1      44.619   5.281  11.625  0.00  0.00    +0.000 N 
ATOM     14  C   UNL     1      45.379   4.477  12.443  0.00  0.00    +0.000 A 
ATOM     15  C   UNL     1      46.202   5.285  13.192  0.00  0.00    +0.000 A 
ATOM     16  C   UNL     1      45.941   6.631  12.823  0.00  0.00    +0.000 A 
ATOM     17  C   UNL     1      46.479   7.874  13.205  0.00  0.00    +0.000 A 
ATOM     18  F   UNL     1      47.470   7.937  14.107  0.00  0.00    +0.000 F 
ATOM     19  C   UNL     1      46.003   9.056  12.638  0.00  0.00    +0.000 A 
ATOM     20  C   UNL     1      44.976   9.014  11.700  0.00  0.00    +0.000 A 
ATOM     21  C   UNL     1      44.417   7.794  11.298  0.00  0.00    +0.000 A 
ATOM     22  C   UNL     1      44.925   6.610  11.860  0.00  0.00    +0.000 A 
ENDBRANCH  12  13
ENDBRANCH   4  12
TORSDOF 5
ENDMDL
MODEL 3
REMARK VINA RESULT:    -6.672      1.662      2.334
REMARK INTER + INTRA:          -8.944
REMARK INTER:                  -8.568
REMARK INTRA:                  -0.376
REMARK UNBOUND:                -0.517
REMARK  Name = 
REMARK  5 active torsions:
REMARK  status: ('A' for Active; 'I' for Inactive)
REMARK    1  A    between atoms: N_1  and  C_2
REMARK    2  A    between atoms: C_2  and  C_3
REMARK    3  A    between atoms: C_3  and  C_4
REMARK    4  A    between atoms: C_7  and  C_8
REMARK    5  A    between atoms: C_8  and  N_9
REMARK                            x       y       z     vdW  Elec       q    Type
REMARK                         _______ _______ _______ _____ _____    ______ ____
ROOT
ATOM      1  C   UNL     1      45.841   3.124   7.922  0.00  0.00    +0.000 A 
ATOM      2  C   UNL     1      46.235   4.447   8.128  0.00  0.00    +0.000 A 
ATOM      3  C   UNL     1      45.709   5.169   9.198  0.00  0.00    +0.000 A 
ATOM      4  C   UNL     1      44.785   4.557  10.043  0.00  0.00    +0.000 A 
ATOM      5  N   UNL     1      44.404   3.265   9.875  0.00  0.00    +0.000 NA
ATOM      6  C   UNL     1      44.946   2.582   8.840  0.00  0.00    +0.000 A 
ENDROOT
BRANCH   1   7
ATOM      7  C   UNL     1      46.367   2.319   6.763  0.00  0.00    +0.000 C 
BRANCH   7   8
ATOM      8  C   UNL     1      47.895   2.172   6.789  0.00  0.00    +0.000 C 
BRANCH   8   9
ATOM      9  N   UNL     1      48.420   1.885   5.456  0.00  0.00    +0.000 NA
ATOM     10  H   UNL     1      48.838   2.731   5.068  0.00  0.00    +0.000 HD
ATOM     11  H   UNL     1      47.656   1.636   4.828  0.00  0.00    +0.000 HD
ENDBRANCH   8   9
ENDBRANCH   7   8
ENDBRANCH   1   7
BRANCH   4  12
ATOM     12  C   UNL     1      44.100   5.348  11.127  0.00  0.00    +0.000 C 
BRANCH  12  13
ATOM     13  N   UNL     1      44.850   6.526  11.546  0.00  0.00    +0.000 N 
ATOM     14  C   UNL     1      44.433   7.821  11.335  0.00  0.00    +0.000 A 
ATOM     15  C   UNL     1      45.247   8.657  12.063  0.00  0.00    +0.000 A 
ATOM     16  C   UNL     1      46.197   7.851  12.746  0.00  0.00    +0.000 A 
ATOM     17  C   UNL     1      47.241   8.120  13.649  0.00  0.00    +0.000 A 
ATOM     18  F   UNL     1      47.495   9.378  14.039  0.00  0.00    +0.000 F 
ATOM     19  C   UNL     1      48.015   7.081  14.167  0.00  0.00    +0.000 A 
ATOM     20  C   UNL     1      47.768   5.768  13.777  0.00  0.00    +0.000 A 
ATOM     21  C   UNL     1      46.738   5.465  12.879  0.00  0.00    +0.000 A 
ATOM     22  C   UNL     1      45.950   6.521  12.385  0.00  0.00    +0.000 A 
ENDBRANCH  12  13
ENDBRANCH   4  12
TORSDOF 5
ENDMDL
MODEL 4
REMARK VINA RESULT:    -6.648      2.822      6.670
REMARK INTER + INTRA:          -8.914
REMARK INTER:                  -8.467
REMARK INTRA:                  -0.447
REMARK UNBOUND:                -0.517
REMARK  Name = 
REMARK  5 active torsions:
REMARK  status: ('A' for Active; 'I' for Inactive)
REMARK    1  A    between atoms: N_1  and  C_2
REMARK    2  A    between atoms: C_2  and  C_3
REMARK    3  A    between atoms: C_3  and  C_4
REMARK    4  A    between atoms: C_7  and  C_8
REMARK    5  A    between atoms: C_8  and  N_9
REMARK                            x       y       z     vdW  Elec       q    Type
REMARK                         _______ _______ _______ _____ _____    ______ ____
ROOT
ATOM      1  C   UNL     1      46.369   4.633  13.803  0.00  0.00    +0.000 A 
ATOM      2  C   UNL     1      45.717   5.677  13.146  0.00  0.00    +0.000 A 
ATOM      3  C   UNL     1      44.964   5.415  12.003  0.00  0.00    +0.000 A 
ATOM      4  C   UNL     1      44.883   4.108  11.526  0.00  0.00    +0.000 A 
ATOM      5  N   UNL     1      45.490   3.073  12.161  0.00  0.00    +0.000 NA
ATOM      6  C   UNL     1      46.198   3.355  13.280  0.00  0.00    +0.000 A 
ENDROOT
BRANCH   1   7
ATOM      7  C   UNL     1      47.212   4.879  15.026  0.00  0.00    +0.000 C 
BRANCH   7   8
ATOM      8  C   UNL     1      47.532   3.588  15.794  0.00  0.00    +0.000 C 
BRANCH   8   9
ATOM      9  N   UNL     1      46.724   3.482  17.007  0.00  0.00    +0.000 NA
ATOM     10  H   UNL     1      47.171   4.009  17.757  0.00  0.00    +0.000 HD
ATOM     11  H   UNL     1      46.698   2.513  17.322  0.00  0.00    +0.000 HD
ENDBRANCH   8   9
ENDBRANCH   7   8
ENDBRANCH   1   7
BRANCH   4  12
ATOM     12  C   UNL     1      44.188   3.811  10.223  0.00  0.00    +0.000 C 
BRANCH  12  13
ATOM     13  N   UNL     1      45.083   3.833   9.072  0.00  0.00    +0.000 N 
ATOM     14  C   UNL     1      45.653   4.976   8.559  0.00  0.00    +0.000 A 
ATOM     15  C   UNL     1      46.614   4.603   7.648  0.00  0.00    +0.000 A 
ATOM     16  C   UNL     1      46.639   3.184   7.600  0.00  0.00    +0.000 A 
ATOM     17  C   UNL     1      47.414   2.241   6.901  0.00  0.00    +0.000 A 
ATOM     18  F   UNL     1      48.386   2.644   6.068  0.00  0.00    +0.000 F 
ATOM     19  C   UNL     1      47.197   0.875   7.077  0.00  0.00    +0.000 A 
ATOM     20  C   UNL     1      46.195   0.435   7.937  0.00  0.00    +0.000 A 
ATOM     21  C   UNL     1      45.403   1.346   8.647  0.00  0.00    +0.000 A 
ATOM     22  C   UNL     1      45.651   2.720   8.477  0.00  0.00    +0.000 A 
ENDBRANCH  12  13
ENDBRANCH   4  12
TORSDOF 5
ENDMDL
MODEL 5
REMARK VINA RESULT:    -6.343      3.030      5.988
REMARK INTER + INTRA:          -8.529
REMARK INTER:                  -8.014
REMARK INTRA:                  -0.516
REMARK UNBOUND:                -0.517
REMARK  Name = 
REMARK  5 active torsions:
REMARK  status: ('A' for Active; 'I' for Inactive)
REMARK    1  A    between atoms: N_1  and  C_2
REMARK    2  A    between atoms: C_2  and  C_3
REMARK    3  A    between atoms: C_3  and  C_4
REMARK    4  A    between atoms: C_7  and  C_8
REMARK    5  A    between atoms: C_8  and  N_9
REMARK                            x       y       z     vdW  Elec       q    Type
REMARK                         _______ _______ _______ _____ _____    ______ ____
ROOT
ATOM      1  C   UNL     1      48.130   7.440  13.304  0.00  0.00    +0.000 A 
ATOM      2  C   UNL     1      47.377   8.307  12.512  0.00  0.00    +0.000 A 
ATOM      3  C   UNL     1      46.091   7.943  12.115  0.00  0.00    +0.000 A 
ATOM      4  C   UNL     1      45.581   6.707  12.510  0.00  0.00    +0.000 A 
ATOM      5  N   UNL     1      46.288   5.858  13.298  0.00  0.00    +0.000 NA
ATOM      6  C   UNL     1      47.525   6.246  13.685  0.00  0.00    +0.000 A 
ENDROOT
BRANCH   1   7
ATOM      7  C   UNL     1      49.532   7.786  13.733  0.00  0.00    +0.000 C 
BRANCH   7   8
ATOM      8  C   UNL     1      50.383   8.343  12.582  0.00  0.00    +0.000 C 
BRANCH   8   9
ATOM      9  N   UNL     1      50.698   7.302  11.607  0.00  0.00    +0.000 NA
ATOM     10  H   UNL     1      50.952   7.737  10.719  0.00  0.00    +0.000 HD
ATOM     11  H   UNL     1      49.869   6.740  11.418  0.00  0.00    +0.000 HD
ENDBRANCH   8   9
ENDBRANCH   7   8
ENDBRANCH   1   7
BRANCH   4  12
ATOM     12  C   UNL     1      44.251   6.228  11.991  0.00  0.00    +0.000 C 
BRANCH  12  13
ATOM     13  N   UNL     1      44.262   4.830  11.574  0.00  0.00    +0.000 N 
ATOM     14  C   UNL     1      43.573   3.828  12.219  0.00  0.00    +0.000 A 
ATOM     15  C   UNL     1      43.611   2.705  11.427  0.00  0.00    +0.000 A 
ATOM     16  C   UNL     1      44.345   3.025  10.255  0.00  0.00    +0.000 A 
ATOM     17  C   UNL     1      44.684   2.317   9.087  0.00  0.00    +0.000 A 
ATOM     18  F   UNL     1      44.277   1.050   8.917  0.00  0.00    +0.000 F 
ATOM     19  C   UNL     1      45.432   2.928   8.080  0.00  0.00    +0.000 A 
ATOM     20  C   UNL     1      45.865   4.242   8.235  0.00  0.00    +0.000 A 
ATOM     21  C   UNL     1      45.547   4.975   9.385  0.00  0.00    +0.000 A 
ATOM     22  C   UNL     1      44.770   4.353  10.379  0.00  0.00    +0.000 A 
ENDBRANCH  12  13
ENDBRANCH   4  12
TORSDOF 5
ENDMDL
MODEL 6
REMARK VINA RESULT:    -5.960      1.926      2.659
REMARK INTER + INTRA:          -8.045
REMARK INTER:                  -7.578
REMARK INTRA:                  -0.467
REMARK UNBOUND:                -0.517
REMARK  Name = 
REMARK  5 active torsions:
REMARK  status: ('A' for Active; 'I' for Inactive)
REMARK    1  A    between atoms: N_1  and  C_2
REMARK    2  A    between atoms: C_2  and  C_3
REMARK    3  A    between atoms: C_3  and  C_4
REMARK    4  A    between atoms: C_7  and  C_8
REMARK    5  A    between atoms: C_8  and  N_9
REMARK                            x       y       z     vdW  Elec       q    Type
REMARK                         _______ _______ _______ _____ _____    ______ ____
ROOT
ATOM      1  C   UNL     1      45.434   3.585   8.530  0.00  0.00    +0.000 A 
ATOM      2  C   UNL     1      45.843   4.900   8.754  0.00  0.00    +0.000 A 
ATOM      3  C   UNL     1      45.633   5.489  10.000  0.00  0.00    +0.000 A 
ATOM      4  C   UNL     1      45.004   4.754  11.003  0.00  0.00    +0.000 A 
ATOM      5  N   UNL     1      44.616   3.467  10.814  0.00  0.00    +0.000 NA
ATOM      6  C   UNL     1      44.852   2.914   9.601  0.00  0.00    +0.000 A 
ENDROOT
BRANCH   1   7
ATOM      7  C   UNL     1      45.620   2.922   7.191  0.00  0.00    +0.000 C 
BRANCH   7   8
ATOM      8  C   UNL     1      47.098   2.780   6.801  0.00  0.00    +0.000 C 
BRANCH   8   9
ATOM      9  N   UNL     1      47.286   2.979   5.365  0.00  0.00    +0.000 NA
ATOM     10  H   UNL     1      47.214   2.080   4.888  0.00  0.00    +0.000 HD
ATOM     11  H   UNL     1      48.230   3.319   5.183  0.00  0.00    +0.000 HD
ENDBRANCH   8   9
ENDBRANCH   7   8
ENDBRANCH   1   7
BRANCH   4  12
ATOM     12  C   UNL     1      44.644   5.402  12.314  0.00  0.00    +0.000 C 
BRANCH  12  13
ATOM     13  N   UNL     1      45.776   6.044  12.973  0.00  0.00    +0.000 N 
ATOM     14  C   UNL     1      46.755   5.364  13.660  0.00  0.00    +0.000 A 
ATOM     15  C   UNL     1      47.775   6.245  13.934  0.00  0.00    +0.000 A 
ATOM     16  C   UNL     1      47.413   7.509  13.397  0.00  0.00    +0.000 A 
ATOM     17  C   UNL     1      48.048   8.763  13.330  0.00  0.00    +0.000 A 
ATOM     18  F   UNL     1      49.275   8.932  13.846  0.00  0.00    +0.000 F 
ATOM     19  C   UNL     1      47.419   9.842  12.710  0.00  0.00    +0.000 A 
ATOM     20  C   UNL     1      46.146   9.689  12.167  0.00  0.00    +0.000 A 
ATOM     21  C   UNL     1      45.485   8.455  12.218  0.00  0.00    +0.000 A 
ATOM     22  C   UNL     1      46.143   7.370  12.824  0.00  0.00    +0.000 A 
ENDBRANCH  12  13
ENDBRANCH   4  12
TORSDOF 5
ENDMDL
MODEL 7
REMARK VINA RESULT:    -5.880      2.942      6.851
REMARK INTER + INTRA:          -7.944
REMARK INTER:                  -7.712
REMARK INTRA:                  -0.232
REMARK UNBOUND:                -0.517
REMARK  Name = 
REMARK  5 active torsions:
REMARK  status: ('A' for Active; 'I' for Inactive)
REMARK    1  A    between atoms: N_1  and  C_2
REMARK    2  A    between atoms: C_2  and  C_3
REMARK    3  A    between atoms: C_3  and  C_4
REMARK    4  A    between atoms: C_7  and  C_8
REMARK    5  A    between atoms: C_8  and  N_9
REMARK                            x       y       z     vdW  Elec       q    Type
REMARK                         _______ _______ _______ _____ _____    ______ ____
ROOT
ATOM      1  C   UNL     1      45.536   7.366  12.439  0.00  0.00    +0.000 A 
ATOM      2  C   UNL     1      44.370   7.320  11.674  0.00  0.00    +0.000 A 
ATOM      3  C   UNL     1      44.026   6.147  11.003  0.00  0.00    +0.000 A 
ATOM      4  C   UNL     1      44.864   5.038  11.099  0.00  0.00    +0.000 A 
ATOM      5  N   UNL     1      45.992   5.053  11.854  0.00  0.00    +0.000 NA
ATOM      6  C   UNL     1      46.290   6.199  12.511  0.00  0.00    +0.000 A 
ENDROOT
BRANCH   1   7
ATOM      7  C   UNL     1      45.955   8.621  13.158  0.00  0.00    +0.000 C 
BRANCH   7   8
ATOM      8  C   UNL     1      46.214   9.794  12.201  0.00  0.00    +0.000 C 
BRANCH   8   9
ATOM      9  N   UNL     1      45.125  10.766  12.250  0.00  0.00    +0.000 NA
ATOM     10  H   UNL     1      45.479  11.651  12.614  0.00  0.00    +0.000 HD
ATOM     11  H   UNL     1      44.412  10.456  12.909  0.00  0.00    +0.000 HD
ENDBRANCH   8   9
ENDBRANCH   7   8
ENDBRANCH   1   7
BRANCH   4  12
ATOM     12  C   UNL     1      44.592   3.802  10.283  0.00  0.00    +0.000 C 
BRANCH  12  13
ATOM     13  N   UNL     1      45.331   3.763   9.026  0.00  0.00    +0.000 N 
ATOM     14  C   UNL     1      45.837   4.877   8.394  0.00  0.00    +0.000 A 
ATOM     15  C   UNL     1      46.670   4.454   7.384  0.00  0.00    +0.000 A 
ATOM     16  C   UNL     1      46.680   3.034   7.396  0.00  0.00    +0.000 A 
ATOM     17  C   UNL     1      47.353   2.053   6.645  0.00  0.00    +0.000 A 
ATOM     18  F   UNL     1      48.212   2.408   5.677  0.00  0.00    +0.000 F 
ATOM     19  C   UNL     1      47.152   0.698   6.908  0.00  0.00    +0.000 A 
ATOM     20  C   UNL     1      46.267   0.307   7.908  0.00  0.00    +0.000 A 
ATOM     21  C   UNL     1      45.579   1.257   8.673  0.00  0.00    +0.000 A 
ATOM     22  C   UNL     1      45.811   2.620   8.412  0.00  0.00    +0.000 A 
ENDBRANCH  12  13
ENDBRANCH   4  12
TORSDOF 5
ENDMDL
MODEL 8
REMARK VINA RESULT:    -5.857      2.853      6.437
REMARK INTER + INTRA:          -7.915
REMARK INTER:                  -7.534
REMARK INTRA:                  -0.381
REMARK UNBOUND:                -0.517
REMARK  Name = 
REMARK  5 active torsions:
REMARK  status: ('A' for Active; 'I' for Inactive)
REMARK    1  A    between atoms: N_1  and  C_2
REMARK    2  A    between atoms: C_2  and  C_3
REMARK    3  A    between atoms: C_3  and  C_4
REMARK    4  A    between atoms: C_7  and  C_8
REMARK    5  A    between atoms: C_8  and  N_9
REMARK                            x       y       z     vdW  Elec       q    Type
REMARK                         _______ _______ _______ _____ _____    ______ ____
ROOT
ATOM      1  C   UNL     1      46.048   7.080  12.549  0.00  0.00    +0.000 A 
ATOM      2  C   UNL     1      44.736   6.626  12.697  0.00  0.00    +0.000 A 
ATOM      3  C   UNL     1      44.159   5.837  11.704  0.00  0.00    +0.000 A 
ATOM      4  C   UNL     1      44.902   5.521  10.568  0.00  0.00    +0.000 A 
ATOM      5  N   UNL     1      46.186   5.932  10.413  0.00  0.00    +0.000 NA
ATOM      6  C   UNL     1      46.727   6.680  11.403  0.00  0.00    +0.000 A 
ENDROOT
BRANCH   1   7
ATOM      7  C   UNL     1      46.698   7.955  13.588  0.00  0.00    +0.000 C 
BRANCH   7   8
ATOM      8  C   UNL     1      47.779   8.872  12.997  0.00  0.00    +0.000 C 
BRANCH   8   9
ATOM      9  N   UNL     1      47.382  10.276  13.076  0.00  0.00    +0.000 NA
ATOM     10  H   UNL     1      46.972  10.459  13.992  0.00  0.00    +0.000 HD
ATOM     11  H   UNL     1      46.646  10.467  12.396  0.00  0.00    +0.000 HD
ENDBRANCH   8   9
ENDBRANCH   7   8
ENDBRANCH   1   7
BRANCH   4  12
ATOM     12  C   UNL     1      44.266   4.782   9.420  0.00  0.00    +0.000 C 
BRANCH  12  13
ATOM     13  N   UNL     1      44.817   3.447   9.214  0.00  0.00    +0.000 N 
ATOM     14  C   UNL     1      44.264   2.298   9.729  0.00  0.00    +0.000 A 
ATOM     15  C   UNL     1      44.890   1.222   9.142  0.00  0.00    +0.000 A 
ATOM     16  C   UNL     1      45.859   1.726   8.235  0.00  0.00    +0.000 A 
ATOM     17  C   UNL     1      46.765   1.131   7.339  0.00  0.00    +0.000 A 
ATOM     18  F   UNL     1      46.820  -0.204   7.214  0.00  0.00    +0.000 F 
ATOM     19  C   UNL     1      47.607   1.919   6.554  0.00  0.00    +0.000 A 
ATOM     20  C   UNL     1      47.567   3.306   6.667  0.00  0.00    +0.000 A 
ATOM     21  C   UNL     1      46.678   3.931   7.550  0.00  0.00    +0.000 A 
ATOM     22  C   UNL     1      45.818   3.123   8.316  0.00  0.00    +0.000 A 
ENDBRANCH  12  13
ENDBRANCH   4  12
TORSDOF 5
ENDMDL
MODEL 9
REMARK VINA RESULT:    -5.378      4.122      7.907
REMARK INTER + INTRA:          -7.310
REMARK INTER:                  -6.873
REMARK INTRA:                  -0.437
REMARK UNBOUND:                -0.517
REMARK  Name = 
REMARK  5 active torsions:
REMARK  status: ('A' for Active; 'I' for Inactive)
REMARK    1  A    between atoms: N_1  and  C_2
REMARK    2  A    between atoms: C_2  and  C_3
REMARK    3  A    between atoms: C_3  and  C_4
REMARK    4  A    between atoms: C_7  and  C_8
REMARK    5  A    between atoms: C_8  and  N_9
REMARK                            x       y       z     vdW  Elec       q    Type
REMARK                         _______ _______ _______ _____ _____    ______ ____
ROOT
ATOM      1  C   UNL     1      48.759   5.977  17.454  0.00  0.00    +0.000 A 
ATOM      2  C   UNL     1      49.043   7.147  16.749  0.00  0.00    +0.000 A 
ATOM      3  C   UNL     1      48.757   7.223  15.387  0.00  0.00    +0.000 A 
ATOM      4  C   UNL     1      48.198   6.119  14.746  0.00  0.00    +0.000 A 
ATOM      5  N   UNL     1      47.894   4.978  15.416  0.00  0.00    +0.000 NA
ATOM      6  C   UNL     1      48.164   4.940  16.742  0.00  0.00    +0.000 A 
ENDROOT
BRANCH   1   7
ATOM      7  C   UNL     1      49.077   5.847  18.920  0.00  0.00    +0.000 C 
BRANCH   7   8
ATOM      8  C   UNL     1      49.493   4.421  19.312  0.00  0.00    +0.000 C 
BRANCH   8   9
ATOM      9  N   UNL     1      48.551   3.839  20.265  0.00  0.00    +0.000 NA
ATOM     10  H   UNL     1      48.545   2.825  20.156  0.00  0.00    +0.000 HD
ATOM     11  H   UNL     1      47.604   4.151  20.052  0.00  0.00    +0.000 HD
ENDBRANCH   8   9
ENDBRANCH   7   8
ENDBRANCH   1   7
BRANCH   4  12
ATOM     12  C   UNL     1      48.000   6.121  13.253  0.00  0.00    +0.000 C 
BRANCH  12  13
ATOM     13  N   UNL     1      46.625   6.402  12.852  0.00  0.00    +0.000 N 
ATOM     14  C   UNL     1      46.170   7.646  12.480  0.00  0.00    +0.000 A 
ATOM     15  C   UNL     1      44.913   7.498  11.940  0.00  0.00    +0.000 A 
ATOM     16  C   UNL     1      44.585   6.117  11.980  0.00  0.00    +0.000 A 
ATOM     17  C   UNL     1      43.479   5.360  11.552  0.00  0.00    +0.000 A 
ATOM     18  F   UNL     1      42.439   5.957  10.949  0.00  0.00    +0.000 F 
ATOM     19  C   UNL     1      43.454   3.977  11.730  0.00  0.00    +0.000 A 
ATOM     20  C   UNL     1      44.522   3.337  12.352  0.00  0.00    +0.000 A 
ATOM     21  C   UNL     1      45.638   4.060  12.793  0.00  0.00    +0.000 A 
ATOM     22  C   UNL     1      45.658   5.450  12.583  0.00  0.00    +0.000 A 
ENDBRANCH  12  13
ENDBRANCH   4  12
TORSDOF 5
ENDMDL
