MODEL 1
REMARK VINA RESULT:    -8.320      0.000      0.000
REMARK INTER + INTRA:         -11.967
REMARK INTER:                 -11.238
REMARK INTRA:                  -0.730
REMARK UNBOUND:                -0.730
REMARK  Name = 
REMARK  7 active torsions:
REMARK  status: ('A' for Active; 'I' for Inactive)
REMARK    1  A    between atoms: C_1  and  C_2
REMARK    2  A    between atoms: C_2  and  C_3
REMARK    3  A    between atoms: C_7  and  C_8
REMARK    4  A    between atoms: C_8  and  C_9
REMARK    5  A    between atoms: C_9  and  N_10
REMARK    6  A    between atoms: N_10  and  C_11
REMARK    7  A    between atoms: C_14  and  C_15
REMARK                            x       y       z     vdW  Elec       q    Type
REMARK                         _______ _______ _______ _____ _____    ______ ____
ROOT
ATOM      1  C   UNL     1      43.396   5.355  12.345  0.00  0.00    +0.000 C 
ENDROOT
BRANCH   1   6
ATOM      2  C   UNL     1      46.931   6.350  13.429  0.00  0.00    +0.000 A 
ATOM      3  C   UNL     1      47.471   5.076  13.689  0.00  0.00    +0.000 A 
ATOM      4  C   UNL     1      46.731   3.910  13.474  0.00  0.00    +0.000 A 
ATOM      5  C   UNL     1      45.426   3.991  13.000  0.00  0.00    +0.000 A 
ATOM      6  C   UNL     1      44.854   5.236  12.728  0.00  0.00    +0.000 A 
ATOM      7  C   UNL     1      45.615   6.401  12.935  0.00  0.00    +0.000 A 
BRANCH   2   9
ATOM      8  C   UNL     1      48.559   7.320  15.060  0.00  0.00    +0.000 C 
ATOM      9  C   UNL     1      47.748   7.604  13.783  0.00  0.00    +0.000 C 
ATOM     10  C   UNL     1      48.660   8.062  12.626  0.00  0.00    +0.000 C 
ATOM     11  C   UNL     1      47.913   9.198  11.928  0.00  0.00    +0.000 C 
ATOM     12  C   UNL     1      46.642   9.397  12.728  0.00  0.00    +0.000 C 
ATOM     13  N   UNL     1      46.962   8.826  14.027  0.00  0.00    +0.000 NA
ATOM     14  H   UNL     1      46.146   8.655  14.604  0.00  0.00    +0.000 HD
ENDBRANCH   2   9
ENDBRANCH   1   6
BRANCH   1  15
ATOM     15  C   UNL     1      43.111   4.451  11.138  0.00  0.00    +0.000 C 
BRANCH  15  16
ATOM     16  N   UNL     1      43.808   4.912   9.931  0.00  0.00    +0.000 N 
ATOM     17  H   UNL     1      44.316   5.782  10.086  0.00  0.00    +0.000 HD
BRANCH  16  18
ATOM     18  C   UNL     1      44.628   3.951   9.306  0.00  0.00    +0.000 A 
ATOM     19  C   UNL     1      45.543   4.352   8.325  0.00  0.00    +0.000 A 
ATOM     20  C   UNL     1      46.353   3.410   7.687  0.00  0.00    +0.000 A 
ATOM     21  C   UNL     1      46.201   2.070   8.024  0.00  0.00    +0.000 A 
ATOM     22  N   UNL     1      45.287   1.621   8.919  0.00  0.00    +0.000 NA
ATOM     23  C   UNL     1      44.519   2.570   9.511  0.00  0.00    +0.000 A 
BRANCH  21  24
ATOM     24  C   UNL     1      47.079   1.033   7.396  0.00  0.00    +0.000 C 
ATOM     25  N   UNL     1      46.748  -0.264   7.687  0.00  0.00    +0.000 N 
ATOM     26  O   UNL     1      48.037   1.314   6.690  0.00  0.00    +0.000 OA
ATOM     27  H   UNL     1      45.952  -0.454   8.286  0.00  0.00    +0.000 HD
ATOM     28  H   UNL     1      47.307  -1.018   7.315  0.00  0.00    +0.000 HD
ENDBRANCH  21  24
ENDBRANCH  16  18
ENDBRANCH  15  16
ENDBRANCH   1  15
TORSDOF 6
ENDMDL
MODEL 2
REMARK VINA RESULT:    -8.144      2.422      3.643
REMARK INTER + INTRA:         -11.730
REMARK INTER:                 -11.144
REMARK INTRA:                  -0.586
REMARK UNBOUND:                -0.730
REMARK  Name = 
REMARK  7 active torsions:
REMARK  status: ('A' for Active; 'I' for Inactive)
REMARK    1  A    between atoms: C_1  and  C_2
REMARK    2  A    between atoms: C_2  and  C_3
REMARK    3  A    between atoms: C_7  and  C_8
REMARK    4  A    between atoms: C_8  and  C_9
REMARK    5  A    between atoms: C_9  and  N_10
REMARK    6  A    between atoms: N_10  and  C_11
REMARK    7  A    between atoms: C_14  and  C_15
REMARK                            x       y       z     vdW  Elec       q    Type
REMARK                         _______ _______ _______ _____ _____    ______ ____
ROOT
ATOM      1  C   UNL     1      45.336   3.850  12.546  0.00  0.00    +0.000 C 
ENDROOT
BRANCH   1   6
ATOM      2  C   UNL     1      47.687   5.305  15.194  0.00  0.00    +0.000 A 
ATOM      3  C   UNL     1      48.282   6.340  14.447  0.00  0.00    +0.000 A 
ATOM      4  C   UNL     1      47.901   6.600  13.128  0.00  0.00    +0.000 A 
ATOM      5  C   UNL     1      46.919   5.825  12.519  0.00  0.00    +0.000 A 
ATOM      6  C   UNL     1      46.304   4.790  13.228  0.00  0.00    +0.000 A 
ATOM      7  C   UNL     1      46.686   4.549  14.560  0.00  0.00    +0.000 A 
BRANCH   2   9
ATOM      8  C   UNL     1      48.799   6.281  17.211  0.00  0.00    +0.000 C 
ATOM      9  C   UNL     1      48.217   4.991  16.604  0.00  0.00    +0.000 C 
ATOM     10  C   UNL     1      47.137   4.377  17.518  0.00  0.00    +0.000 C 
ATOM     11  C   UNL     1      47.376   2.868  17.494  0.00  0.00    +0.000 C 
ATOM     12  C   UNL     1      48.605   2.668  16.630  0.00  0.00    +0.000 C 
ATOM     13  N   UNL     1      49.268   3.962  16.673  0.00  0.00    +0.000 NA
ATOM     14  H   UNL     1      49.973   4.077  15.954  0.00  0.00    +0.000 HD
ENDBRANCH   2   9
ENDBRANCH   1   6
BRANCH   1  15
ATOM     15  C   UNL     1      44.393   4.656  11.643  0.00  0.00    +0.000 C 
BRANCH  15  16
ATOM     16  N   UNL     1      43.799   3.825  10.589  0.00  0.00    +0.000 N 
ATOM     17  H   UNL     1      42.935   4.222  10.224  0.00  0.00    +0.000 HD
BRANCH  16  18
ATOM     18  C   UNL     1      44.672   3.463   9.544  0.00  0.00    +0.000 A 
ATOM     19  C   UNL     1      45.043   2.124   9.382  0.00  0.00    +0.000 A 
ATOM     20  C   UNL     1      45.919   1.751   8.359  0.00  0.00    +0.000 A 
ATOM     21  C   UNL     1      46.435   2.745   7.536  0.00  0.00    +0.000 A 
ATOM     22  N   UNL     1      46.159   4.063   7.689  0.00  0.00    +0.000 NA
ATOM     23  C   UNL     1      45.308   4.380   8.697  0.00  0.00    +0.000 A 
BRANCH  21  24
ATOM     24  C   UNL     1      47.341   2.385   6.400  0.00  0.00    +0.000 C 
ATOM     25  N   UNL     1      47.287   3.227   5.322  0.00  0.00    +0.000 N 
ATOM     26  O   UNL     1      48.067   1.401   6.417  0.00  0.00    +0.000 OA
ATOM     27  H   UNL     1      46.664   4.027   5.344  0.00  0.00    +0.000 HD
ATOM     28  H   UNL     1      47.856   3.037   4.510  0.00  0.00    +0.000 HD
ENDBRANCH  21  24
ENDBRANCH  16  18
ENDBRANCH  15  16
ENDBRANCH   1  15
TORSDOF 6
ENDMDL
MODEL 3
REMARK VINA RESULT:    -8.093      1.194      2.354
REMARK INTER + INTRA:         -11.661
REMARK INTER:                 -10.827
REMARK INTRA:                  -0.835
REMARK UNBOUND:                -0.730
REMARK  Name = 
REMARK  7 active torsions:
REMARK  status: ('A' for Active; 'I' for Inactive)
REMARK    1  A    between atoms: C_1  and  C_2
REMARK    2  A    between atoms: C_2  and  C_3
REMARK    3  A    between atoms: C_7  and  C_8
REMARK    4  A    between atoms: C_8  and  C_9
REMARK    5  A    between atoms: C_9  and  N_10
REMARK    6  A    between atoms: N_10  and  C_11
REMARK    7  A    between atoms: C_14  and  C_15
REMARK                            x       y       z     vdW  Elec       q    Type
REMARK                         _______ _______ _______ _____ _____    ______ ____
ROOT
ATOM      1  C   UNL     1      45.318   4.868  11.779  0.00  0.00    +0.000 C 
ENDROOT
BRANCH   1   6
ATOM      2  C   UNL     1      47.714   7.725  12.650  0.00  0.00    +0.000 A 
ATOM      3  C   UNL     1      46.830   8.817  12.563  0.00  0.00    +0.000 A 
ATOM      4  C   UNL     1      45.474   8.638  12.277  0.00  0.00    +0.000 A 
ATOM      5  C   UNL     1      44.969   7.360  12.063  0.00  0.00    +0.000 A 
ATOM      6  C   UNL     1      45.814   6.250  12.143  0.00  0.00    +0.000 A 
ATOM      7  C   UNL     1      47.174   6.443  12.446  0.00  0.00    +0.000 A 
BRANCH   2   9
ATOM      8  C   UNL     1      49.907   8.022  11.486  0.00  0.00    +0.000 C 
ATOM      9  C   UNL     1      49.216   7.984  12.861  0.00  0.00    +0.000 C 
ATOM     10  C   UNL     1      49.487   9.272  13.664  0.00  0.00    +0.000 C 
ATOM     11  C   UNL     1      49.741   8.824  15.103  0.00  0.00    +0.000 C 
ATOM     12  C   UNL     1      49.668   7.310  15.073  0.00  0.00    +0.000 C 
ATOM     13  N   UNL     1      49.924   6.983  13.679  0.00  0.00    +0.000 NA
ATOM     14  H   UNL     1      49.671   6.032  13.435  0.00  0.00    +0.000 HD
ENDBRANCH   2   9
ENDBRANCH   1   6
BRANCH   1  15
ATOM     15  C   UNL     1      43.866   4.959  11.293  0.00  0.00    +0.000 C 
BRANCH  15  16
ATOM     16  N   UNL     1      43.771   4.889   9.830  0.00  0.00    +0.000 N 
ATOM     17  H   UNL     1      43.879   5.802   9.391  0.00  0.00    +0.000 HD
BRANCH  16  18
ATOM     18  C   UNL     1      44.605   3.931   9.219  0.00  0.00    +0.000 A 
ATOM     19  C   UNL     1      45.544   4.338   8.265  0.00  0.00    +0.000 A 
ATOM     20  C   UNL     1      46.369   3.399   7.639  0.00  0.00    +0.000 A 
ATOM     21  C   UNL     1      46.206   2.057   7.962  0.00  0.00    +0.000 A 
ATOM     22  N   UNL     1      45.269   1.603   8.830  0.00  0.00    +0.000 NA
ATOM     23  C   UNL     1      44.488   2.549   9.411  0.00  0.00    +0.000 A 
BRANCH  21  24
ATOM     24  C   UNL     1      47.098   1.023   7.349  0.00  0.00    +0.000 C 
ATOM     25  N   UNL     1      46.795  -0.273   7.670  0.00  0.00    +0.000 N 
ATOM     26  O   UNL     1      48.044   1.306   6.627  0.00  0.00    +0.000 OA
ATOM     27  H   UNL     1      46.007  -0.465   8.281  0.00  0.00    +0.000 HD
ATOM     28  H   UNL     1      47.364  -1.024   7.310  0.00  0.00    +0.000 HD
ENDBRANCH  21  24
ENDBRANCH  16  18
ENDBRANCH  15  16
ENDBRANCH   1  15
TORSDOF 6
ENDMDL
MODEL 4
REMARK VINA RESULT:    -7.995      2.141      3.238
REMARK INTER + INTRA:         -11.529
REMARK INTER:                 -10.820
REMARK INTRA:                  -0.709
REMARK UNBOUND:                -0.730
REMARK  Name = 
REMARK  7 active torsions:
REMARK  status: ('A' for Active; 'I' for Inactive)
REMARK    1  A    between atoms: C_1  and  C_2
REMARK    2  A    between atoms: C_2  and  C_3
REMARK    3  A    between atoms: C_7  and  C_8
REMARK    4  A    between atoms: C_8  and  C_9
REMARK    5  A    between atoms: C_9  and  N_10
REMARK    6  A    between atoms: N_10  and  C_11
REMARK    7  A    between atoms: C_14  and  C_15
REMARK                            x       y       z     vdW  Elec       q    Type
REMARK                         _______ _______ _______ _____ _____    ______ ____
ROOT
ATOM      1  C   UNL     1      45.123   4.362  12.282  0.00  0.00    +0.000 C 
ENDROOT
BRANCH   1   6
ATOM      2  C   UNL     1      47.462   4.860  15.272  0.00  0.00    +0.000 A 
ATOM      3  C   UNL     1      48.183   5.986  14.830  0.00  0.00    +0.000 A 
ATOM      4  C   UNL     1      47.892   6.607  13.613  0.00  0.00    +0.000 A 
ATOM      5  C   UNL     1      46.876   6.113  12.802  0.00  0.00    +0.000 A 
ATOM      6  C   UNL     1      46.136   4.998  13.206  0.00  0.00    +0.000 A 
ATOM      7  C   UNL     1      46.429   4.391  14.441  0.00  0.00    +0.000 A 
BRANCH   2   9
ATOM      8  C   UNL     1      48.266   2.695  16.230  0.00  0.00    +0.000 C 
ATOM      9  C   UNL     1      47.890   4.149  16.568  0.00  0.00    +0.000 C 
ATOM     10  C   UNL     1      49.043   4.876  17.288  0.00  0.00    +0.000 C 
ATOM     11  C   UNL     1      48.390   5.702  18.396  0.00  0.00    +0.000 C 
ATOM     12  C   UNL     1      46.911   5.383  18.319  0.00  0.00    +0.000 C 
ATOM     13  N   UNL     1      46.873   4.101  17.632  0.00  0.00    +0.000 NA
ATOM     14  H   UNL     1      45.953   3.860  17.281  0.00  0.00    +0.000 HD
ENDBRANCH   2   9
ENDBRANCH   1   6
BRANCH   1  15
ATOM     15  C   UNL     1      44.549   5.430  11.342  0.00  0.00    +0.000 C 
BRANCH  15  16
ATOM     16  N   UNL     1      43.917   4.837  10.157  0.00  0.00    +0.000 N 
ATOM     17  H   UNL     1      43.543   5.542   9.524  0.00  0.00    +0.000 HD
BRANCH  16  18
ATOM     18  C   UNL     1      44.706   3.899   9.462  0.00  0.00    +0.000 A 
ATOM     19  C   UNL     1      45.640   4.341   8.518  0.00  0.00    +0.000 A 
ATOM     20  C   UNL     1      46.420   3.423   7.810  0.00  0.00    +0.000 A 
ATOM     21  C   UNL     1      46.217   2.067   8.041  0.00  0.00    +0.000 A 
ATOM     22  N   UNL     1      45.283   1.584   8.895  0.00  0.00    +0.000 NA
ATOM     23  C   UNL     1      44.545   2.510   9.558  0.00  0.00    +0.000 A 
BRANCH  21  24
ATOM     24  C   UNL     1      47.061   1.051   7.337  0.00  0.00    +0.000 C 
ATOM     25  N   UNL     1      46.808  -0.252   7.675  0.00  0.00    +0.000 N 
ATOM     26  O   UNL     1      47.930   1.353   6.531  0.00  0.00    +0.000 OA
ATOM     27  H   UNL     1      46.085  -0.460   8.356  0.00  0.00    +0.000 HD
ATOM     28  H   UNL     1      47.351  -0.992   7.255  0.00  0.00    +0.000 HD
ENDBRANCH  21  24
ENDBRANCH  16  18
ENDBRANCH  15  16
ENDBRANCH   1  15
TORSDOF 6
ENDMDL
MODEL 5
REMARK VINA RESULT:    -7.619      1.706      2.275
REMARK INTER + INTRA:         -11.021
REMARK INTER:                 -10.144
REMARK INTRA:                  -0.876
REMARK UNBOUND:                -0.730
REMARK  Name = 
REMARK  7 active torsions:
REMARK  status: ('A' for Active; 'I' for Inactive)
REMARK    1  A    between atoms: C_1  and  C_2
REMARK    2  A    between atoms: C_2  and  C_3
REMARK    3  A    between atoms: C_7  and  C_8
REMARK    4  A    between atoms: C_8  and  C_9
REMARK    5  A    between atoms: C_9  and  N_10
REMARK    6  A    between atoms: N_10  and  C_11
REMARK    7  A    between atoms: C_14  and  C_15
REMARK                            x       y       z     vdW  Elec       q    Type
REMARK                         _______ _______ _______ _____ _____    ______ ____
ROOT
ATOM      1  C   UNL     1      44.861   6.501  11.320  0.00  0.00    +0.000 C 
ENDROOT
BRANCH   1   6
ATOM      2  C   UNL     1      48.378   7.499  12.460  0.00  0.00    +0.000 A 
ATOM      3  C   UNL     1      48.529   6.635  13.563  0.00  0.00    +0.000 A 
ATOM      4  C   UNL     1      47.539   5.712  13.907  0.00  0.00    +0.000 A 
ATOM      5  C   UNL     1      46.367   5.634  13.162  0.00  0.00    +0.000 A 
ATOM      6  C   UNL     1      46.180   6.472  12.060  0.00  0.00    +0.000 A 
ATOM      7  C   UNL     1      47.191   7.387  11.714  0.00  0.00    +0.000 A 
BRANCH   2   9
ATOM      8  C   UNL     1      50.599   7.924  11.392  0.00  0.00    +0.000 C 
ATOM      9  C   UNL     1      49.449   8.569  12.186  0.00  0.00    +0.000 C 
ATOM     10  C   UNL     1      48.880   9.801  11.454  0.00  0.00    +0.000 C 
ATOM     11  C   UNL     1      48.633  10.854  12.533  0.00  0.00    +0.000 C 
ATOM     12  C   UNL     1      49.116  10.228  13.826  0.00  0.00    +0.000 C 
ATOM     13  N   UNL     1      50.040   9.196  13.381  0.00  0.00    +0.000 NA
ATOM     14  H   UNL     1      50.266   8.521  14.103  0.00  0.00    +0.000 HD
ENDBRANCH   2   9
ENDBRANCH   1   6
BRANCH   1  15
ATOM     15  C   UNL     1      44.267   5.087  11.283  0.00  0.00    +0.000 C 
BRANCH  15  16
ATOM     16  N   UNL     1      43.795   4.725   9.941  0.00  0.00    +0.000 N 
ATOM     17  H   UNL     1      43.368   5.513   9.455  0.00  0.00    +0.000 HD
BRANCH  16  18
ATOM     18  C   UNL     1      44.744   4.080   9.123  0.00  0.00    +0.000 A 
ATOM     19  C   UNL     1      44.856   2.686   9.158  0.00  0.00    +0.000 A 
ATOM     20  C   UNL     1      45.801   2.032   8.363  0.00  0.00    +0.000 A 
ATOM     21  C   UNL     1      46.644   2.802   7.571  0.00  0.00    +0.000 A 
ATOM     22  N   UNL     1      46.621   4.157   7.547  0.00  0.00    +0.000 NA
ATOM     23  C   UNL     1      45.691   4.750   8.338  0.00  0.00    +0.000 A 
BRANCH  21  24
ATOM     24  C   UNL     1      47.641   2.141   6.671  0.00  0.00    +0.000 C 
ATOM     25  N   UNL     1      47.981   2.854   5.553  0.00  0.00    +0.000 N 
ATOM     26  O   UNL     1      48.110   1.034   6.900  0.00  0.00    +0.000 OA
ATOM     27  H   UNL     1      47.561   3.764   5.395  0.00  0.00    +0.000 HD
ATOM     28  H   UNL     1      48.633   2.463   4.889  0.00  0.00    +0.000 HD
ENDBRANCH  21  24
ENDBRANCH  16  18
ENDBRANCH  15  16
ENDBRANCH   1  15
TORSDOF 6
ENDMDL
MODEL 6
REMARK VINA RESULT:    -7.414      1.541      2.146
REMARK INTER + INTRA:         -10.745
REMARK INTER:                 -10.452
REMARK INTRA:                  -0.293
REMARK UNBOUND:                -0.730
REMARK  Name = 
REMARK  7 active torsions:
REMARK  status: ('A' for Active; 'I' for Inactive)
REMARK    1  A    between atoms: C_1  and  C_2
REMARK    2  A    between atoms: C_2  and  C_3
REMARK    3  A    between atoms: C_7  and  C_8
REMARK    4  A    between atoms: C_8  and  C_9
REMARK    5  A    between atoms: C_9  and  N_10
REMARK    6  A    between atoms: N_10  and  C_11
REMARK    7  A    between atoms: C_14  and  C_15
REMARK                            x       y       z     vdW  Elec       q    Type
REMARK                         _______ _______ _______ _____ _____    ______ ____
ROOT
ATOM      1  C   UNL     1      43.456   4.047  12.718  0.00  0.00    +0.000 C 
ENDROOT
BRANCH   1   6
ATOM      2  C   UNL     1      46.173   6.733  12.972  0.00  0.00    +0.000 A 
ATOM      3  C   UNL     1      45.674   7.669  12.045  0.00  0.00    +0.000 A 
ATOM      4  C   UNL     1      44.460   7.467  11.384  0.00  0.00    +0.000 A 
ATOM      5  C   UNL     1      43.716   6.317  11.627  0.00  0.00    +0.000 A 
ATOM      6  C   UNL     1      44.176   5.364  12.541  0.00  0.00    +0.000 A 
ATOM      7  C   UNL     1      45.393   5.588  13.211  0.00  0.00    +0.000 A 
BRANCH   2   9
ATOM      8  C   UNL     1      47.848   5.804  14.579  0.00  0.00    +0.000 C 
ATOM      9  C   UNL     1      47.564   6.951  13.592  0.00  0.00    +0.000 C 
ATOM     10  C   UNL     1      48.674   7.067  12.529  0.00  0.00    +0.000 C 
ATOM     11  C   UNL     1      48.928   8.563  12.350  0.00  0.00    +0.000 C 
ATOM     12  C   UNL     1      48.013   9.250  13.344  0.00  0.00    +0.000 C 
ATOM     13  N   UNL     1      47.740   8.214  14.328  0.00  0.00    +0.000 NA
ATOM     14  H   UNL     1      46.951   8.428  14.929  0.00  0.00    +0.000 HD
ENDBRANCH   2   9
ENDBRANCH   1   6
BRANCH   1  15
ATOM     15  C   UNL     1      44.015   3.022  11.722  0.00  0.00    +0.000 C 
BRANCH  15  16
ATOM     16  N   UNL     1      43.597   3.310  10.345  0.00  0.00    +0.000 N 
ATOM     17  H   UNL     1      43.176   4.233  10.254  0.00  0.00    +0.000 HD
BRANCH  16  18
ATOM     18  C   UNL     1      44.584   3.104   9.361  0.00  0.00    +0.000 A 
ATOM     19  C   UNL     1      45.077   1.814   9.132  0.00  0.00    +0.000 A 
ATOM     20  C   UNL     1      46.066   1.595   8.170  0.00  0.00    +0.000 A 
ATOM     21  C   UNL     1      46.569   2.691   7.478  0.00  0.00    +0.000 A 
ATOM     22  N   UNL     1      46.173   3.967   7.705  0.00  0.00    +0.000 NA
ATOM     23  C   UNL     1      45.215   4.133   8.651  0.00  0.00    +0.000 A 
BRANCH  21  24
ATOM     24  C   UNL     1      47.597   2.496   6.407  0.00  0.00    +0.000 C 
ATOM     25  N   UNL     1      47.360   3.173   5.241  0.00  0.00    +0.000 N 
ATOM     26  O   UNL     1      48.572   1.771   6.548  0.00  0.00    +0.000 OA
ATOM     27  H   UNL     1      46.534   3.757   5.162  0.00  0.00    +0.000 HD
ATOM     28  H   UNL     1      48.000   3.075   4.467  0.00  0.00    +0.000 HD
ENDBRANCH  21  24
ENDBRANCH  16  18
ENDBRANCH  15  16
ENDBRANCH   1  15
TORSDOF 6
ENDMDL
MODEL 7
REMARK VINA RESULT:    -7.360      4.680      7.628
REMARK INTER + INTRA:         -10.671
REMARK INTER:                  -9.845
REMARK INTRA:                  -0.826
REMARK UNBOUND:                -0.730
REMARK  Name = 
REMARK  7 active torsions:
REMARK  status: ('A' for Active; 'I' for Inactive)
REMARK    1  A    between atoms: C_1  and  C_2
REMARK    2  A    between atoms: C_2  and  C_3
REMARK    3  A    between atoms: C_7  and  C_8
REMARK    4  A    between atoms: C_8  and  C_9
REMARK    5  A    between atoms: C_9  and  N_10
REMARK    6  A    between atoms: N_10  and  C_11
REMARK    7  A    between atoms: C_14  and  C_15
REMARK                            x       y       z     vdW  Elec       q    Type
REMARK                         _______ _______ _______ _____ _____    ______ ____
ROOT
ATOM      1  C   UNL     1      47.863   5.844  14.480  0.00  0.00    +0.000 C 
ENDROOT
BRANCH   1   6
ATOM      2  C   UNL     1      45.559   5.869  11.421  0.00  0.00    +0.000 A 
ATOM      3  C   UNL     1      45.289   7.248  11.334  0.00  0.00    +0.000 A 
ATOM      4  C   UNL     1      45.874   8.164  12.211  0.00  0.00    +0.000 A 
ATOM      5  C   UNL     1      46.740   7.722  13.206  0.00  0.00    +0.000 A 
ATOM      6  C   UNL     1      47.035   6.362  13.325  0.00  0.00    +0.000 A 
ATOM      7  C   UNL     1      46.451   5.452  12.425  0.00  0.00    +0.000 A 
BRANCH   2   9
ATOM      8  C   UNL     1      45.487   4.894   9.120  0.00  0.00    +0.000 C 
ATOM      9  C   UNL     1      44.808   4.891  10.501  0.00  0.00    +0.000 C 
ATOM     10  C   UNL     1      44.731   3.467  11.089  0.00  0.00    +0.000 C 
ATOM     11  C   UNL     1      43.347   3.351  11.726  0.00  0.00    +0.000 C 
ATOM     12  C   UNL     1      42.657   4.669  11.438  0.00  0.00    +0.000 C 
ATOM     13  N   UNL     1      43.381   5.189  10.288  0.00  0.00    +0.000 NA
ATOM     14  H   UNL     1      43.211   6.174  10.117  0.00  0.00    +0.000 HD
ENDBRANCH   2   9
ENDBRANCH   1   6
BRANCH   1  15
ATOM     15  C   UNL     1      47.079   4.752  15.219  0.00  0.00    +0.000 C 
BRANCH  15  16
ATOM     16  N   UNL     1      47.461   4.665  16.634  0.00  0.00    +0.000 N 
ATOM     17  H   UNL     1      46.679   4.396  17.230  0.00  0.00    +0.000 HD
BRANCH  16  18
ATOM     18  C   UNL     1      48.597   3.877  16.904  0.00  0.00    +0.000 A 
ATOM     19  C   UNL     1      49.743   4.473  17.442  0.00  0.00    +0.000 A 
ATOM     20  C   UNL     1      50.883   3.709  17.703  0.00  0.00    +0.000 A 
ATOM     21  C   UNL     1      50.860   2.357  17.379  0.00  0.00    +0.000 A 
ATOM     22  N   UNL     1      49.801   1.744  16.797  0.00  0.00    +0.000 NA
ATOM     23  C   UNL     1      48.717   2.525  16.559  0.00  0.00    +0.000 A 
BRANCH  21  24
ATOM     24  C   UNL     1      52.043   1.492  17.682  0.00  0.00    +0.000 C 
ATOM     25  N   UNL     1      51.747   0.210  18.060  0.00  0.00    +0.000 N 
ATOM     26  O   UNL     1      53.195   1.898  17.617  0.00  0.00    +0.000 OA
ATOM     27  H   UNL     1      50.777  -0.084  18.111  0.00  0.00    +0.000 HD
ATOM     28  H   UNL     1      52.493  -0.426  18.299  0.00  0.00    +0.000 HD
ENDBRANCH  21  24
ENDBRANCH  16  18
ENDBRANCH  15  16
ENDBRANCH   1  15
TORSDOF 6
ENDMDL
MODEL 8
REMARK VINA RESULT:    -6.817      3.627      5.991
REMARK INTER + INTRA:          -9.938
REMARK INTER:                  -9.135
REMARK INTRA:                  -0.802
REMARK UNBOUND:                -0.730
REMARK  Name = 
REMARK  7 active torsions:
REMARK  status: ('A' for Active; 'I' for Inactive)
REMARK    1  A    between atoms: C_1  and  C_2
REMARK    2  A    between atoms: C_2  and  C_3
REMARK    3  A    between atoms: C_7  and  C_8
REMARK    4  A    between atoms: C_8  and  C_9
REMARK    5  A    between atoms: C_9  and  N_10
REMARK    6  A    between atoms: N_10  and  C_11
REMARK    7  A    between atoms: C_14  and  C_15
REMARK                            x       y       z     vdW  Elec       q    Type
REMARK                         _______ _______ _______ _____ _____    ______ ____
ROOT
ATOM      1  C   UNL     1      49.071   7.744  14.591  0.00  0.00    +0.000 C 
ENDROOT
BRANCH   1   6
ATOM      2  C   UNL     1      50.030   5.199  17.287  0.00  0.00    +0.000 A 
ATOM      3  C   UNL     1      51.413   5.452  17.378  0.00  0.00    +0.000 A 
ATOM      4  C   UNL     1      52.022   6.458  16.623  0.00  0.00    +0.000 A 
ATOM      5  C   UNL     1      51.264   7.231  15.749  0.00  0.00    +0.000 A 
ATOM      6  C   UNL     1      49.889   7.011  15.632  0.00  0.00    +0.000 A 
ATOM      7  C   UNL     1      49.286   6.006  16.409  0.00  0.00    +0.000 A 
BRANCH   2   9
ATOM      8  C   UNL     1      48.962   4.508  19.440  0.00  0.00    +0.000 C 
ATOM      9  C   UNL     1      49.427   4.012  18.059  0.00  0.00    +0.000 C 
ATOM     10  C   UNL     1      48.279   3.329  17.289  0.00  0.00    +0.000 C 
ATOM     11  C   UNL     1      48.895   2.101  16.620  0.00  0.00    +0.000 C 
ATOM     12  C   UNL     1      50.343   2.082  17.066  0.00  0.00    +0.000 C 
ATOM     13  N   UNL     1      50.335   2.875  18.285  0.00  0.00    +0.000 NA
ATOM     14  H   UNL     1      51.260   3.168  18.581  0.00  0.00    +0.000 HD
ENDBRANCH   2   9
ENDBRANCH   1   6
BRANCH   1  15
ATOM     15  C   UNL     1      48.388   6.725  13.670  0.00  0.00    +0.000 C 
BRANCH  15  16
ATOM     16  N   UNL     1      46.933   6.919  13.620  0.00  0.00    +0.000 N 
ATOM     17  H   UNL     1      46.677   7.831  13.244  0.00  0.00    +0.000 HD
BRANCH  16  18
ATOM     18  C   UNL     1      46.210   5.888  12.988  0.00  0.00    +0.000 A 
ATOM     19  C   UNL     1      45.633   6.114  11.734  0.00  0.00    +0.000 A 
ATOM     20  C   UNL     1      44.901   5.107  11.100  0.00  0.00    +0.000 A 
ATOM     21  C   UNL     1      44.733   3.896  11.762  0.00  0.00    +0.000 A 
ATOM     22  N   UNL     1      45.215   3.647  13.004  0.00  0.00    +0.000 NA
ATOM     23  C   UNL     1      45.916   4.655  13.583  0.00  0.00    +0.000 A 
BRANCH  21  24
ATOM     24  C   UNL     1      43.993   2.775  11.101  0.00  0.00    +0.000 C 
ATOM     25  N   UNL     1      44.592   2.262   9.981  0.00  0.00    +0.000 N 
ATOM     26  O   UNL     1      42.922   2.353  11.512  0.00  0.00    +0.000 OA
ATOM     27  H   UNL     1      45.476   2.647   9.667  0.00  0.00    +0.000 HD
ATOM     28  H   UNL     1      44.142   1.517   9.470  0.00  0.00    +0.000 HD
ENDBRANCH  21  24
ENDBRANCH  16  18
ENDBRANCH  15  16
ENDBRANCH   1  15
TORSDOF 6
ENDMDL
MODEL 9
REMARK VINA RESULT:    -6.812      3.412      7.241
REMARK INTER + INTRA:          -9.932
REMARK INTER:                  -9.009
REMARK INTRA:                  -0.923
REMARK UNBOUND:                -0.730
REMARK  Name = 
REMARK  7 active torsions:
REMARK  status: ('A' for Active; 'I' for Inactive)
REMARK    1  A    between atoms: C_1  and  C_2
REMARK    2  A    between atoms: C_2  and  C_3
REMARK    3  A    between atoms: C_7  and  C_8
REMARK    4  A    between atoms: C_8  and  C_9
REMARK    5  A    between atoms: C_9  and  N_10
REMARK    6  A    between atoms: N_10  and  C_11
REMARK    7  A    between atoms: C_14  and  C_15
REMARK                            x       y       z     vdW  Elec       q    Type
REMARK                         _______ _______ _______ _____ _____    ______ ____
ROOT
ATOM      1  C   UNL     1      48.935   7.906  11.754  0.00  0.00    +0.000 C 
ENDROOT
BRANCH   1   6
ATOM      2  C   UNL     1      45.409   6.517  11.209  0.00  0.00    +0.000 A 
ATOM      3  C   UNL     1      44.647   7.582  11.727  0.00  0.00    +0.000 A 
ATOM      4  C   UNL     1      45.251   8.750  12.200  0.00  0.00    +0.000 A 
ATOM      5  C   UNL     1      46.636   8.879  12.174  0.00  0.00    +0.000 A 
ATOM      6  C   UNL     1      47.427   7.845  11.666  0.00  0.00    +0.000 A 
ATOM      7  C   UNL     1      46.805   6.681  11.179  0.00  0.00    +0.000 A 
BRANCH   2   9
ATOM      8  C   UNL     1      45.311   4.718   9.475  0.00  0.00    +0.000 C 
ATOM      9  C   UNL     1      44.704   5.212  10.801  0.00  0.00    +0.000 C 
ATOM     10  C   UNL     1      44.785   4.129  11.896  0.00  0.00    +0.000 C 
ATOM     11  C   UNL     1      43.450   4.182  12.638  0.00  0.00    +0.000 C 
ATOM     12  C   UNL     1      42.631   5.237  11.921  0.00  0.00    +0.000 C 
ATOM     13  N   UNL     1      43.248   5.311  10.605  0.00  0.00    +0.000 NA
ATOM     14  H   UNL     1      42.981   6.138  10.082  0.00  0.00    +0.000 HD
ENDBRANCH   2   9
ENDBRANCH   1   6
BRANCH   1  15
ATOM     15  C   UNL     1      49.415   7.016  12.908  0.00  0.00    +0.000 C 
BRANCH  15  16
ATOM     16  N   UNL     1      48.861   7.445  14.199  0.00  0.00    +0.000 N 
ATOM     17  H   UNL     1      48.086   8.097  14.089  0.00  0.00    +0.000 HD
BRANCH  16  18
ATOM     18  C   UNL     1      48.526   6.402  15.085  0.00  0.00    +0.000 A 
ATOM     19  C   UNL     1      47.559   5.461  14.715  0.00  0.00    +0.000 A 
ATOM     20  C   UNL     1      47.205   4.430  15.589  0.00  0.00    +0.000 A 
ATOM     21  C   UNL     1      47.809   4.387  16.840  0.00  0.00    +0.000 A 
ATOM     22  N   UNL     1      48.702   5.309  17.273  0.00  0.00    +0.000 NA
ATOM     23  C   UNL     1      49.014   6.295  16.394  0.00  0.00    +0.000 A 
BRANCH  21  24
ATOM     24  C   UNL     1      47.491   3.274  17.790  0.00  0.00    +0.000 C 
ATOM     25  N   UNL     1      48.329   3.171  18.868  0.00  0.00    +0.000 N 
ATOM     26  O   UNL     1      46.565   2.495  17.614  0.00  0.00    +0.000 OA
ATOM     27  H   UNL     1      49.093   3.832  18.972  0.00  0.00    +0.000 HD
ATOM     28  H   UNL     1      48.190   2.433  19.541  0.00  0.00    +0.000 HD
ENDBRANCH  21  24
ENDBRANCH  16  18
ENDBRANCH  15  16
ENDBRANCH   1  15
TORSDOF 6
ENDMDL
