MODEL 1
REMARK VINA RESULT:    -5.492      0.000      0.000
REMARK INTER + INTRA:          -9.276
REMARK INTER:                  -7.419
REMARK INTRA:                  -1.857
REMARK UNBOUND:                -1.857
REMARK  Name = 
REMARK  7 active torsions:
REMARK  status: ('A' for Active; 'I' for Inactive)
REMARK    1  A    between atoms: C_1  and  N_2
REMARK    2  A    between atoms: N_2  and  C_3
REMARK    3  A    between atoms: C_3  and  C_4
REMARK    4  A    between atoms: C_7  and  C_8
REMARK    5  A    between atoms: C_15  and  C_16
REMARK    6  A    between atoms: C_19  and  O_20
REMARK    7  A    between atoms: O_20  and  C_21
REMARK                            x       y       z     vdW  Elec       q    Type
REMARK                         _______ _______ _______ _____ _____    ______ ____
ROOT
ATOM      1  C   UNL     1      50.164   9.342  13.444  0.00  0.00    +0.000 C 
ATOM      2  C   UNL     1      50.997   8.461  12.482  0.00  0.00    +0.000 C 
ATOM      3  C   UNL     1      50.023   7.822  11.489  0.00  0.00    +0.000 C 
ATOM      4  C   UNL     1      48.625   8.427  11.745  0.00  0.00    +0.000 C 
ATOM      5  C   UNL     1      48.962   9.713  12.541  0.00  0.00    +0.000 C 
ENDROOT
BRANCH   1   6
ATOM      6  C   UNL     1      49.647   8.612  14.708  0.00  0.00    +0.000 A 
ATOM      7  C   UNL     1      48.586   9.148  15.462  0.00  0.00    +0.000 A 
ATOM      8  C   UNL     1      48.172   8.549  16.654  0.00  0.00    +0.000 A 
ATOM      9  C   UNL     1      48.823   7.396  17.059  0.00  0.00    +0.000 A 
ATOM     10  N   UNL     1      49.817   6.804  16.345  0.00  0.00    +0.000 NA
ATOM     11  C   UNL     1      50.191   7.422  15.197  0.00  0.00    +0.000 A 
BRANCH   9  12
ATOM     12  C   UNL     1      48.471   6.761  18.368  0.00  0.00    +0.000 C 
ATOM     13  N   UNL     1      47.146   6.454  18.527  0.00  0.00    +0.000 N 
ATOM     14  O   UNL     1      49.303   6.508  19.229  0.00  0.00    +0.000 OA
ATOM     15  H   UNL     1      46.501   6.656  17.772  0.00  0.00    +0.000 HD
ATOM     16  H   UNL     1      46.838   5.976  19.360  0.00  0.00    +0.000 HD
ENDBRANCH   9  12
ENDBRANCH   1   6
BRANCH   4  17
ATOM     17  C   UNL     1      47.596   7.471  12.334  0.00  0.00    +0.000 A 
ATOM     18  C   UNL     1      46.233   7.804  12.391  0.00  0.00    +0.000 A 
ATOM     19  C   UNL     1      45.270   6.891  12.845  0.00  0.00    +0.000 A 
ATOM     20  C   UNL     1      45.642   5.599  13.198  0.00  0.00    +0.000 A 
ATOM     21  C   UNL     1      46.990   5.257  13.175  0.00  0.00    +0.000 A 
ATOM     22  C   UNL     1      47.948   6.169  12.726  0.00  0.00    +0.000 A 
BRANCH  20  23
ATOM     23  O   UNL     1      44.803   4.606  13.601  0.00  0.00    +0.000 OA
BRANCH  23  24
ATOM     24  C   UNL     1      43.697   4.268  12.775  0.00  0.00    +0.000 C 
ATOM     25  F   UNL     1      43.879   4.525  11.463  0.00  0.00    +0.000 F 
ATOM     26  F   UNL     1      43.460   2.941  12.901  0.00  0.00    +0.000 F 
ATOM     27  F   UNL     1      42.601   4.932  13.202  0.00  0.00    +0.000 F 
ENDBRANCH  23  24
ENDBRANCH  20  23
ENDBRANCH   4  17
BRANCH   1  29
ATOM     28  C   UNL     1      52.351  10.601  13.523  0.00  0.00    +0.000 C 
ATOM     29  N   UNL     1      50.956  10.500  13.920  0.00  0.00    +0.000 NA
ATOM     30  H   UNL     1      50.494  11.364  13.649  0.00  0.00    +0.000 HD
ENDBRANCH   1  29
TORSDOF 6
ENDMDL
MODEL 2
REMARK VINA RESULT:    -5.391      3.991      6.328
REMARK INTER + INTRA:          -9.139
REMARK INTER:                  -7.523
REMARK INTRA:                  -1.616
REMARK UNBOUND:                -1.857
REMARK  Name = 
REMARK  7 active torsions:
REMARK  status: ('A' for Active; 'I' for Inactive)
REMARK    1  A    between atoms: C_1  and  N_2
REMARK    2  A    between atoms: N_2  and  C_3
REMARK    3  A    between atoms: C_3  and  C_4
REMARK    4  A    between atoms: C_7  and  C_8
REMARK    5  A    between atoms: C_15  and  C_16
REMARK    6  A    between atoms: C_19  and  O_20
REMARK    7  A    between atoms: O_20  and  C_21
REMARK                            x       y       z     vdW  Elec       q    Type
REMARK                         _______ _______ _______ _____ _____    ______ ____
ROOT
ATOM      1  C   UNL     1      44.523   3.998  11.241  0.00  0.00    +0.000 C 
ATOM      2  C   UNL     1      43.168   4.735  11.377  0.00  0.00    +0.000 C 
ATOM      3  C   UNL     1      43.422   6.214  11.078  0.00  0.00    +0.000 C 
ATOM      4  C   UNL     1      44.887   6.357  10.613  0.00  0.00    +0.000 C 
ATOM      5  C   UNL     1      45.253   4.903  10.218  0.00  0.00    +0.000 C 
ENDROOT
BRANCH   1   6
ATOM      6  C   UNL     1      45.356   3.925  12.544  0.00  0.00    +0.000 A 
ATOM      7  C   UNL     1      45.070   4.778  13.627  0.00  0.00    +0.000 A 
ATOM      8  C   UNL     1      45.870   4.787  14.771  0.00  0.00    +0.000 A 
ATOM      9  C   UNL     1      46.942   3.912  14.817  0.00  0.00    +0.000 A 
ATOM     10  N   UNL     1      47.235   3.029  13.827  0.00  0.00    +0.000 NA
ATOM     11  C   UNL     1      46.434   3.058  12.732  0.00  0.00    +0.000 A 
BRANCH   9  12
ATOM     12  C   UNL     1      47.876   3.938  15.987  0.00  0.00    +0.000 C 
ATOM     13  N   UNL     1      47.756   5.031  16.803  0.00  0.00    +0.000 N 
ATOM     14  O   UNL     1      48.676   3.040  16.218  0.00  0.00    +0.000 OA
ATOM     15  H   UNL     1      47.058   5.733  16.585  0.00  0.00    +0.000 HD
ATOM     16  H   UNL     1      48.315   5.096  17.641  0.00  0.00    +0.000 HD
ENDBRANCH   9  12
ENDBRANCH   1   6
BRANCH   4  17
ATOM     17  C   UNL     1      45.812   7.089  11.578  0.00  0.00    +0.000 A 
ATOM     18  C   UNL     1      47.203   6.896  11.551  0.00  0.00    +0.000 A 
ATOM     19  C   UNL     1      48.065   7.637  12.372  0.00  0.00    +0.000 A 
ATOM     20  C   UNL     1      47.561   8.633  13.199  0.00  0.00    +0.000 A 
ATOM     21  C   UNL     1      46.184   8.821  13.263  0.00  0.00    +0.000 A 
ATOM     22  C   UNL     1      45.326   8.080  12.446  0.00  0.00    +0.000 A 
BRANCH  20  23
ATOM     23  O   UNL     1      48.291   9.454  14.001  0.00  0.00    +0.000 OA
BRANCH  23  24
ATOM     24  C   UNL     1      48.661   8.996  15.294  0.00  0.00    +0.000 C 
ATOM     25  F   UNL     1      48.937   7.676  15.362  0.00  0.00    +0.000 F 
ATOM     26  F   UNL     1      49.772   9.664  15.682  0.00  0.00    +0.000 F 
ATOM     27  F   UNL     1      47.673   9.280  16.169  0.00  0.00    +0.000 F 
ENDBRANCH  23  24
ENDBRANCH  20  23
ENDBRANCH   4  17
BRANCH   1  29
ATOM     28  C   UNL     1      44.598   2.269   9.403  0.00  0.00    +0.000 C 
ATOM     29  N   UNL     1      44.322   2.601  10.791  0.00  0.00    +0.000 NA
ATOM     30  H   UNL     1      44.868   1.972  11.374  0.00  0.00    +0.000 HD
ENDBRANCH   1  29
TORSDOF 6
ENDMDL
MODEL 3
REMARK VINA RESULT:    -5.332      2.227      3.099
REMARK INTER + INTRA:          -9.059
REMARK INTER:                  -6.969
REMARK INTRA:                  -2.090
REMARK UNBOUND:                -1.857
REMARK  Name = 
REMARK  7 active torsions:
REMARK  status: ('A' for Active; 'I' for Inactive)
REMARK    1  A    between atoms: C_1  and  N_2
REMARK    2  A    between atoms: N_2  and  C_3
REMARK    3  A    between atoms: C_3  and  C_4
REMARK    4  A    between atoms: C_7  and  C_8
REMARK    5  A    between atoms: C_15  and  C_16
REMARK    6  A    between atoms: C_19  and  O_20
REMARK    7  A    between atoms: O_20  and  C_21
REMARK                            x       y       z     vdW  Elec       q    Type
REMARK                         _______ _______ _______ _____ _____    ______ ____
ROOT
ATOM      1  C   UNL     1      50.819   8.525  16.983  0.00  0.00    +0.000 C 
ATOM      2  C   UNL     1      52.010   8.369  16.007  0.00  0.00    +0.000 C 
ATOM      3  C   UNL     1      51.510   8.756  14.612  0.00  0.00    +0.000 C 
ATOM      4  C   UNL     1      50.069   9.291  14.760  0.00  0.00    +0.000 C 
ATOM      5  C   UNL     1      49.993   9.625  16.271  0.00  0.00    +0.000 C 
ENDROOT
BRANCH   1   6
ATOM      6  C   UNL     1      49.946   7.258  17.149  0.00  0.00    +0.000 A 
ATOM      7  C   UNL     1      48.675   7.335  17.749  0.00  0.00    +0.000 A 
ATOM      8  C   UNL     1      47.917   6.187  17.988  0.00  0.00    +0.000 A 
ATOM      9  C   UNL     1      48.446   4.970  17.594  0.00  0.00    +0.000 A 
ATOM     10  N   UNL     1      49.642   4.839  16.962  0.00  0.00    +0.000 NA
ATOM     11  C   UNL     1      50.347   5.979  16.754  0.00  0.00    +0.000 A 
BRANCH   9  12
ATOM     12  C   UNL     1      47.709   3.702  17.899  0.00  0.00    +0.000 C 
ATOM     13  N   UNL     1      48.224   2.964  18.931  0.00  0.00    +0.000 N 
ATOM     14  O   UNL     1      46.705   3.355  17.290  0.00  0.00    +0.000 OA
ATOM     15  H   UNL     1      49.040   3.310  19.423  0.00  0.00    +0.000 HD
ATOM     16  H   UNL     1      47.753   2.124  19.231  0.00  0.00    +0.000 HD
ENDBRANCH   9  12
ENDBRANCH   1   6
BRANCH   4  17
ATOM     17  C   UNL     1      48.979   8.408  14.167  0.00  0.00    +0.000 A 
ATOM     18  C   UNL     1      47.640   8.828  14.116  0.00  0.00    +0.000 A 
ATOM     19  C   UNL     1      46.650   8.058  13.488  0.00  0.00    +0.000 A 
ATOM     20  C   UNL     1      46.988   6.875  12.841  0.00  0.00    +0.000 A 
ATOM     21  C   UNL     1      48.303   6.426  12.903  0.00  0.00    +0.000 A 
ATOM     22  C   UNL     1      49.287   7.192  13.533  0.00  0.00    +0.000 A 
BRANCH  20  23
ATOM     23  O   UNL     1      46.137   6.068  12.152  0.00  0.00    +0.000 OA
BRANCH  23  24
ATOM     24  C   UNL     1      45.169   5.319  12.875  0.00  0.00    +0.000 C 
ATOM     25  F   UNL     1      44.048   6.004  13.184  0.00  0.00    +0.000 F 
ATOM     26  F   UNL     1      44.802   4.256  12.123  0.00  0.00    +0.000 F 
ATOM     27  F   UNL     1      45.724   4.855  14.016  0.00  0.00    +0.000 F 
ENDBRANCH  23  24
ENDBRANCH  20  23
ENDBRANCH   4  17
BRANCH   1  29
ATOM     28  C   UNL     1      52.614   8.458  18.757  0.00  0.00    +0.000 C 
ATOM     29  N   UNL     1      51.291   8.893  18.338  0.00  0.00    +0.000 NA
ATOM     30  H   UNL     1      51.246   9.902  18.454  0.00  0.00    +0.000 HD
ENDBRANCH   1  29
TORSDOF 6
ENDMDL
MODEL 4
REMARK VINA RESULT:    -5.328      1.626      2.153
REMARK INTER + INTRA:          -9.054
REMARK INTER:                  -6.655
REMARK INTRA:                  -2.399
REMARK UNBOUND:                -1.857
REMARK  Name = 
REMARK  7 active torsions:
REMARK  status: ('A' for Active; 'I' for Inactive)
REMARK    1  A    between atoms: C_1  and  N_2
REMARK    2  A    between atoms: N_2  and  C_3
REMARK    3  A    between atoms: C_3  and  C_4
REMARK    4  A    between atoms: C_7  and  C_8
REMARK    5  A    between atoms: C_15  and  C_16
REMARK    6  A    between atoms: C_19  and  O_20
REMARK    7  A    between atoms: O_20  and  C_21
REMARK                            x       y       z     vdW  Elec       q    Type
REMARK                         _______ _______ _______ _____ _____    ______ ____
ROOT
ATOM      1  C   UNL     1      50.272  10.357  14.266  0.00  0.00    +0.000 C 
ATOM      2  C   UNL     1      51.196  10.188  13.035  0.00  0.00    +0.000 C 
ATOM      3  C   UNL     1      50.300  10.149  11.794  0.00  0.00    +0.000 C 
ATOM      4  C   UNL     1      48.854  10.444  12.247  0.00  0.00    +0.000 C 
ATOM      5  C   UNL     1      49.069  11.100  13.635  0.00  0.00    +0.000 C 
ENDROOT
BRANCH   1   6
ATOM      6  C   UNL     1      49.781   9.029  14.893  0.00  0.00    +0.000 A 
ATOM      7  C   UNL     1      48.678   9.014  15.769  0.00  0.00    +0.000 A 
ATOM      8  C   UNL     1      48.283   7.840  16.413  0.00  0.00    +0.000 A 
ATOM      9  C   UNL     1      48.995   6.684  16.145  0.00  0.00    +0.000 A 
ATOM     10  N   UNL     1      50.033   6.626  15.269  0.00  0.00    +0.000 NA
ATOM     11  C   UNL     1      50.387   7.791  14.669  0.00  0.00    +0.000 A 
BRANCH   9  12
ATOM     12  C   UNL     1      48.661   5.417  16.869  0.00  0.00    +0.000 C 
ATOM     13  N   UNL     1      47.504   5.453  17.600  0.00  0.00    +0.000 N 
ATOM     14  O   UNL     1      49.354   4.410  16.799  0.00  0.00    +0.000 OA
ATOM     15  H   UNL     1      46.950   6.302  17.602  0.00  0.00    +0.000 HD
ATOM     16  H   UNL     1      47.184   4.622  18.074  0.00  0.00    +0.000 HD
ENDBRANCH   9  12
ENDBRANCH   1   6
BRANCH   4  17
ATOM     17  C   UNL     1      47.886   9.270  12.154  0.00  0.00    +0.000 A 
ATOM     18  C   UNL     1      48.300   8.012  11.687  0.00  0.00    +0.000 A 
ATOM     19  C   UNL     1      47.439   6.907  11.688  0.00  0.00    +0.000 A 
ATOM     20  C   UNL     1      46.157   7.018  12.213  0.00  0.00    +0.000 A 
ATOM     21  C   UNL     1      45.716   8.261  12.655  0.00  0.00    +0.000 A 
ATOM     22  C   UNL     1      46.575   9.363  12.650  0.00  0.00    +0.000 A 
BRANCH  20  23
ATOM     23  O   UNL     1      45.246   6.013  12.321  0.00  0.00    +0.000 OA
BRANCH  23  24
ATOM     24  C   UNL     1      45.515   4.939  13.211  0.00  0.00    +0.000 C 
ATOM     25  F   UNL     1      46.282   5.269  14.271  0.00  0.00    +0.000 F 
ATOM     26  F   UNL     1      44.337   4.474  13.689  0.00  0.00    +0.000 F 
ATOM     27  F   UNL     1      46.116   3.937  12.533  0.00  0.00    +0.000 F 
ENDBRANCH  23  24
ENDBRANCH  20  23
ENDBRANCH   4  17
BRANCH   1  29
ATOM     28  C   UNL     1      52.374  10.861  15.569  0.00  0.00    +0.000 C 
ATOM     29  N   UNL     1      50.959  11.104  15.344  0.00  0.00    +0.000 NA
ATOM     30  H   UNL     1      50.836  12.103  15.199  0.00  0.00    +0.000 HD
ENDBRANCH   1  29
TORSDOF 6
ENDMDL
MODEL 5
REMARK VINA RESULT:    -5.304      3.884      5.700
REMARK INTER + INTRA:          -9.022
REMARK INTER:                  -7.834
REMARK INTRA:                  -1.188
REMARK UNBOUND:                -1.857
REMARK  Name = 
REMARK  7 active torsions:
REMARK  status: ('A' for Active; 'I' for Inactive)
REMARK    1  A    between atoms: C_1  and  N_2
REMARK    2  A    between atoms: N_2  and  C_3
REMARK    3  A    between atoms: C_3  and  C_4
REMARK    4  A    between atoms: C_7  and  C_8
REMARK    5  A    between atoms: C_15  and  C_16
REMARK    6  A    between atoms: C_19  and  O_20
REMARK    7  A    between atoms: O_20  and  C_21
REMARK                            x       y       z     vdW  Elec       q    Type
REMARK                         _______ _______ _______ _____ _____    ______ ____
ROOT
ATOM      1  C   UNL     1      48.671   7.634  13.037  0.00  0.00    +0.000 C 
ATOM      2  C   UNL     1      49.638   8.112  11.926  0.00  0.00    +0.000 C 
ATOM      3  C   UNL     1      49.262   9.556  11.585  0.00  0.00    +0.000 C 
ATOM      4  C   UNL     1      48.175  10.009  12.584  0.00  0.00    +0.000 C 
ATOM      5  C   UNL     1      48.326   8.976  13.729  0.00  0.00    +0.000 C 
ENDROOT
BRANCH   1   6
ATOM      6  C   UNL     1      47.368   6.976  12.522  0.00  0.00    +0.000 A 
ATOM      7  C   UNL     1      47.177   6.740  11.148  0.00  0.00    +0.000 A 
ATOM      8  C   UNL     1      45.970   6.232  10.662  0.00  0.00    +0.000 A 
ATOM      9  C   UNL     1      44.974   5.945  11.579  0.00  0.00    +0.000 A 
ATOM     10  N   UNL     1      45.120   6.100  12.922  0.00  0.00    +0.000 NA
ATOM     11  C   UNL     1      46.306   6.601  13.349  0.00  0.00    +0.000 A 
BRANCH   9  12
ATOM     12  C   UNL     1      43.635   5.474  11.103  0.00  0.00    +0.000 C 
ATOM     13  N   UNL     1      43.654   4.735   9.950  0.00  0.00    +0.000 N 
ATOM     14  O   UNL     1      42.595   5.706  11.708  0.00  0.00    +0.000 OA
ATOM     15  H   UNL     1      44.544   4.545   9.504  0.00  0.00    +0.000 HD
ATOM     16  H   UNL     1      42.798   4.337   9.594  0.00  0.00    +0.000 HD
ENDBRANCH   9  12
ENDBRANCH   1   6
BRANCH   4  17
ATOM     17  C   UNL     1      46.788  10.221  11.991  0.00  0.00    +0.000 A 
ATOM     18  C   UNL     1      45.639   9.694  12.603  0.00  0.00    +0.000 A 
ATOM     19  C   UNL     1      44.354   9.965  12.113  0.00  0.00    +0.000 A 
ATOM     20  C   UNL     1      44.182  10.820  11.031  0.00  0.00    +0.000 A 
ATOM     21  C   UNL     1      45.307  11.330  10.392  0.00  0.00    +0.000 A 
ATOM     22  C   UNL     1      46.588  11.056  10.879  0.00  0.00    +0.000 A 
BRANCH  20  23
ATOM     23  O   UNL     1      42.992  11.204  10.495  0.00  0.00    +0.000 OA
BRANCH  23  24
ATOM     24  C   UNL     1      41.848  10.392  10.717  0.00  0.00    +0.000 C 
ATOM     25  F   UNL     1      40.844  10.586   9.836  0.00  0.00    +0.000 F 
ATOM     26  F   UNL     1      42.221   9.094  10.629  0.00  0.00    +0.000 F 
ATOM     27  F   UNL     1      41.380  10.611  11.965  0.00  0.00    +0.000 F 
ENDBRANCH  23  24
ENDBRANCH  20  23
ENDBRANCH   4  17
BRANCH   1  29
ATOM     28  C   UNL     1      49.515   6.968  15.321  0.00  0.00    +0.000 C 
ATOM     29  N   UNL     1      49.327   6.640  13.917  0.00  0.00    +0.000 NA
ATOM     30  H   UNL     1      48.824   5.758  13.870  0.00  0.00    +0.000 HD
ENDBRANCH   1  29
TORSDOF 6
ENDMDL
MODEL 6
REMARK VINA RESULT:    -5.259      2.970      5.683
REMARK INTER + INTRA:          -8.960
REMARK INTER:                  -7.171
REMARK INTRA:                  -1.790
REMARK UNBOUND:                -1.857
REMARK  Name = 
REMARK  7 active torsions:
REMARK  status: ('A' for Active; 'I' for Inactive)
REMARK    1  A    between atoms: C_1  and  N_2
REMARK    2  A    between atoms: N_2  and  C_3
REMARK    3  A    between atoms: C_3  and  C_4
REMARK    4  A    between atoms: C_7  and  C_8
REMARK    5  A    between atoms: C_15  and  C_16
REMARK    6  A    between atoms: C_19  and  O_20
REMARK    7  A    between atoms: O_20  and  C_21
REMARK                            x       y       z     vdW  Elec       q    Type
REMARK                         _______ _______ _______ _____ _____    ______ ____
ROOT
ATOM      1  C   UNL     1      50.302   6.772  19.729  0.00  0.00    +0.000 C 
ATOM      2  C   UNL     1      49.047   6.963  20.615  0.00  0.00    +0.000 C 
ATOM      3  C   UNL     1      48.303   5.626  20.646  0.00  0.00    +0.000 C 
ATOM      4  C   UNL     1      49.174   4.584  19.912  0.00  0.00    +0.000 C 
ATOM      5  C   UNL     1      50.570   5.258  19.915  0.00  0.00    +0.000 C 
ENDROOT
BRANCH   1   6
ATOM      6  C   UNL     1      50.086   7.071  18.225  0.00  0.00    +0.000 A 
ATOM      7  C   UNL     1      49.054   7.931  17.805  0.00  0.00    +0.000 A 
ATOM      8  C   UNL     1      48.791   8.136  16.450  0.00  0.00    +0.000 A 
ATOM      9  C   UNL     1      49.592   7.484  15.529  0.00  0.00    +0.000 A 
ATOM     10  N   UNL     1      50.636   6.685  15.874  0.00  0.00    +0.000 NA
ATOM     11  C   UNL     1      50.854   6.509  17.202  0.00  0.00    +0.000 A 
BRANCH   9  12
ATOM     12  C   UNL     1      49.301   7.607  14.066  0.00  0.00    +0.000 C 
ATOM     13  N   UNL     1      50.388   7.472  13.243  0.00  0.00    +0.000 N 
ATOM     14  O   UNL     1      48.173   7.792  13.626  0.00  0.00    +0.000 OA
ATOM     15  H   UNL     1      51.296   7.290  13.655  0.00  0.00    +0.000 HD
ATOM     16  H   UNL     1      50.265   7.491  12.242  0.00  0.00    +0.000 HD
ENDBRANCH   9  12
ENDBRANCH   1   6
BRANCH   4  17
ATOM     17  C   UNL     1      48.623   4.090  18.580  0.00  0.00    +0.000 A 
ATOM     18  C   UNL     1      47.493   4.679  17.990  0.00  0.00    +0.000 A 
ATOM     19  C   UNL     1      47.038   4.291  16.721  0.00  0.00    +0.000 A 
ATOM     20  C   UNL     1      47.739   3.344  15.985  0.00  0.00    +0.000 A 
ATOM     21  C   UNL     1      48.845   2.727  16.563  0.00  0.00    +0.000 A 
ATOM     22  C   UNL     1      49.294   3.112  17.828  0.00  0.00    +0.000 A 
BRANCH  20  23
ATOM     23  O   UNL     1      47.436   2.921  14.729  0.00  0.00    +0.000 OA
BRANCH  23  24
ATOM     24  C   UNL     1      46.810   3.829  13.834  0.00  0.00    +0.000 C 
ATOM     25  F   UNL     1      45.798   4.540  14.374  0.00  0.00    +0.000 F 
ATOM     26  F   UNL     1      47.740   4.711  13.400  0.00  0.00    +0.000 F 
ATOM     27  F   UNL     1      46.343   3.152  12.762  0.00  0.00    +0.000 F 
ENDBRANCH  23  24
ENDBRANCH  20  23
ENDBRANCH   4  17
BRANCH   1  29
ATOM     28  C   UNL     1      52.671   7.043  20.559  0.00  0.00    +0.000 C 
ATOM     29  N   UNL     1      51.406   7.651  20.179  0.00  0.00    +0.000 NA
ATOM     30  H   UNL     1      51.600   8.348  19.465  0.00  0.00    +0.000 HD
ENDBRANCH   1  29
TORSDOF 6
ENDMDL
MODEL 7
REMARK VINA RESULT:    -5.243      2.899      4.882
REMARK INTER + INTRA:          -8.939
REMARK INTER:                  -6.636
REMARK INTRA:                  -2.303
REMARK UNBOUND:                -1.857
REMARK  Name = 
REMARK  7 active torsions:
REMARK  status: ('A' for Active; 'I' for Inactive)
REMARK    1  A    between atoms: C_1  and  N_2
REMARK    2  A    between atoms: N_2  and  C_3
REMARK    3  A    between atoms: C_3  and  C_4
REMARK    4  A    between atoms: C_7  and  C_8
REMARK    5  A    between atoms: C_15  and  C_16
REMARK    6  A    between atoms: C_19  and  O_20
REMARK    7  A    between atoms: O_20  and  C_21
REMARK                            x       y       z     vdW  Elec       q    Type
REMARK                         _______ _______ _______ _____ _____    ______ ____
ROOT
ATOM      1  C   UNL     1      49.375   9.320  12.868  0.00  0.00    +0.000 C 
ATOM      2  C   UNL     1      49.135  10.609  13.691  0.00  0.00    +0.000 C 
ATOM      3  C   UNL     1      49.816  10.417  15.048  0.00  0.00    +0.000 C 
ATOM      4  C   UNL     1      50.596   9.085  15.001  0.00  0.00    +0.000 C 
ATOM      5  C   UNL     1      50.709   8.821  13.478  0.00  0.00    +0.000 C 
ENDROOT
BRANCH   1   6
ATOM      6  C   UNL     1      48.293   8.227  13.046  0.00  0.00    +0.000 A 
ATOM      7  C   UNL     1      48.632   6.862  12.973  0.00  0.00    +0.000 A 
ATOM      8  C   UNL     1      47.652   5.870  13.040  0.00  0.00    +0.000 A 
ATOM      9  C   UNL     1      46.337   6.269  13.203  0.00  0.00    +0.000 A 
ATOM     10  N   UNL     1      45.956   7.567  13.334  0.00  0.00    +0.000 NA
ATOM     11  C   UNL     1      46.939   8.499  13.258  0.00  0.00    +0.000 A 
BRANCH   9  12
ATOM     12  C   UNL     1      45.242   5.248  13.201  0.00  0.00    +0.000 C 
ATOM     13  N   UNL     1      43.981   5.749  13.014  0.00  0.00    +0.000 N 
ATOM     14  O   UNL     1      45.451   4.048  13.331  0.00  0.00    +0.000 OA
ATOM     15  H   UNL     1      43.864   6.746  12.881  0.00  0.00    +0.000 HD
ATOM     16  H   UNL     1      43.196   5.119  12.948  0.00  0.00    +0.000 HD
ENDBRANCH   9  12
ENDBRANCH   1   6
BRANCH   4  17
ATOM     17  C   UNL     1      50.041   7.970  15.879  0.00  0.00    +0.000 A 
ATOM     18  C   UNL     1      48.799   8.092  16.523  0.00  0.00    +0.000 A 
ATOM     19  C   UNL     1      48.243   7.033  17.255  0.00  0.00    +0.000 A 
ATOM     20  C   UNL     1      48.889   5.804  17.312  0.00  0.00    +0.000 A 
ATOM     21  C   UNL     1      50.134   5.671  16.705  0.00  0.00    +0.000 A 
ATOM     22  C   UNL     1      50.689   6.728  15.979  0.00  0.00    +0.000 A 
BRANCH  20  23
ATOM     23  O   UNL     1      48.433   4.687  17.940  0.00  0.00    +0.000 OA
BRANCH  23  24
ATOM     24  C   UNL     1      47.885   3.637  17.155  0.00  0.00    +0.000 C 
ATOM     25  F   UNL     1      48.777   2.697  16.777  0.00  0.00    +0.000 F 
ATOM     26  F   UNL     1      46.924   3.019  17.879  0.00  0.00    +0.000 F 
ATOM     27  F   UNL     1      47.308   4.159  16.051  0.00  0.00    +0.000 F 
ENDBRANCH  23  24
ENDBRANCH  20  23
ENDBRANCH   4  17
BRANCH   1  29
ATOM     28  C   UNL     1      48.991  10.925  10.959  0.00  0.00    +0.000 C 
ATOM     29  N   UNL     1      49.437   9.620  11.420  0.00  0.00    +0.000 NA
ATOM     30  H   UNL     1      50.385   9.481  11.081  0.00  0.00    +0.000 HD
ENDBRANCH   1  29
TORSDOF 6
ENDMDL
MODEL 8
REMARK VINA RESULT:    -4.609      3.111      4.757
REMARK INTER + INTRA:          -8.082
REMARK INTER:                  -5.943
REMARK INTRA:                  -2.139
REMARK UNBOUND:                -1.857
REMARK  Name = 
REMARK  7 active torsions:
REMARK  status: ('A' for Active; 'I' for Inactive)
REMARK    1  A    between atoms: C_1  and  N_2
REMARK    2  A    between atoms: N_2  and  C_3
REMARK    3  A    between atoms: C_3  and  C_4
REMARK    4  A    between atoms: C_7  and  C_8
REMARK    5  A    between atoms: C_15  and  C_16
REMARK    6  A    between atoms: C_19  and  O_20
REMARK    7  A    between atoms: O_20  and  C_21
REMARK                            x       y       z     vdW  Elec       q    Type
REMARK                         _______ _______ _______ _____ _____    ______ ____
ROOT
ATOM      1  C   UNL     1      51.232   7.740  18.581  0.00  0.00    +0.000 C 
ATOM      2  C   UNL     1      52.550   8.009  17.814  0.00  0.00    +0.000 C 
ATOM      3  C   UNL     1      52.214   8.936  16.643  0.00  0.00    +0.000 C 
ATOM      4  C   UNL     1      50.734   9.353  16.781  0.00  0.00    +0.000 C 
ATOM      5  C   UNL     1      50.436   9.031  18.267  0.00  0.00    +0.000 C 
ENDROOT
BRANCH   1   6
ATOM      6  C   UNL     1      50.431   6.512  18.083  0.00  0.00    +0.000 A 
ATOM      7  C   UNL     1      49.053   6.401  18.343  0.00  0.00    +0.000 A 
ATOM      8  C   UNL     1      48.338   5.258  17.980  0.00  0.00    +0.000 A 
ATOM      9  C   UNL     1      49.025   4.244  17.335  0.00  0.00    +0.000 A 
ATOM     10  N   UNL     1      50.342   4.317  17.009  0.00  0.00    +0.000 NA
ATOM     11  C   UNL     1      50.999   5.444  17.385  0.00  0.00    +0.000 A 
BRANCH   9  12
ATOM     12  C   UNL     1      48.323   2.965  16.996  0.00  0.00    +0.000 C 
ATOM     13  N   UNL     1      47.119   2.780  17.620  0.00  0.00    +0.000 N 
ATOM     14  O   UNL     1      48.775   2.150  16.201  0.00  0.00    +0.000 OA
ATOM     15  H   UNL     1      46.775   3.499  18.247  0.00  0.00    +0.000 HD
ATOM     16  H   UNL     1      46.561   1.968  17.404  0.00  0.00    +0.000 HD
ENDBRANCH   9  12
ENDBRANCH   1   6
BRANCH   4  17
ATOM     17  C   UNL     1      49.793   8.788  15.724  0.00  0.00    +0.000 A 
ATOM     18  C   UNL     1      50.220   7.815  14.806  0.00  0.00    +0.000 A 
ATOM     19  C   UNL     1      49.333   7.224  13.894  0.00  0.00    +0.000 A 
ATOM     20  C   UNL     1      47.983   7.550  13.919  0.00  0.00    +0.000 A 
ATOM     21  C   UNL     1      47.544   8.532  14.801  0.00  0.00    +0.000 A 
ATOM     22  C   UNL     1      48.429   9.123  15.706  0.00  0.00    +0.000 A 
BRANCH  20  23
ATOM     23  O   UNL     1      47.014   7.013  13.128  0.00  0.00    +0.000 OA
BRANCH  23  24
ATOM     24  C   UNL     1      46.833   7.534  11.819  0.00  0.00    +0.000 C 
ATOM     25  F   UNL     1      47.585   8.619  11.540  0.00  0.00    +0.000 F 
ATOM     26  F   UNL     1      47.162   6.571  10.926  0.00  0.00    +0.000 F 
ATOM     27  F   UNL     1      45.532   7.846  11.638  0.00  0.00    +0.000 F 
ENDBRANCH  23  24
ENDBRANCH  20  23
ENDBRANCH   4  17
BRANCH   1  29
ATOM     28  C   UNL     1      50.926   8.443  20.986  0.00  0.00    +0.000 C 
ATOM     29  N   UNL     1      51.495   7.516  20.021  0.00  0.00    +0.000 NA
ATOM     30  H   UNL     1      51.200   6.579  20.281  0.00  0.00    +0.000 HD
ENDBRANCH   1  29
TORSDOF 6
ENDMDL
MODEL 9
REMARK VINA RESULT:    -4.529     12.469     14.444
REMARK INTER + INTRA:          -7.974
REMARK INTER:                  -5.832
REMARK INTRA:                  -2.142
REMARK UNBOUND:                -1.857
REMARK  Name = 
REMARK  7 active torsions:
REMARK  status: ('A' for Active; 'I' for Inactive)
REMARK    1  A    between atoms: C_1  and  N_2
REMARK    2  A    between atoms: N_2  and  C_3
REMARK    3  A    between atoms: C_3  and  C_4
REMARK    4  A    between atoms: C_7  and  C_8
REMARK    5  A    between atoms: C_15  and  C_16
REMARK    6  A    between atoms: C_19  and  O_20
REMARK    7  A    between atoms: O_20  and  C_21
REMARK                            x       y       z     vdW  Elec       q    Type
REMARK                         _______ _______ _______ _____ _____    ______ ____
ROOT
ATOM      1  C   UNL     1      41.276  -6.012  15.477  0.00  0.00    +0.000 C 
ATOM      2  C   UNL     1      42.534  -5.549  16.251  0.00  0.00    +0.000 C 
ATOM      3  C   UNL     1      42.066  -4.599  17.357  0.00  0.00    +0.000 C 
ATOM      4  C   UNL     1      40.522  -4.601  17.357  0.00  0.00    +0.000 C 
ATOM      5  C   UNL     1      40.192  -5.899  16.577  0.00  0.00    +0.000 C 
ENDROOT
BRANCH   1   6
ATOM      6  C   UNL     1      40.884  -5.112  14.280  0.00  0.00    +0.000 A 
ATOM      7  C   UNL     1      41.764  -4.120  13.810  0.00  0.00    +0.000 A 
ATOM      8  C   UNL     1      41.386  -3.242  12.792  0.00  0.00    +0.000 A 
ATOM      9  C   UNL     1      40.124  -3.394  12.242  0.00  0.00    +0.000 A 
ATOM     10  N   UNL     1      39.253  -4.367  12.617  0.00  0.00    +0.000 NA
ATOM     11  C   UNL     1      39.659  -5.195  13.613  0.00  0.00    +0.000 A 
BRANCH   9  12
ATOM     12  C   UNL     1      39.642  -2.429  11.204  0.00  0.00    +0.000 C 
ATOM     13  N   UNL     1      39.722  -2.876   9.912  0.00  0.00    +0.000 N 
ATOM     14  O   UNL     1      39.184  -1.328  11.482  0.00  0.00    +0.000 OA
ATOM     15  H   UNL     1      40.082  -3.807   9.737  0.00  0.00    +0.000 HD
ATOM     16  H   UNL     1      39.368  -2.304   9.160  0.00  0.00    +0.000 HD
ENDBRANCH   9  12
ENDBRANCH   1   6
BRANCH   4  17
ATOM     17  C   UNL     1      39.866  -3.305  16.897  0.00  0.00    +0.000 A 
ATOM     18  C   UNL     1      40.612  -2.130  16.710  0.00  0.00    +0.000 A 
ATOM     19  C   UNL     1      40.030  -0.962  16.197  0.00  0.00    +0.000 A 
ATOM     20  C   UNL     1      38.698  -0.958  15.802  0.00  0.00    +0.000 A 
ATOM     21  C   UNL     1      37.933  -2.102  16.005  0.00  0.00    +0.000 A 
ATOM     22  C   UNL     1      38.513  -3.265  16.519  0.00  0.00    +0.000 A 
BRANCH  20  23
ATOM     23  O   UNL     1      38.031   0.087  15.243  0.00  0.00    +0.000 OA
BRANCH  23  24
ATOM     24  C   UNL     1      37.613   1.157  16.079  0.00  0.00    +0.000 C 
ATOM     25  F   UNL     1      38.603   1.724  16.801  0.00  0.00    +0.000 F 
ATOM     26  F   UNL     1      37.074   2.124  15.300  0.00  0.00    +0.000 F 
ATOM     27  F   UNL     1      36.656   0.717  16.924  0.00  0.00    +0.000 F 
ENDBRANCH  23  24
ENDBRANCH  20  23
ENDBRANCH   4  17
BRANCH   1  29
ATOM     28  C   UNL     1      41.076  -8.513  15.759  0.00  0.00    +0.000 C 
ATOM     29  N   UNL     1      41.461  -7.378  14.936  0.00  0.00    +0.000 NA
ATOM     30  H   UNL     1      40.976  -7.462  14.046  0.00  0.00    +0.000 HD
ENDBRANCH   1  29
TORSDOF 6
ENDMDL
