MODEL 1
REMARK VINA RESULT:    -7.732      0.000      0.000
REMARK INTER + INTRA:         -11.937
REMARK INTER:                 -10.896
REMARK INTRA:                  -1.041
REMARK UNBOUND:                -1.041
REMARK  Name = 
REMARK  8 active torsions:
REMARK  status: ('A' for Active; 'I' for Inactive)
REMARK    1  A    between atoms: C_1  and  O_2
REMARK    2  A    between atoms: O_2  and  C_3
REMARK    3  A    between atoms: C_7  and  C_8
REMARK    4  A    between atoms: N_10  and  C_11
REMARK    5  A    between atoms: C_11  and  C_12
REMARK    6  A    between atoms: C_15  and  C_16
REMARK    7  A    between atoms: C_16  and  N_17
REMARK    8  A    between atoms: C_18  and  C_20
REMARK                            x       y       z     vdW  Elec       q    Type
REMARK                         _______ _______ _______ _____ _____    ______ ____
ROOT
ATOM      1  C   UNL     1      45.225   6.430  11.583  0.00  0.00    +0.000 A 
ATOM      2  C   UNL     1      46.442   5.916  12.053  0.00  0.00    +0.000 A 
ATOM      3  C   UNL     1      47.276   6.688  12.872  0.00  0.00    +0.000 A 
ATOM      4  C   UNL     1      46.901   7.982  13.254  0.00  0.00    +0.000 A 
ATOM      5  C   UNL     1      45.703   8.509  12.752  0.00  0.00    +0.000 A 
ATOM      6  C   UNL     1      44.870   7.738  11.936  0.00  0.00    +0.000 A 
ENDROOT
BRANCH   1   7
ATOM      7  C   UNL     1      44.305   5.585  10.741  0.00  0.00    +0.000 C 
BRANCH   7  10
ATOM      8  C   UNL     1      44.743   3.526   9.456  0.00  0.00    +0.000 C 
ATOM      9  O   UNL     1      43.871   2.882  10.026  0.00  0.00    +0.000 OA
ATOM     10  N   UNL     1      45.024   4.848   9.731  0.00  0.00    +0.000 N 
ATOM     11  H   UNL     1      45.775   5.285   9.205  0.00  0.00    +0.000 HD
BRANCH   8  16
ATOM     12  C   UNL     1      46.743   1.057   7.656  0.00  0.00    +0.000 A 
ATOM     13  C   UNL     1      47.135   1.697   6.490  0.00  0.00    +0.000 A 
ATOM     14  C   UNL     1      46.727   3.013   6.288  0.00  0.00    +0.000 A 
ATOM     15  C   UNL     1      45.941   3.636   7.255  0.00  0.00    +0.000 A 
ATOM     16  C   UNL     1      45.600   2.910   8.390  0.00  0.00    +0.000 A 
ATOM     17  N   UNL     1      45.990   1.628   8.615  0.00  0.00    +0.000 NA
BRANCH  12  19
ATOM     18  C   UNL     1      46.394  -1.159   7.003  0.00  0.00    +0.000 C 
ATOM     19  O   UNL     1      47.150  -0.255   7.805  0.00  0.00    +0.000 OA
ENDBRANCH  12  19
ENDBRANCH   8  16
ENDBRANCH   7  10
ENDBRANCH   1   7
BRANCH   4  20
ATOM     20  C   UNL     1      47.771   8.805  14.169  0.00  0.00    +0.000 C 
BRANCH  20  21
ATOM     21  N   UNL     1      48.110   8.076  15.365  0.00  0.00    +0.000 N 
ATOM     22  C   UNL     1      49.380   7.615  15.594  0.00  0.00    +0.000 C 
ATOM     23  O   UNL     1      50.304   7.837  14.818  0.00  0.00    +0.000 OA
ATOM     24  H   UNL     1      47.334   7.667  15.879  0.00  0.00    +0.000 HD
BRANCH  22  25
ATOM     25  C   UNL     1      49.591   6.898  16.858  0.00  0.00    +0.000 A 
ATOM     26  C   UNL     1      50.383   7.460  17.850  0.00  0.00    +0.000 A 
ATOM     27  S   UNL     1      50.440   6.534  19.283  0.00  0.00    +0.000 S 
ATOM     28  C   UNL     1      49.457   5.320  18.605  0.00  0.00    +0.000 A 
ATOM     29  N   UNL     1      49.116   4.213  19.317  0.00  0.00    +0.000 NA
ATOM     30  C   UNL     1      48.391   3.364  18.669  0.00  0.00    +0.000 A 
ATOM     31  N   UNL     1      47.979   3.520  17.370  0.00  0.00    +0.000 N 
ATOM     32  C   UNL     1      48.287   4.627  16.618  0.00  0.00    +0.000 A 
ATOM     33  O   UNL     1      47.890   4.742  15.464  0.00  0.00    +0.000 OA
ATOM     34  C   UNL     1      49.091   5.619  17.306  0.00  0.00    +0.000 A 
ATOM     35  H   UNL     1      47.416   2.816  16.916  0.00  0.00    +0.000 HD
ENDBRANCH  22  25
ENDBRANCH  20  21
ENDBRANCH   4  20
TORSDOF 7
ENDMDL
MODEL 2
REMARK VINA RESULT:    -7.534      1.633      2.030
REMARK INTER + INTRA:         -11.658
REMARK INTER:                 -10.440
REMARK INTRA:                  -1.218
REMARK UNBOUND:                -1.041
REMARK  Name = 
REMARK  8 active torsions:
REMARK  status: ('A' for Active; 'I' for Inactive)
REMARK    1  A    between atoms: C_1  and  O_2
REMARK    2  A    between atoms: O_2  and  C_3
REMARK    3  A    between atoms: C_7  and  C_8
REMARK    4  A    between atoms: N_10  and  C_11
REMARK    5  A    between atoms: C_11  and  C_12
REMARK    6  A    between atoms: C_15  and  C_16
REMARK    7  A    between atoms: C_16  and  N_17
REMARK    8  A    between atoms: C_18  and  C_20
REMARK                            x       y       z     vdW  Elec       q    Type
REMARK                         _______ _______ _______ _____ _____    ______ ____
ROOT
ATOM      1  C   UNL     1      45.964   7.621  12.105  0.00  0.00    +0.000 A 
ATOM      2  C   UNL     1      47.158   6.886  12.148  0.00  0.00    +0.000 A 
ATOM      3  C   UNL     1      48.227   7.305  12.949  0.00  0.00    +0.000 A 
ATOM      4  C   UNL     1      48.117   8.455  13.741  0.00  0.00    +0.000 A 
ATOM      5  C   UNL     1      46.938   9.209  13.669  0.00  0.00    +0.000 A 
ATOM      6  C   UNL     1      45.871   8.791  12.870  0.00  0.00    +0.000 A 
ENDROOT
BRANCH   1   7
ATOM      7  C   UNL     1      44.796   7.147  11.280  0.00  0.00    +0.000 C 
BRANCH   7  10
ATOM      8  C   UNL     1      44.417   4.914  10.304  0.00  0.00    +0.000 C 
ATOM      9  O   UNL     1      43.395   4.711  10.947  0.00  0.00    +0.000 OA
ATOM     10  N   UNL     1      45.164   6.070  10.394  0.00  0.00    +0.000 N 
ATOM     11  H   UNL     1      46.001   6.131   9.822  0.00  0.00    +0.000 HD
BRANCH   8  16
ATOM     12  C   UNL     1      46.039   3.478   7.364  0.00  0.00    +0.000 A 
ATOM     13  C   UNL     1      45.993   2.107   7.564  0.00  0.00    +0.000 A 
ATOM     14  C   UNL     1      45.390   1.628   8.724  0.00  0.00    +0.000 A 
ATOM     15  C   UNL     1      44.861   2.536   9.639  0.00  0.00    +0.000 A 
ATOM     16  C   UNL     1      44.956   3.891   9.347  0.00  0.00    +0.000 A 
ATOM     17  N   UNL     1      45.533   4.385   8.221  0.00  0.00    +0.000 NA
BRANCH  12  19
ATOM     18  C   UNL     1      47.031   2.839   5.347  0.00  0.00    +0.000 C 
ATOM     19  O   UNL     1      46.667   3.912   6.212  0.00  0.00    +0.000 OA
ENDBRANCH  12  19
ENDBRANCH   8  16
ENDBRANCH   7  10
ENDBRANCH   1   7
BRANCH   4  20
ATOM     20  C   UNL     1      49.247   8.890  14.640  0.00  0.00    +0.000 C 
BRANCH  20  21
ATOM     21  N   UNL     1      49.359   8.032  15.793  0.00  0.00    +0.000 N 
ATOM     22  C   UNL     1      48.674   8.287  16.952  0.00  0.00    +0.000 C 
ATOM     23  O   UNL     1      47.895   9.230  17.055  0.00  0.00    +0.000 OA
ATOM     24  H   UNL     1      50.167   7.417  15.820  0.00  0.00    +0.000 HD
BRANCH  22  25
ATOM     25  C   UNL     1      48.869   7.326  18.045  0.00  0.00    +0.000 A 
ATOM     26  C   UNL     1      49.249   7.775  19.303  0.00  0.00    +0.000 A 
ATOM     27  S   UNL     1      49.336   6.534  20.472  0.00  0.00    +0.000 S 
ATOM     28  C   UNL     1      48.926   5.346  19.324  0.00  0.00    +0.000 A 
ATOM     29  N   UNL     1      48.830   4.035  19.672  0.00  0.00    +0.000 NA
ATOM     30  C   UNL     1      48.540   3.242  18.695  0.00  0.00    +0.000 A 
ATOM     31  N   UNL     1      48.341   3.641  17.398  0.00  0.00    +0.000 N 
ATOM     32  C   UNL     1      48.414   4.955  17.003  0.00  0.00    +0.000 A 
ATOM     33  O   UNL     1      48.216   5.280  15.838  0.00  0.00    +0.000 OA
ATOM     34  C   UNL     1      48.725   5.889  18.068  0.00  0.00    +0.000 A 
ATOM     35  H   UNL     1      48.121   2.971  16.677  0.00  0.00    +0.000 HD
ENDBRANCH  22  25
ENDBRANCH  20  21
ENDBRANCH   4  20
TORSDOF 7
ENDMDL
MODEL 3
REMARK VINA RESULT:    -7.113      5.334     10.194
REMARK INTER + INTRA:         -11.064
REMARK INTER:                 -10.117
REMARK INTRA:                  -0.946
REMARK UNBOUND:                -1.041
REMARK  Name = 
REMARK  8 active torsions:
REMARK  status: ('A' for Active; 'I' for Inactive)
REMARK    1  A    between atoms: C_1  and  O_2
REMARK    2  A    between atoms: O_2  and  C_3
REMARK    3  A    between atoms: C_7  and  C_8
REMARK    4  A    between atoms: N_10  and  C_11
REMARK    5  A    between atoms: C_11  and  C_12
REMARK    6  A    between atoms: C_15  and  C_16
REMARK    7  A    between atoms: C_16  and  N_17
REMARK    8  A    between atoms: C_18  and  C_20
REMARK                            x       y       z     vdW  Elec       q    Type
REMARK                         _______ _______ _______ _____ _____    ______ ____
ROOT
ATOM      1  C   UNL     1      51.544   3.051  17.809  0.00  0.00    +0.000 A 
ATOM      2  C   UNL     1      50.801   1.998  17.258  0.00  0.00    +0.000 A 
ATOM      3  C   UNL     1      49.430   2.143  17.010  0.00  0.00    +0.000 A 
ATOM      4  C   UNL     1      48.779   3.351  17.288  0.00  0.00    +0.000 A 
ATOM      5  C   UNL     1      49.514   4.390  17.874  0.00  0.00    +0.000 A 
ATOM      6  C   UNL     1      50.883   4.246  18.121  0.00  0.00    +0.000 A 
ENDROOT
BRANCH   1   7
ATOM      7  C   UNL     1      53.028   2.914  18.033  0.00  0.00    +0.000 C 
BRANCH   7  10
ATOM      8  C   UNL     1      54.331   0.862  17.613  0.00  0.00    +0.000 C 
ATOM      9  O   UNL     1      54.915   1.328  16.643  0.00  0.00    +0.000 OA
ATOM     10  N   UNL     1      53.401   1.558  18.355  0.00  0.00    +0.000 N 
ATOM     11  H   UNL     1      52.968   1.073  19.136  0.00  0.00    +0.000 HD
BRANCH   8  16
ATOM     12  C   UNL     1      54.449  -2.066  19.792  0.00  0.00    +0.000 A 
ATOM     13  C   UNL     1      54.976  -3.077  19.003  0.00  0.00    +0.000 A 
ATOM     14  C   UNL     1      55.318  -2.779  17.686  0.00  0.00    +0.000 A 
ATOM     15  C   UNL     1      55.116  -1.486  17.209  0.00  0.00    +0.000 A 
ATOM     16  C   UNL     1      54.583  -0.542  18.078  0.00  0.00    +0.000 A 
ATOM     17  N   UNL     1      54.247  -0.804  19.368  0.00  0.00    +0.000 NA
BRANCH  12  19
ATOM     18  C   UNL     1      53.044  -3.364  21.134  0.00  0.00    +0.000 C 
ATOM     19  O   UNL     1      54.102  -2.410  21.085  0.00  0.00    +0.000 OA
ENDBRANCH  12  19
ENDBRANCH   8  16
ENDBRANCH   7  10
ENDBRANCH   1   7
BRANCH   4  20
ATOM     20  C   UNL     1      47.313   3.532  16.985  0.00  0.00    +0.000 C 
BRANCH  20  21
ATOM     21  N   UNL     1      47.105   4.565  16.001  0.00  0.00    +0.000 N 
ATOM     22  C   UNL     1      47.147   4.299  14.657  0.00  0.00    +0.000 C 
ATOM     23  O   UNL     1      47.316   3.165  14.221  0.00  0.00    +0.000 OA
ATOM     24  H   UNL     1      47.220   5.522  16.321  0.00  0.00    +0.000 HD
BRANCH  22  25
ATOM     25  C   UNL     1      46.907   5.439  13.764  0.00  0.00    +0.000 A 
ATOM     26  C   UNL     1      47.918   6.363  13.532  0.00  0.00    +0.000 A 
ATOM     27  S   UNL     1      47.494   7.565  12.396  0.00  0.00    +0.000 S 
ATOM     28  C   UNL     1      45.926   6.928  12.221  0.00  0.00    +0.000 A 
ATOM     29  N   UNL     1      45.024   7.502  11.380  0.00  0.00    +0.000 NA
ATOM     30  C   UNL     1      43.866   6.930  11.369  0.00  0.00    +0.000 A 
ATOM     31  N   UNL     1      43.526   5.838  12.125  0.00  0.00    +0.000 N 
ATOM     32  C   UNL     1      44.408   5.217  12.975  0.00  0.00    +0.000 A 
ATOM     33  O   UNL     1      44.077   4.232  13.626  0.00  0.00    +0.000 OA
ATOM     34  C   UNL     1      45.730   5.814  13.015  0.00  0.00    +0.000 A 
ATOM     35  H   UNL     1      42.601   5.439  12.074  0.00  0.00    +0.000 HD
ENDBRANCH  22  25
ENDBRANCH  20  21
ENDBRANCH   4  20
TORSDOF 7
ENDMDL
MODEL 4
REMARK VINA RESULT:    -7.062      3.179      4.214
REMARK INTER + INTRA:         -10.993
REMARK INTER:                  -9.997
REMARK INTRA:                  -0.996
REMARK UNBOUND:                -1.041
REMARK  Name = 
REMARK  8 active torsions:
REMARK  status: ('A' for Active; 'I' for Inactive)
REMARK    1  A    between atoms: C_1  and  O_2
REMARK    2  A    between atoms: O_2  and  C_3
REMARK    3  A    between atoms: C_7  and  C_8
REMARK    4  A    between atoms: N_10  and  C_11
REMARK    5  A    between atoms: C_11  and  C_12
REMARK    6  A    between atoms: C_15  and  C_16
REMARK    7  A    between atoms: C_16  and  N_17
REMARK    8  A    between atoms: C_18  and  C_20
REMARK                            x       y       z     vdW  Elec       q    Type
REMARK                         _______ _______ _______ _____ _____    ______ ____
ROOT
ATOM      1  C   UNL     1      47.703   7.103  13.556  0.00  0.00    +0.000 A 
ATOM      2  C   UNL     1      47.512   5.772  13.955  0.00  0.00    +0.000 A 
ATOM      3  C   UNL     1      47.929   5.337  15.219  0.00  0.00    +0.000 A 
ATOM      4  C   UNL     1      48.527   6.229  16.119  0.00  0.00    +0.000 A 
ATOM      5  C   UNL     1      48.751   7.548  15.706  0.00  0.00    +0.000 A 
ATOM      6  C   UNL     1      48.335   7.983  14.444  0.00  0.00    +0.000 A 
ENDROOT
BRANCH   1   7
ATOM      7  C   UNL     1      47.213   7.584  12.215  0.00  0.00    +0.000 C 
BRANCH   7  10
ATOM      8  C   UNL     1      45.531   6.269  10.982  0.00  0.00    +0.000 C 
ATOM      9  O   UNL     1      44.594   6.974  11.336  0.00  0.00    +0.000 OA
ATOM     10  N   UNL     1      46.840   6.490  11.353  0.00  0.00    +0.000 N 
ATOM     11  H   UNL     1      47.539   5.838  11.010  0.00  0.00    +0.000 HD
BRANCH   8  16
ATOM     12  C   UNL     1      45.733   4.070   8.073  0.00  0.00    +0.000 A 
ATOM     13  C   UNL     1      45.021   2.936   8.433  0.00  0.00    +0.000 A 
ATOM     14  C   UNL     1      44.437   2.894   9.697  0.00  0.00    +0.000 A 
ATOM     15  C   UNL     1      44.590   3.983  10.551  0.00  0.00    +0.000 A 
ATOM     16  C   UNL     1      45.321   5.075  10.098  0.00  0.00    +0.000 A 
ATOM     17  N   UNL     1      45.896   5.144   8.869  0.00  0.00    +0.000 NA
BRANCH  12  19
ATOM     18  C   UNL     1      46.696   2.752   6.401  0.00  0.00    +0.000 C 
ATOM     19  O   UNL     1      46.316   4.060   6.821  0.00  0.00    +0.000 OA
ENDBRANCH  12  19
ENDBRANCH   8  16
ENDBRANCH   7  10
ENDBRANCH   1   7
BRANCH   4  20
ATOM     20  C   UNL     1      48.940   5.781  17.498  0.00  0.00    +0.000 C 
BRANCH  20  21
ATOM     21  N   UNL     1      50.205   5.091  17.467  0.00  0.00    +0.000 N 
ATOM     22  C   UNL     1      50.937   4.874  18.606  0.00  0.00    +0.000 C 
ATOM     23  O   UNL     1      50.535   5.214  19.714  0.00  0.00    +0.000 OA
ATOM     24  H   UNL     1      50.666   5.035  16.563  0.00  0.00    +0.000 HD
BRANCH  22  25
ATOM     25  C   UNL     1      52.202   4.148  18.435  0.00  0.00    +0.000 A 
ATOM     26  C   UNL     1      53.403   4.763  18.763  0.00  0.00    +0.000 A 
ATOM     27  S   UNL     1      54.760   3.740  18.591  0.00  0.00    +0.000 S 
ATOM     28  C   UNL     1      53.795   2.461  18.016  0.00  0.00    +0.000 A 
ATOM     29  N   UNL     1      54.345   1.266  17.671  0.00  0.00    +0.000 NA
ATOM     30  C   UNL     1      53.499   0.399  17.224  0.00  0.00    +0.000 A 
ATOM     31  N   UNL     1      52.153   0.619  17.088  0.00  0.00    +0.000 N 
ATOM     32  C   UNL     1      51.552   1.803  17.437  0.00  0.00    +0.000 A 
ATOM     33  O   UNL     1      50.343   1.963  17.317  0.00  0.00    +0.000 OA
ATOM     34  C   UNL     1      52.458   2.809  17.958  0.00  0.00    +0.000 A 
ATOM     35  H   UNL     1      51.543  -0.100  16.727  0.00  0.00    +0.000 HD
ENDBRANCH  22  25
ENDBRANCH  20  21
ENDBRANCH   4  20
TORSDOF 7
ENDMDL
MODEL 5
REMARK VINA RESULT:    -6.939      5.266     10.026
REMARK INTER + INTRA:         -10.820
REMARK INTER:                  -9.577
REMARK INTRA:                  -1.243
REMARK UNBOUND:                -1.041
REMARK  Name = 
REMARK  8 active torsions:
REMARK  status: ('A' for Active; 'I' for Inactive)
REMARK    1  A    between atoms: C_1  and  O_2
REMARK    2  A    between atoms: O_2  and  C_3
REMARK    3  A    between atoms: C_7  and  C_8
REMARK    4  A    between atoms: N_10  and  C_11
REMARK    5  A    between atoms: C_11  and  C_12
REMARK    6  A    between atoms: C_15  and  C_16
REMARK    7  A    between atoms: C_16  and  N_17
REMARK    8  A    between atoms: C_18  and  C_20
REMARK                            x       y       z     vdW  Elec       q    Type
REMARK                         _______ _______ _______ _____ _____    ______ ____
ROOT
ATOM      1  C   UNL     1      51.392   3.097  17.766  0.00  0.00    +0.000 A 
ATOM      2  C   UNL     1      50.637   2.039  17.243  0.00  0.00    +0.000 A 
ATOM      3  C   UNL     1      49.280   2.209  16.942  0.00  0.00    +0.000 A 
ATOM      4  C   UNL     1      48.655   3.447  17.139  0.00  0.00    +0.000 A 
ATOM      5  C   UNL     1      49.401   4.493  17.698  0.00  0.00    +0.000 A 
ATOM      6  C   UNL     1      50.756   4.323  17.997  0.00  0.00    +0.000 A 
ENDROOT
BRANCH   1   7
ATOM      7  C   UNL     1      52.863   2.931  18.046  0.00  0.00    +0.000 C 
BRANCH   7  10
ATOM      8  C   UNL     1      54.135   0.863  17.608  0.00  0.00    +0.000 C 
ATOM      9  O   UNL     1      54.749   1.339  16.661  0.00  0.00    +0.000 OA
ATOM     10  N   UNL     1      53.203   1.561  18.346  0.00  0.00    +0.000 N 
ATOM     11  H   UNL     1      52.744   1.068  19.107  0.00  0.00    +0.000 HD
BRANCH   8  16
ATOM     12  C   UNL     1      54.217  -2.096  19.747  0.00  0.00    +0.000 A 
ATOM     13  C   UNL     1      54.679  -3.115  18.928  0.00  0.00    +0.000 A 
ATOM     14  C   UNL     1      54.987  -2.813  17.604  0.00  0.00    +0.000 A 
ATOM     15  C   UNL     1      54.818  -1.507  17.149  0.00  0.00    +0.000 A 
ATOM     16  C   UNL     1      54.350  -0.555  18.048  0.00  0.00    +0.000 A 
ATOM     17  N   UNL     1      54.048  -0.822  19.345  0.00  0.00    +0.000 NA
BRANCH  12  19
ATOM     18  C   UNL     1      52.760  -3.295  21.125  0.00  0.00    +0.000 C 
ATOM     19  O   UNL     1      53.901  -2.444  21.046  0.00  0.00    +0.000 OA
ENDBRANCH  12  19
ENDBRANCH   8  16
ENDBRANCH   7  10
ENDBRANCH   1   7
BRANCH   4  20
ATOM     20  C   UNL     1      47.205   3.652  16.779  0.00  0.00    +0.000 C 
BRANCH  20  21
ATOM     21  N   UNL     1      47.057   4.658  15.758  0.00  0.00    +0.000 N 
ATOM     22  C   UNL     1      47.068   4.340  14.425  0.00  0.00    +0.000 C 
ATOM     23  O   UNL     1      47.157   3.182  14.031  0.00  0.00    +0.000 OA
ATOM     24  H   UNL     1      47.239   5.617  16.040  0.00  0.00    +0.000 HD
BRANCH  22  25
ATOM     25  C   UNL     1      46.895   5.460  13.490  0.00  0.00    +0.000 A 
ATOM     26  C   UNL     1      45.837   5.456  12.591  0.00  0.00    +0.000 A 
ATOM     27  S   UNL     1      45.737   6.877  11.651  0.00  0.00    +0.000 S 
ATOM     28  C   UNL     1      47.139   7.520  12.369  0.00  0.00    +0.000 A 
ATOM     29  N   UNL     1      47.620   8.739  12.005  0.00  0.00    +0.000 NA
ATOM     30  C   UNL     1      48.706   9.088  12.611  0.00  0.00    +0.000 A 
ATOM     31  N   UNL     1      49.356   8.326  13.548  0.00  0.00    +0.000 N 
ATOM     32  C   UNL     1      48.899   7.097  13.957  0.00  0.00    +0.000 A 
ATOM     33  O   UNL     1      49.497   6.448  14.808  0.00  0.00    +0.000 OA
ATOM     34  C   UNL     1      47.674   6.664  13.314  0.00  0.00    +0.000 A 
ATOM     35  H   UNL     1      50.205   8.653  13.984  0.00  0.00    +0.000 HD
ENDBRANCH  22  25
ENDBRANCH  20  21
ENDBRANCH   4  20
TORSDOF 7
ENDMDL
MODEL 6
REMARK VINA RESULT:    -6.890      4.525      7.354
REMARK INTER + INTRA:         -10.750
REMARK INTER:                  -9.657
REMARK INTRA:                  -1.094
REMARK UNBOUND:                -1.041
REMARK  Name = 
REMARK  8 active torsions:
REMARK  status: ('A' for Active; 'I' for Inactive)
REMARK    1  A    between atoms: C_1  and  O_2
REMARK    2  A    between atoms: O_2  and  C_3
REMARK    3  A    between atoms: C_7  and  C_8
REMARK    4  A    between atoms: N_10  and  C_11
REMARK    5  A    between atoms: C_11  and  C_12
REMARK    6  A    between atoms: C_15  and  C_16
REMARK    7  A    between atoms: C_16  and  N_17
REMARK    8  A    between atoms: C_18  and  C_20
REMARK                            x       y       z     vdW  Elec       q    Type
REMARK                         _______ _______ _______ _____ _____    ______ ____
ROOT
ATOM      1  C   UNL     1      44.742   9.083  11.792  0.00  0.00    +0.000 A 
ATOM      2  C   UNL     1      44.224   7.907  11.231  0.00  0.00    +0.000 A 
ATOM      3  C   UNL     1      44.696   6.653  11.635  0.00  0.00    +0.000 A 
ATOM      4  C   UNL     1      45.682   6.547  12.625  0.00  0.00    +0.000 A 
ATOM      5  C   UNL     1      46.225   7.723  13.159  0.00  0.00    +0.000 A 
ATOM      6  C   UNL     1      45.753   8.975  12.755  0.00  0.00    +0.000 A 
ENDROOT
BRANCH   1   7
ATOM      7  C   UNL     1      44.202  10.432  11.393  0.00  0.00    +0.000 C 
BRANCH   7  10
ATOM      8  C   UNL     1      41.838  10.672  10.733  0.00  0.00    +0.000 C 
ATOM      9  O   UNL     1      42.080  10.648   9.533  0.00  0.00    +0.000 OA
ATOM     10  N   UNL     1      42.802  10.568  11.713  0.00  0.00    +0.000 N 
ATOM     11  H   UNL     1      42.493  10.609  12.680  0.00  0.00    +0.000 HD
BRANCH   8  16
ATOM     12  C   UNL     1      38.194  10.481  10.884  0.00  0.00    +0.000 A 
ATOM     13  C   UNL     1      37.858  11.036  12.108  0.00  0.00    +0.000 A 
ATOM     14  C   UNL     1      38.882  11.506  12.926  0.00  0.00    +0.000 A 
ATOM     15  C   UNL     1      40.201  11.398  12.490  0.00  0.00    +0.000 A 
ATOM     16  C   UNL     1      40.436  10.827  11.246  0.00  0.00    +0.000 A 
ATOM     17  N   UNL     1      39.455  10.367  10.426  0.00  0.00    +0.000 NA
BRANCH  12  19
ATOM     18  C   UNL     1      36.157   9.336  10.888  0.00  0.00    +0.000 C 
ATOM     19  O   UNL     1      37.149  10.006  10.114  0.00  0.00    +0.000 OA
ENDBRANCH  12  19
ENDBRANCH   8  16
ENDBRANCH   7  10
ENDBRANCH   1   7
BRANCH   4  20
ATOM     20  C   UNL     1      46.166   5.200  13.099  0.00  0.00    +0.000 C 
BRANCH  20  21
ATOM     21  N   UNL     1      46.721   5.280  14.427  0.00  0.00    +0.000 N 
ATOM     22  C   UNL     1      47.343   4.210  15.015  0.00  0.00    +0.000 C 
ATOM     23  O   UNL     1      47.502   3.144  14.428  0.00  0.00    +0.000 OA
ATOM     24  H   UNL     1      46.383   6.040  15.011  0.00  0.00    +0.000 HD
BRANCH  22  25
ATOM     25  C   UNL     1      47.874   4.431  16.366  0.00  0.00    +0.000 A 
ATOM     26  C   UNL     1      47.436   3.641  17.421  0.00  0.00    +0.000 A 
ATOM     27  S   UNL     1      48.228   3.974  18.896  0.00  0.00    +0.000 S 
ATOM     28  C   UNL     1      49.140   5.225  18.190  0.00  0.00    +0.000 A 
ATOM     29  N   UNL     1      50.033   5.943  18.922  0.00  0.00    +0.000 NA
ATOM     30  C   UNL     1      50.633   6.879  18.264  0.00  0.00    +0.000 A 
ATOM     31  N   UNL     1      50.417   7.165  16.940  0.00  0.00    +0.000 N 
ATOM     32  C   UNL     1      49.537   6.457  16.159  0.00  0.00    +0.000 A 
ATOM     33  O   UNL     1      49.378   6.729  14.974  0.00  0.00    +0.000 OA
ATOM     34  C   UNL     1      48.845   5.385  16.848  0.00  0.00    +0.000 A 
ATOM     35  H   UNL     1      50.915   7.914  16.484  0.00  0.00    +0.000 HD
ENDBRANCH  22  25
ENDBRANCH  20  21
ENDBRANCH   4  20
TORSDOF 7
ENDMDL
MODEL 7
REMARK VINA RESULT:    -6.753      4.463      9.021
REMARK INTER + INTRA:         -10.557
REMARK INTER:                  -9.396
REMARK INTRA:                  -1.161
REMARK UNBOUND:                -1.041
REMARK  Name = 
REMARK  8 active torsions:
REMARK  status: ('A' for Active; 'I' for Inactive)
REMARK    1  A    between atoms: C_1  and  O_2
REMARK    2  A    between atoms: O_2  and  C_3
REMARK    3  A    between atoms: C_7  and  C_8
REMARK    4  A    between atoms: N_10  and  C_11
REMARK    5  A    between atoms: C_11  and  C_12
REMARK    6  A    between atoms: C_15  and  C_16
REMARK    7  A    between atoms: C_16  and  N_17
REMARK    8  A    between atoms: C_18  and  C_20
REMARK                            x       y       z     vdW  Elec       q    Type
REMARK                         _______ _______ _______ _____ _____    ______ ____
ROOT
ATOM      1  C   UNL     1      49.721   5.043  17.719  0.00  0.00    +0.000 A 
ATOM      2  C   UNL     1      48.428   4.882  17.202  0.00  0.00    +0.000 A 
ATOM      3  C   UNL     1      48.009   5.612  16.083  0.00  0.00    +0.000 A 
ATOM      4  C   UNL     1      48.882   6.503  15.445  0.00  0.00    +0.000 A 
ATOM      5  C   UNL     1      50.161   6.691  15.985  0.00  0.00    +0.000 A 
ATOM      6  C   UNL     1      50.579   5.962  17.102  0.00  0.00    +0.000 A 
ENDROOT
BRANCH   1   7
ATOM      7  C   UNL     1      50.189   4.224  18.894  0.00  0.00    +0.000 C 
BRANCH   7  10
ATOM      8  C   UNL     1      51.597   2.469  17.885  0.00  0.00    +0.000 C 
ATOM      9  O   UNL     1      50.653   1.895  17.356  0.00  0.00    +0.000 OA
ATOM     10  N   UNL     1      51.471   3.611  18.647  0.00  0.00    +0.000 N 
ATOM     11  H   UNL     1      52.319   4.001  19.047  0.00  0.00    +0.000 HD
BRANCH   8  16
ATOM     12  C   UNL     1      54.383   0.138  17.506  0.00  0.00    +0.000 A 
ATOM     13  C   UNL     1      55.514   0.938  17.460  0.00  0.00    +0.000 A 
ATOM     14  C   UNL     1      55.354   2.318  17.566  0.00  0.00    +0.000 A 
ATOM     15  C   UNL     1      54.072   2.843  17.710  0.00  0.00    +0.000 A 
ATOM     16  C   UNL     1      53.001   1.957  17.747  0.00  0.00    +0.000 A 
ATOM     17  N   UNL     1      53.130   0.608  17.651  0.00  0.00    +0.000 NA
BRANCH  12  19
ATOM     18  C   UNL     1      55.124  -1.577  16.102  0.00  0.00    +0.000 C 
ATOM     19  O   UNL     1      54.585  -1.222  17.373  0.00  0.00    +0.000 OA
ENDBRANCH  12  19
ENDBRANCH   8  16
ENDBRANCH   7  10
ENDBRANCH   1   7
BRANCH   4  20
ATOM     20  C   UNL     1      48.455   7.262  14.214  0.00  0.00    +0.000 C 
BRANCH  20  21
ATOM     21  N   UNL     1      47.182   6.795  13.726  0.00  0.00    +0.000 N 
ATOM     22  C   UNL     1      46.877   6.795  12.390  0.00  0.00    +0.000 C 
ATOM     23  O   UNL     1      47.685   7.148  11.537  0.00  0.00    +0.000 OA
ATOM     24  H   UNL     1      46.429   6.746  14.407  0.00  0.00    +0.000 HD
BRANCH  22  25
ATOM     25  C   UNL     1      45.550   6.281  12.028  0.00  0.00    +0.000 A 
ATOM     26  C   UNL     1      44.592   7.142  11.506  0.00  0.00    +0.000 A 
ATOM     27  S   UNL     1      43.145   6.356  11.055  0.00  0.00    +0.000 S 
ATOM     28  C   UNL     1      43.726   4.851  11.596  0.00  0.00    +0.000 A 
ATOM     29  N   UNL     1      42.963   3.728  11.502  0.00  0.00    +0.000 NA
ATOM     30  C   UNL     1      43.519   2.664  11.977  0.00  0.00    +0.000 A 
ATOM     31  N   UNL     1      44.769   2.621  12.541  0.00  0.00    +0.000 N 
ATOM     32  C   UNL     1      45.579   3.725  12.643  0.00  0.00    +0.000 A 
ATOM     33  O   UNL     1      46.697   3.649  13.139  0.00  0.00    +0.000 OA
ATOM     34  C   UNL     1      45.005   4.946  12.111  0.00  0.00    +0.000 A 
ATOM     35  H   UNL     1      45.146   1.756  12.899  0.00  0.00    +0.000 HD
ENDBRANCH  22  25
ENDBRANCH  20  21
ENDBRANCH   4  20
TORSDOF 7
ENDMDL
MODEL 8
REMARK VINA RESULT:    -6.564      1.670      2.104
REMARK INTER + INTRA:         -10.291
REMARK INTER:                  -9.292
REMARK INTRA:                  -0.999
REMARK UNBOUND:                -1.041
REMARK  Name = 
REMARK  8 active torsions:
REMARK  status: ('A' for Active; 'I' for Inactive)
REMARK    1  A    between atoms: C_1  and  O_2
REMARK    2  A    between atoms: O_2  and  C_3
REMARK    3  A    between atoms: C_7  and  C_8
REMARK    4  A    between atoms: N_10  and  C_11
REMARK    5  A    between atoms: C_11  and  C_12
REMARK    6  A    between atoms: C_15  and  C_16
REMARK    7  A    between atoms: C_16  and  N_17
REMARK    8  A    between atoms: C_18  and  C_20
REMARK                            x       y       z     vdW  Elec       q    Type
REMARK                         _______ _______ _______ _____ _____    ______ ____
ROOT
ATOM      1  C   UNL     1      45.126   6.356  11.278  0.00  0.00    +0.000 A 
ATOM      2  C   UNL     1      46.496   6.439  10.991  0.00  0.00    +0.000 A 
ATOM      3  C   UNL     1      47.353   7.189  11.805  0.00  0.00    +0.000 A 
ATOM      4  C   UNL     1      46.862   7.855  12.936  0.00  0.00    +0.000 A 
ATOM      5  C   UNL     1      45.487   7.802  13.200  0.00  0.00    +0.000 A 
ATOM      6  C   UNL     1      44.631   7.053  12.388  0.00  0.00    +0.000 A 
ENDROOT
BRANCH   1   7
ATOM      7  C   UNL     1      44.210   5.511  10.431  0.00  0.00    +0.000 C 
BRANCH   7  10
ATOM      8  C   UNL     1      44.756   3.382   9.311  0.00  0.00    +0.000 C 
ATOM      9  O   UNL     1      43.969   2.728   9.983  0.00  0.00    +0.000 OA
ATOM     10  N   UNL     1      44.939   4.742   9.452  0.00  0.00    +0.000 N 
ATOM     11  H   UNL     1      45.625   5.186   8.849  0.00  0.00    +0.000 HD
BRANCH   8  16
ATOM     12  C   UNL     1      46.753   0.869   7.569  0.00  0.00    +0.000 A 
ATOM     13  C   UNL     1      47.139   1.478   6.385  0.00  0.00    +0.000 A 
ATOM     14  C   UNL     1      46.727   2.787   6.149  0.00  0.00    +0.000 A 
ATOM     15  C   UNL     1      45.944   3.434   7.102  0.00  0.00    +0.000 A 
ATOM     16  C   UNL     1      45.610   2.739   8.258  0.00  0.00    +0.000 A 
ATOM     17  N   UNL     1      46.004   1.465   8.517  0.00  0.00    +0.000 NA
BRANCH  12  19
ATOM     18  C   UNL     1      46.361  -1.371   7.034  0.00  0.00    +0.000 C 
ATOM     19  O   UNL     1      47.163  -0.437   7.753  0.00  0.00    +0.000 OA
ENDBRANCH  12  19
ENDBRANCH   8  16
ENDBRANCH   7  10
ENDBRANCH   1   7
BRANCH   4  20
ATOM     20  C   UNL     1      47.783   8.630  13.843  0.00  0.00    +0.000 C 
BRANCH  20  21
ATOM     21  N   UNL     1      47.919   7.986  15.125  0.00  0.00    +0.000 N 
ATOM     22  C   UNL     1      49.144   7.792  15.709  0.00  0.00    +0.000 C 
ATOM     23  O   UNL     1      50.182   8.196  15.196  0.00  0.00    +0.000 OA
ATOM     24  H   UNL     1      47.128   7.429  15.436  0.00  0.00    +0.000 HD
BRANCH  22  25
ATOM     25  C   UNL     1      49.139   7.134  17.022  0.00  0.00    +0.000 A 
ATOM     26  C   UNL     1      49.711   5.877  17.170  0.00  0.00    +0.000 A 
ATOM     27  S   UNL     1      49.700   5.309  18.779  0.00  0.00    +0.000 S 
ATOM     28  C   UNL     1      48.877   6.695  19.324  0.00  0.00    +0.000 A 
ATOM     29  N   UNL     1      48.544   6.846  20.634  0.00  0.00    +0.000 NA
ATOM     30  C   UNL     1      47.898   7.932  20.899  0.00  0.00    +0.000 A 
ATOM     31  N   UNL     1      47.550   8.880  19.971  0.00  0.00    +0.000 N 
ATOM     32  C   UNL     1      47.877   8.777  18.642  0.00  0.00    +0.000 A 
ATOM     33  O   UNL     1      47.564   9.650  17.840  0.00  0.00    +0.000 OA
ATOM     34  C   UNL     1      48.616   7.579  18.293  0.00  0.00    +0.000 A 
ATOM     35  H   UNL     1      47.039   9.707  20.242  0.00  0.00    +0.000 HD
ENDBRANCH  22  25
ENDBRANCH  20  21
ENDBRANCH   4  20
TORSDOF 7
ENDMDL
MODEL 9
REMARK VINA RESULT:    -6.385      5.949      8.309
REMARK INTER + INTRA:         -10.038
REMARK INTER:                  -9.017
REMARK INTRA:                  -1.021
REMARK UNBOUND:                -1.041
REMARK  Name = 
REMARK  8 active torsions:
REMARK  status: ('A' for Active; 'I' for Inactive)
REMARK    1  A    between atoms: C_1  and  O_2
REMARK    2  A    between atoms: O_2  and  C_3
REMARK    3  A    between atoms: C_7  and  C_8
REMARK    4  A    between atoms: N_10  and  C_11
REMARK    5  A    between atoms: C_11  and  C_12
REMARK    6  A    between atoms: C_15  and  C_16
REMARK    7  A    between atoms: C_16  and  N_17
REMARK    8  A    between atoms: C_18  and  C_20
REMARK                            x       y       z     vdW  Elec       q    Type
REMARK                         _______ _______ _______ _____ _____    ______ ____
ROOT
ATOM      1  C   UNL     1      51.014   8.636  11.260  0.00  0.00    +0.000 A 
ATOM      2  C   UNL     1      50.303   9.837  11.387  0.00  0.00    +0.000 A 
ATOM      3  C   UNL     1      48.947   9.833  11.737  0.00  0.00    +0.000 A 
ATOM      4  C   UNL     1      48.279   8.628  11.987  0.00  0.00    +0.000 A 
ATOM      5  C   UNL     1      48.980   7.426  11.822  0.00  0.00    +0.000 A 
ATOM      6  C   UNL     1      50.334   7.430  11.474  0.00  0.00    +0.000 A 
ENDROOT
BRANCH   1   7
ATOM      7  C   UNL     1      52.484   8.640  10.931  0.00  0.00    +0.000 C 
BRANCH   7  10
ATOM      8  C   UNL     1      52.861   7.959   8.591  0.00  0.00    +0.000 C 
ATOM      9  O   UNL     1      52.783   6.762   8.835  0.00  0.00    +0.000 OA
ATOM     10  N   UNL     1      52.724   8.948   9.542  0.00  0.00    +0.000 N 
ATOM     11  H   UNL     1      52.816   9.911   9.232  0.00  0.00    +0.000 HD
BRANCH   8  16
ATOM     12  C   UNL     1      53.681   7.942   5.031  0.00  0.00    +0.000 A 
ATOM     13  C   UNL     1      53.592   9.269   4.639  0.00  0.00    +0.000 A 
ATOM     14  C   UNL     1      53.252  10.222   5.596  0.00  0.00    +0.000 A 
ATOM     15  C   UNL     1      53.011   9.811   6.905  0.00  0.00    +0.000 A 
ATOM     16  C   UNL     1      53.126   8.459   7.200  0.00  0.00    +0.000 A 
ATOM     17  N   UNL     1      53.462   7.510   6.288  0.00  0.00    +0.000 NA
BRANCH  12  19
ATOM     18  C   UNL     1      55.397   6.763   3.970  0.00  0.00    +0.000 C 
ATOM     19  O   UNL     1      53.998   7.027   4.046  0.00  0.00    +0.000 OA
ENDBRANCH  12  19
ENDBRANCH   8  16
ENDBRANCH   7  10
ENDBRANCH   1   7
BRANCH   4  20
ATOM     20  C   UNL     1      46.830   8.615  12.405  0.00  0.00    +0.000 C 
BRANCH  20  21
ATOM     21  N   UNL     1      46.270   7.290  12.309  0.00  0.00    +0.000 N 
ATOM     22  C   UNL     1      45.093   7.051  11.648  0.00  0.00    +0.000 C 
ATOM     23  O   UNL     1      44.480   7.939  11.065  0.00  0.00    +0.000 OA
ATOM     24  H   UNL     1      46.609   6.608  12.981  0.00  0.00    +0.000 HD
BRANCH  22  25
ATOM     25  C   UNL     1      44.641   5.654  11.615  0.00  0.00    +0.000 A 
ATOM     26  C   UNL     1      43.982   5.113  12.712  0.00  0.00    +0.000 A 
ATOM     27  S   UNL     1      43.446   3.512  12.462  0.00  0.00    +0.000 S 
ATOM     28  C   UNL     1      44.128   3.466  10.903  0.00  0.00    +0.000 A 
ATOM     29  N   UNL     1      44.031   2.354  10.125  0.00  0.00    +0.000 NA
ATOM     30  C   UNL     1      44.618   2.451   8.979  0.00  0.00    +0.000 A 
ATOM     31  N   UNL     1      45.297   3.559   8.541  0.00  0.00    +0.000 N 
ATOM     32  C   UNL     1      45.407   4.708   9.284  0.00  0.00    +0.000 A 
ATOM     33  O   UNL     1      46.009   5.687   8.857  0.00  0.00    +0.000 OA
ATOM     34  C   UNL     1      44.753   4.655  10.578  0.00  0.00    +0.000 A 
ATOM     35  H   UNL     1      45.739   3.571   7.634  0.00  0.00    +0.000 HD
ENDBRANCH  22  25
ENDBRANCH  20  21
ENDBRANCH   4  20
TORSDOF 7
ENDMDL
