MODEL 1
REMARK VINA RESULT:    -8.741      0.000      0.000
REMARK INTER + INTRA:         -11.869
REMARK INTER:                 -11.296
REMARK INTRA:                  -0.572
REMARK UNBOUND:                -0.572
REMARK  Name = 
REMARK  6 active torsions:
REMARK  status: ('A' for Active; 'I' for Inactive)
REMARK    1  A    between atoms: C_1  and  C_2
REMARK    2  A    between atoms: C_2  and  N_3
REMARK    3  A    between atoms: C_2  and  C_16
REMARK    4  A    between atoms: C_4  and  C_6
REMARK    5  A    between atoms: C_19  and  O_20
REMARK    6  A    between atoms: O_20  and  C_21
REMARK                            x       y       z     vdW  Elec       q    Type
REMARK                         _______ _______ _______ _____ _____    ______ ____
ROOT
ATOM      1  C   UNL     1      43.008   5.496  13.327  0.00  0.00    +0.000 C 
ATOM      2  C   UNL     1      44.264   4.657  13.058  0.00  0.00    +0.000 C 
ENDROOT
BRANCH   2   3
ATOM      3  C   UNL     1      44.567   4.465  11.583  0.00  0.00    +0.000 A 
ATOM      4  C   UNL     1      44.037   3.347  10.923  0.00  0.00    +0.000 A 
ATOM      5  C   UNL     1      44.237   3.164   9.556  0.00  0.00    +0.000 A 
ATOM      6  C   UNL     1      44.942   4.115   8.818  0.00  0.00    +0.000 A 
ATOM      7  C   UNL     1      45.556   5.179   9.474  0.00  0.00    +0.000 A 
ATOM      8  C   UNL     1      45.379   5.346  10.851  0.00  0.00    +0.000 A 
BRANCH   6   9
ATOM      9  O   UNL     1      45.133   4.031   7.457  0.00  0.00    +0.000 OA
BRANCH   9  10
ATOM     10  C   UNL     1      46.129   3.178   6.989  0.00  0.00    +0.000 A 
ATOM     11  C   UNL     1      46.677   3.495   5.757  0.00  0.00    +0.000 A 
ATOM     12  C   UNL     1      47.706   2.693   5.268  0.00  0.00    +0.000 A 
ATOM     13  C   UNL     1      48.140   1.606   6.019  0.00  0.00    +0.000 A 
ATOM     14  C   UNL     1      47.509   1.347   7.225  0.00  0.00    +0.000 A 
ATOM     15  N   UNL     1      46.504   2.100   7.718  0.00  0.00    +0.000 NA
ENDBRANCH   9  10
ENDBRANCH   6   9
ENDBRANCH   2   3
BRANCH   2  16
ATOM     16  N   UNL     1      45.412   5.252  13.710  0.00  0.00    +0.000 N 
ATOM     17  C   UNL     1      46.477   4.509  14.147  0.00  0.00    +0.000 C 
ATOM     18  O   UNL     1      46.633   3.332  13.841  0.00  0.00    +0.000 OA
ATOM     19  H   UNL     1      45.260   6.176  14.099  0.00  0.00    +0.000 HD
BRANCH  17  20
ATOM     20  C   UNL     1      47.432   5.207  15.008  0.00  0.00    +0.000 A 
ATOM     21  C   UNL     1      48.175   6.270  14.517  0.00  0.00    +0.000 A 
ATOM     22  S   UNL     1      49.287   6.900  15.647  0.00  0.00    +0.000 S 
ATOM     23  C   UNL     1      48.850   5.737  16.810  0.00  0.00    +0.000 A 
ATOM     24  N   UNL     1      49.498   5.656  18.004  0.00  0.00    +0.000 NA
ATOM     25  C   UNL     1      49.095   4.693  18.764  0.00  0.00    +0.000 A 
ATOM     26  N   UNL     1      48.082   3.824  18.454  0.00  0.00    +0.000 N 
ATOM     27  C   UNL     1      47.340   3.920  17.303  0.00  0.00    +0.000 A 
ATOM     28  O   UNL     1      46.346   3.228  17.124  0.00  0.00    +0.000 OA
ATOM     29  C   UNL     1      47.816   4.931  16.371  0.00  0.00    +0.000 A 
ATOM     30  H   UNL     1      47.777   3.126  19.119  0.00  0.00    +0.000 HD
ENDBRANCH  17  20
ENDBRANCH   2  16
TORSDOF 5
ENDMDL
MODEL 2
REMARK VINA RESULT:    -7.954      1.641      2.672
REMARK INTER + INTRA:         -10.852
REMARK INTER:                  -9.992
REMARK INTRA:                  -0.860
REMARK UNBOUND:                -0.572
REMARK  Name = 
REMARK  6 active torsions:
REMARK  status: ('A' for Active; 'I' for Inactive)
REMARK    1  A    between atoms: C_1  and  C_2
REMARK    2  A    between atoms: C_2  and  N_3
REMARK    3  A    between atoms: C_2  and  C_16
REMARK    4  A    between atoms: C_4  and  C_6
REMARK    5  A    between atoms: C_19  and  O_20
REMARK    6  A    between atoms: O_20  and  C_21
REMARK                            x       y       z     vdW  Elec       q    Type
REMARK                         _______ _______ _______ _____ _____    ______ ____
ROOT
ATOM      1  C   UNL     1      43.078   5.148  13.516  0.00  0.00    +0.000 C 
ATOM      2  C   UNL     1      44.370   4.403  13.160  0.00  0.00    +0.000 C 
ENDROOT
BRANCH   2   3
ATOM      3  C   UNL     1      44.582   4.226  11.667  0.00  0.00    +0.000 A 
ATOM      4  C   UNL     1      44.071   3.079  11.042  0.00  0.00    +0.000 A 
ATOM      5  C   UNL     1      44.188   2.904   9.664  0.00  0.00    +0.000 A 
ATOM      6  C   UNL     1      44.787   3.891   8.883  0.00  0.00    +0.000 A 
ATOM      7  C   UNL     1      45.385   4.988   9.497  0.00  0.00    +0.000 A 
ATOM      8  C   UNL     1      45.293   5.149  10.883  0.00  0.00    +0.000 A 
BRANCH   6   9
ATOM      9  O   UNL     1      44.889   3.814   7.512  0.00  0.00    +0.000 OA
BRANCH   9  10
ATOM     10  C   UNL     1      46.000   3.170   6.974  0.00  0.00    +0.000 A 
ATOM     11  C   UNL     1      46.444   2.046   7.652  0.00  0.00    +0.000 A 
ATOM     12  C   UNL     1      47.528   1.346   7.127  0.00  0.00    +0.000 A 
ATOM     13  C   UNL     1      48.130   1.796   5.957  0.00  0.00    +0.000 A 
ATOM     14  C   UNL     1      47.638   2.948   5.367  0.00  0.00    +0.000 A 
ATOM     15  N   UNL     1      46.597   3.652   5.858  0.00  0.00    +0.000 NA
ENDBRANCH   9  10
ENDBRANCH   6   9
ENDBRANCH   2   3
BRANCH   2  16
ATOM     16  N   UNL     1      45.513   5.085  13.728  0.00  0.00    +0.000 N 
ATOM     17  C   UNL     1      46.649   4.422  14.114  0.00  0.00    +0.000 C 
ATOM     18  O   UNL     1      46.863   3.250  13.822  0.00  0.00    +0.000 OA
ATOM     19  H   UNL     1      45.325   6.007  14.108  0.00  0.00    +0.000 HD
BRANCH  17  20
ATOM     20  C   UNL     1      47.606   5.199  14.902  0.00  0.00    +0.000 A 
ATOM     21  C   UNL     1      47.881   4.852  16.216  0.00  0.00    +0.000 A 
ATOM     22  S   UNL     1      48.959   5.924  16.990  0.00  0.00    +0.000 S 
ATOM     23  C   UNL     1      49.050   6.917  15.611  0.00  0.00    +0.000 A 
ATOM     24  N   UNL     1      49.753   8.082  15.626  0.00  0.00    +0.000 NA
ATOM     25  C   UNL     1      49.690   8.756  14.527  0.00  0.00    +0.000 A 
ATOM     26  N   UNL     1      49.016   8.357  13.402  0.00  0.00    +0.000 N 
ATOM     27  C   UNL     1      48.368   7.150  13.308  0.00  0.00    +0.000 A 
ATOM     28  O   UNL     1      47.907   6.755  12.245  0.00  0.00    +0.000 OA
ATOM     29  C   UNL     1      48.332   6.395  14.551  0.00  0.00    +0.000 A 
ATOM     30  H   UNL     1      49.053   8.907  12.555  0.00  0.00    +0.000 HD
ENDBRANCH  17  20
ENDBRANCH   2  16
TORSDOF 5
ENDMDL
MODEL 3
REMARK VINA RESULT:    -7.888      2.269      3.277
REMARK INTER + INTRA:         -10.766
REMARK INTER:                  -9.573
REMARK INTRA:                  -1.193
REMARK UNBOUND:                -0.572
REMARK  Name = 
REMARK  6 active torsions:
REMARK  status: ('A' for Active; 'I' for Inactive)
REMARK    1  A    between atoms: C_1  and  C_2
REMARK    2  A    between atoms: C_2  and  N_3
REMARK    3  A    between atoms: C_2  and  C_16
REMARK    4  A    between atoms: C_4  and  C_6
REMARK    5  A    between atoms: C_19  and  O_20
REMARK    6  A    between atoms: O_20  and  C_21
REMARK                            x       y       z     vdW  Elec       q    Type
REMARK                         _______ _______ _______ _____ _____    ______ ____
ROOT
ATOM      1  C   UNL     1      48.341   8.642  12.890  0.00  0.00    +0.000 C 
ATOM      2  C   UNL     1      47.371   7.775  13.701  0.00  0.00    +0.000 C 
ENDROOT
BRANCH   2   3
ATOM      3  C   UNL     1      46.472   6.899  12.848  0.00  0.00    +0.000 A 
ATOM      4  C   UNL     1      45.627   7.508  11.908  0.00  0.00    +0.000 A 
ATOM      5  C   UNL     1      44.831   6.740  11.060  0.00  0.00    +0.000 A 
ATOM      6  C   UNL     1      44.894   5.348  11.112  0.00  0.00    +0.000 A 
ATOM      7  C   UNL     1      45.653   4.729  12.101  0.00  0.00    +0.000 A 
ATOM      8  C   UNL     1      46.429   5.500  12.971  0.00  0.00    +0.000 A 
BRANCH   6   9
ATOM      9  O   UNL     1      44.180   4.525  10.270  0.00  0.00    +0.000 OA
BRANCH   9  10
ATOM     10  C   UNL     1      44.893   3.730   9.376  0.00  0.00    +0.000 A 
ATOM     11  C   UNL     1      45.604   4.399   8.393  0.00  0.00    +0.000 A 
ATOM     12  C   UNL     1      46.364   3.645   7.502  0.00  0.00    +0.000 A 
ATOM     13  C   UNL     1      46.380   2.259   7.619  0.00  0.00    +0.000 A 
ATOM     14  C   UNL     1      45.611   1.676   8.613  0.00  0.00    +0.000 A 
ATOM     15  N   UNL     1      44.857   2.380   9.483  0.00  0.00    +0.000 NA
ENDBRANCH   9  10
ENDBRANCH   6   9
ENDBRANCH   2   3
BRANCH   2  16
ATOM     16  N   UNL     1      48.102   6.944  14.634  0.00  0.00    +0.000 N 
ATOM     17  C   UNL     1      48.635   7.436  15.797  0.00  0.00    +0.000 C 
ATOM     18  O   UNL     1      48.362   8.549  16.232  0.00  0.00    +0.000 OA
ATOM     19  H   UNL     1      48.464   6.076  14.252  0.00  0.00    +0.000 HD
BRANCH  17  20
ATOM     20  C   UNL     1      49.559   6.546  16.502  0.00  0.00    +0.000 A 
ATOM     21  C   UNL     1      50.820   6.992  16.870  0.00  0.00    +0.000 A 
ATOM     22  S   UNL     1      51.776   5.787  17.610  0.00  0.00    +0.000 S 
ATOM     23  C   UNL     1      50.555   4.618  17.412  0.00  0.00    +0.000 A 
ATOM     24  N   UNL     1      50.760   3.319  17.761  0.00  0.00    +0.000 NA
ATOM     25  C   UNL     1      49.765   2.536  17.506  0.00  0.00    +0.000 A 
ATOM     26  N   UNL     1      48.572   2.938  16.966  0.00  0.00    +0.000 N 
ATOM     27  C   UNL     1      48.285   4.250  16.681  0.00  0.00    +0.000 A 
ATOM     28  O   UNL     1      47.161   4.599  16.343  0.00  0.00    +0.000 OA
ATOM     29  C   UNL     1      49.406   5.158  16.863  0.00  0.00    +0.000 A 
ATOM     30  H   UNL     1      47.812   2.282  16.843  0.00  0.00    +0.000 HD
ENDBRANCH  17  20
ENDBRANCH   2  16
TORSDOF 5
ENDMDL
MODEL 4
REMARK VINA RESULT:    -7.645      3.953      8.863
REMARK INTER + INTRA:         -10.453
REMARK INTER:                  -9.524
REMARK INTRA:                  -0.929
REMARK UNBOUND:                -0.572
REMARK  Name = 
REMARK  6 active torsions:
REMARK  status: ('A' for Active; 'I' for Inactive)
REMARK    1  A    between atoms: C_1  and  C_2
REMARK    2  A    between atoms: C_2  and  N_3
REMARK    3  A    between atoms: C_2  and  C_16
REMARK    4  A    between atoms: C_4  and  C_6
REMARK    5  A    between atoms: C_19  and  O_20
REMARK    6  A    between atoms: O_20  and  C_21
REMARK                            x       y       z     vdW  Elec       q    Type
REMARK                         _______ _______ _______ _____ _____    ______ ____
ROOT
ATOM      1  C   UNL     1      47.918   6.047  18.185  0.00  0.00    +0.000 C 
ATOM      2  C   UNL     1      48.739   5.674  16.945  0.00  0.00    +0.000 C 
ENDROOT
BRANCH   2   3
ATOM      3  C   UNL     1      49.523   4.383  17.096  0.00  0.00    +0.000 A 
ATOM      4  C   UNL     1      50.856   4.447  17.528  0.00  0.00    +0.000 A 
ATOM      5  C   UNL     1      51.595   3.285  17.741  0.00  0.00    +0.000 A 
ATOM      6  C   UNL     1      51.002   2.036  17.559  0.00  0.00    +0.000 A 
ATOM      7  C   UNL     1      49.712   1.955  17.039  0.00  0.00    +0.000 A 
ATOM      8  C   UNL     1      48.982   3.122  16.798  0.00  0.00    +0.000 A 
BRANCH   6   9
ATOM      9  O   UNL     1      51.650   0.846  17.802  0.00  0.00    +0.000 OA
BRANCH   9  10
ATOM     10  C   UNL     1      53.041   0.853  17.831  0.00  0.00    +0.000 A 
ATOM     11  C   UNL     1      53.680   0.333  16.718  0.00  0.00    +0.000 A 
ATOM     12  C   UNL     1      55.073   0.358  16.686  0.00  0.00    +0.000 A 
ATOM     13  C   UNL     1      55.772   0.891  17.763  0.00  0.00    +0.000 A 
ATOM     14  C   UNL     1      55.048   1.359  18.848  0.00  0.00    +0.000 A 
ATOM     15  N   UNL     1      53.700   1.338  18.911  0.00  0.00    +0.000 NA
ENDBRANCH   9  10
ENDBRANCH   6   9
ENDBRANCH   2   3
BRANCH   2  16
ATOM     16  N   UNL     1      47.878   5.578  15.785  0.00  0.00    +0.000 N 
ATOM     17  C   UNL     1      48.180   6.180  14.592  0.00  0.00    +0.000 C 
ATOM     18  O   UNL     1      49.281   6.665  14.355  0.00  0.00    +0.000 OA
ATOM     19  H   UNL     1      46.917   5.315  15.978  0.00  0.00    +0.000 HD
BRANCH  17  20
ATOM     20  C   UNL     1      47.102   6.212  13.602  0.00  0.00    +0.000 A 
ATOM     21  C   UNL     1      46.648   7.421  13.097  0.00  0.00    +0.000 A 
ATOM     22  S   UNL     1      45.338   7.256  12.017  0.00  0.00    +0.000 S 
ATOM     23  C   UNL     1      45.299   5.568  12.234  0.00  0.00    +0.000 A 
ATOM     24  N   UNL     1      44.337   4.804  11.650  0.00  0.00    +0.000 NA
ATOM     25  C   UNL     1      44.401   3.549  11.945  0.00  0.00    +0.000 A 
ATOM     26  N   UNL     1      45.360   2.982  12.743  0.00  0.00    +0.000 N 
ATOM     27  C   UNL     1      46.402   3.695  13.282  0.00  0.00    +0.000 A 
ATOM     28  O   UNL     1      47.325   3.138  13.863  0.00  0.00    +0.000 OA
ATOM     29  C   UNL     1      46.322   5.130  13.055  0.00  0.00    +0.000 A 
ATOM     30  H   UNL     1      45.386   1.982  12.890  0.00  0.00    +0.000 HD
ENDBRANCH  17  20
ENDBRANCH   2  16
TORSDOF 5
ENDMDL
MODEL 5
REMARK VINA RESULT:    -7.364      2.678      3.881
REMARK INTER + INTRA:         -10.089
REMARK INTER:                  -9.005
REMARK INTRA:                  -1.084
REMARK UNBOUND:                -0.572
REMARK  Name = 
REMARK  6 active torsions:
REMARK  status: ('A' for Active; 'I' for Inactive)
REMARK    1  A    between atoms: C_1  and  C_2
REMARK    2  A    between atoms: C_2  and  N_3
REMARK    3  A    between atoms: C_2  and  C_16
REMARK    4  A    between atoms: C_4  and  C_6
REMARK    5  A    between atoms: C_19  and  O_20
REMARK    6  A    between atoms: O_20  and  C_21
REMARK                            x       y       z     vdW  Elec       q    Type
REMARK                         _______ _______ _______ _____ _____    ______ ____
ROOT
ATOM      1  C   UNL     1      49.514   7.417  13.350  0.00  0.00    +0.000 C 
ATOM      2  C   UNL     1      48.091   7.859  13.711  0.00  0.00    +0.000 C 
ENDROOT
BRANCH   2   3
ATOM      3  C   UNL     1      47.008   7.105  12.963  0.00  0.00    +0.000 A 
ATOM      4  C   UNL     1      46.146   7.819  12.117  0.00  0.00    +0.000 A 
ATOM      5  C   UNL     1      45.177   7.160  11.363  0.00  0.00    +0.000 A 
ATOM      6  C   UNL     1      45.077   5.770  11.414  0.00  0.00    +0.000 A 
ATOM      7  C   UNL     1      45.858   5.055  12.318  0.00  0.00    +0.000 A 
ATOM      8  C   UNL     1      46.810   5.721  13.096  0.00  0.00    +0.000 A 
BRANCH   6   9
ATOM      9  O   UNL     1      44.183   5.046  10.657  0.00  0.00    +0.000 OA
BRANCH   9  10
ATOM     10  C   UNL     1      44.694   4.109   9.763  0.00  0.00    +0.000 A 
ATOM     11  C   UNL     1      45.470   4.608   8.729  0.00  0.00    +0.000 A 
ATOM     12  C   UNL     1      46.036   3.703   7.834  0.00  0.00    +0.000 A 
ATOM     13  C   UNL     1      45.801   2.342   7.998  0.00  0.00    +0.000 A 
ATOM     14  C   UNL     1      44.984   1.939   9.042  0.00  0.00    +0.000 A 
ATOM     15  N   UNL     1      44.415   2.793   9.918  0.00  0.00    +0.000 NA
ENDBRANCH   9  10
ENDBRANCH   6   9
ENDBRANCH   2   3
BRANCH   2  16
ATOM     16  N   UNL     1      47.872   7.723  15.136  0.00  0.00    +0.000 N 
ATOM     17  C   UNL     1      48.490   8.528  16.056  0.00  0.00    +0.000 C 
ATOM     18  O   UNL     1      49.106   9.542  15.742  0.00  0.00    +0.000 OA
ATOM     19  H   UNL     1      47.494   6.830  15.434  0.00  0.00    +0.000 HD
BRANCH  17  20
ATOM     20  C   UNL     1      48.374   8.108  17.453  0.00  0.00    +0.000 A 
ATOM     21  C   UNL     1      48.008   9.020  18.433  0.00  0.00    +0.000 A 
ATOM     22  S   UNL     1      48.004   8.359  20.006  0.00  0.00    +0.000 S 
ATOM     23  C   UNL     1      48.544   6.850  19.434  0.00  0.00    +0.000 A 
ATOM     24  N   UNL     1      48.836   5.834  20.292  0.00  0.00    +0.000 NA
ATOM     25  C   UNL     1      49.284   4.767  19.720  0.00  0.00    +0.000 A 
ATOM     26  N   UNL     1      49.436   4.609  18.368  0.00  0.00    +0.000 N 
ATOM     27  C   UNL     1      49.072   5.570  17.457  0.00  0.00    +0.000 A 
ATOM     28  O   UNL     1      49.077   5.345  16.254  0.00  0.00    +0.000 OA
ATOM     29  C   UNL     1      48.649   6.827  18.056  0.00  0.00    +0.000 A 
ATOM     30  H   UNL     1      49.740   3.726  17.981  0.00  0.00    +0.000 HD
ENDBRANCH  17  20
ENDBRANCH   2  16
TORSDOF 5
ENDMDL
MODEL 6
REMARK VINA RESULT:    -7.282      2.853      3.917
REMARK INTER + INTRA:          -9.983
REMARK INTER:                  -8.956
REMARK INTRA:                  -1.027
REMARK UNBOUND:                -0.572
REMARK  Name = 
REMARK  6 active torsions:
REMARK  status: ('A' for Active; 'I' for Inactive)
REMARK    1  A    between atoms: C_1  and  C_2
REMARK    2  A    between atoms: C_2  and  N_3
REMARK    3  A    between atoms: C_2  and  C_16
REMARK    4  A    between atoms: C_4  and  C_6
REMARK    5  A    between atoms: C_19  and  O_20
REMARK    6  A    between atoms: O_20  and  C_21
REMARK                            x       y       z     vdW  Elec       q    Type
REMARK                         _______ _______ _______ _____ _____    ______ ____
ROOT
ATOM      1  C   UNL     1      47.301   4.019  16.340  0.00  0.00    +0.000 C 
ATOM      2  C   UNL     1      47.777   4.903  15.183  0.00  0.00    +0.000 C 
ENDROOT
BRANCH   2   3
ATOM      3  C   UNL     1      46.887   4.837  13.955  0.00  0.00    +0.000 A 
ATOM      4  C   UNL     1      46.776   5.970  13.136  0.00  0.00    +0.000 A 
ATOM      5  C   UNL     1      46.021   5.935  11.965  0.00  0.00    +0.000 A 
ATOM      6  C   UNL     1      45.391   4.753  11.575  0.00  0.00    +0.000 A 
ATOM      7  C   UNL     1      45.411   3.649  12.422  0.00  0.00    +0.000 A 
ATOM      8  C   UNL     1      46.146   3.694  13.611  0.00  0.00    +0.000 A 
BRANCH   6   9
ATOM      9  O   UNL     1      44.675   4.626  10.405  0.00  0.00    +0.000 OA
BRANCH   9  10
ATOM     10  C   UNL     1      45.294   4.002   9.326  0.00  0.00    +0.000 A 
ATOM     11  C   UNL     1      45.246   2.618   9.308  0.00  0.00    +0.000 A 
ATOM     12  C   UNL     1      45.816   1.953   8.224  0.00  0.00    +0.000 A 
ATOM     13  C   UNL     1      46.417   2.690   7.210  0.00  0.00    +0.000 A 
ATOM     14  C   UNL     1      46.446   4.070   7.330  0.00  0.00    +0.000 A 
ATOM     15  N   UNL     1      45.911   4.740   8.372  0.00  0.00    +0.000 NA
ENDBRANCH   9  10
ENDBRANCH   6   9
ENDBRANCH   2   3
BRANCH   2  16
ATOM     16  N   UNL     1      47.889   6.279  15.618  0.00  0.00    +0.000 N 
ATOM     17  C   UNL     1      49.072   6.822  16.045  0.00  0.00    +0.000 C 
ATOM     18  O   UNL     1      50.151   6.258  15.900  0.00  0.00    +0.000 OA
ATOM     19  H   UNL     1      47.016   6.724  15.882  0.00  0.00    +0.000 HD
BRANCH  17  20
ATOM     20  C   UNL     1      48.977   8.132  16.692  0.00  0.00    +0.000 A 
ATOM     21  C   UNL     1      49.541   9.252  16.098  0.00  0.00    +0.000 A 
ATOM     22  S   UNL     1      49.394  10.666  17.042  0.00  0.00    +0.000 S 
ATOM     23  C   UNL     1      48.623   9.815  18.298  0.00  0.00    +0.000 A 
ATOM     24  N   UNL     1      48.298  10.428  19.469  0.00  0.00    +0.000 NA
ATOM     25  C   UNL     1      47.766   9.648  20.349  0.00  0.00    +0.000 A 
ATOM     26  N   UNL     1      47.498   8.318  20.154  0.00  0.00    +0.000 N 
ATOM     27  C   UNL     1      47.724   7.676  18.962  0.00  0.00    +0.000 A 
ATOM     28  O   UNL     1      47.335   6.531  18.769  0.00  0.00    +0.000 OA
ATOM     29  C   UNL     1      48.409   8.489  17.968  0.00  0.00    +0.000 A 
ATOM     30  H   UNL     1      47.028   7.775  20.866  0.00  0.00    +0.000 HD
ENDBRANCH  17  20
ENDBRANCH   2  16
TORSDOF 5
ENDMDL
MODEL 7
REMARK VINA RESULT:    -7.131      3.991      8.659
REMARK INTER + INTRA:          -9.788
REMARK INTER:                  -8.732
REMARK INTRA:                  -1.056
REMARK UNBOUND:                -0.572
REMARK  Name = 
REMARK  6 active torsions:
REMARK  status: ('A' for Active; 'I' for Inactive)
REMARK    1  A    between atoms: C_1  and  C_2
REMARK    2  A    between atoms: C_2  and  N_3
REMARK    3  A    between atoms: C_2  and  C_16
REMARK    4  A    between atoms: C_4  and  C_6
REMARK    5  A    between atoms: C_19  and  O_20
REMARK    6  A    between atoms: O_20  and  C_21
REMARK                            x       y       z     vdW  Elec       q    Type
REMARK                         _______ _______ _______ _____ _____    ______ ____
ROOT
ATOM      1  C   UNL     1      48.380   9.191  16.059  0.00  0.00    +0.000 C 
ATOM      2  C   UNL     1      48.852   7.953  15.288  0.00  0.00    +0.000 C 
ENDROOT
BRANCH   2   3
ATOM      3  C   UNL     1      49.517   6.905  16.162  0.00  0.00    +0.000 A 
ATOM      4  C   UNL     1      50.915   6.787  16.134  0.00  0.00    +0.000 A 
ATOM      5  C   UNL     1      51.572   5.882  16.966  0.00  0.00    +0.000 A 
ATOM      6  C   UNL     1      50.845   5.103  17.866  0.00  0.00    +0.000 A 
ATOM      7  C   UNL     1      49.453   5.138  17.839  0.00  0.00    +0.000 A 
ATOM      8  C   UNL     1      48.793   6.026  16.984  0.00  0.00    +0.000 A 
BRANCH   6   9
ATOM      9  O   UNL     1      51.428   4.229  18.756  0.00  0.00    +0.000 OA
BRANCH   9  10
ATOM     10  C   UNL     1      52.073   3.108  18.242  0.00  0.00    +0.000 A 
ATOM     11  C   UNL     1      53.455   3.099  18.338  0.00  0.00    +0.000 A 
ATOM     12  C   UNL     1      54.140   1.978  17.874  0.00  0.00    +0.000 A 
ATOM     13  C   UNL     1      53.425   0.919  17.326  0.00  0.00    +0.000 A 
ATOM     14  C   UNL     1      52.047   1.031  17.242  0.00  0.00    +0.000 A 
ATOM     15  N   UNL     1      51.358   2.108  17.673  0.00  0.00    +0.000 NA
ENDBRANCH   9  10
ENDBRANCH   6   9
ENDBRANCH   2   3
BRANCH   2  16
ATOM     16  N   UNL     1      47.743   7.351  14.580  0.00  0.00    +0.000 N 
ATOM     17  C   UNL     1      47.897   6.708  13.380  0.00  0.00    +0.000 C 
ATOM     18  O   UNL     1      48.997   6.415  12.923  0.00  0.00    +0.000 OA
ATOM     19  H   UNL     1      46.823   7.688  14.846  0.00  0.00    +0.000 HD
BRANCH  17  20
ATOM     20  C   UNL     1      46.662   6.383  12.666  0.00  0.00    +0.000 A 
ATOM     21  C   UNL     1      45.929   7.380  12.039  0.00  0.00    +0.000 A 
ATOM     22  S   UNL     1      44.483   6.815  11.331  0.00  0.00    +0.000 S 
ATOM     23  C   UNL     1      44.763   5.231  11.887  0.00  0.00    +0.000 A 
ATOM     24  N   UNL     1      43.845   4.245  11.696  0.00  0.00    +0.000 NA
ATOM     25  C   UNL     1      44.169   3.109  12.217  0.00  0.00    +0.000 A 
ATOM     26  N   UNL     1      45.340   2.859  12.883  0.00  0.00    +0.000 N 
ATOM     27  C   UNL     1      46.335   3.795  13.023  0.00  0.00    +0.000 A 
ATOM     28  O   UNL     1      47.429   3.500  13.487  0.00  0.00    +0.000 OA
ATOM     29  C   UNL     1      45.980   5.119  12.535  0.00  0.00    +0.000 A 
ATOM     30  H   UNL     1      45.557   1.930  13.218  0.00  0.00    +0.000 HD
ENDBRANCH  17  20
ENDBRANCH   2  16
TORSDOF 5
ENDMDL
MODEL 8
REMARK VINA RESULT:    -7.095      3.165      4.665
REMARK INTER + INTRA:          -9.741
REMARK INTER:                  -8.916
REMARK INTRA:                  -0.825
REMARK UNBOUND:                -0.572
REMARK  Name = 
REMARK  6 active torsions:
REMARK  status: ('A' for Active; 'I' for Inactive)
REMARK    1  A    between atoms: C_1  and  C_2
REMARK    2  A    between atoms: C_2  and  N_3
REMARK    3  A    between atoms: C_2  and  C_16
REMARK    4  A    between atoms: C_4  and  C_6
REMARK    5  A    between atoms: C_19  and  O_20
REMARK    6  A    between atoms: O_20  and  C_21
REMARK                            x       y       z     vdW  Elec       q    Type
REMARK                         _______ _______ _______ _____ _____    ______ ____
ROOT
ATOM      1  C   UNL     1      47.456   3.532  16.302  0.00  0.00    +0.000 C 
ATOM      2  C   UNL     1      47.898   4.780  15.529  0.00  0.00    +0.000 C 
ENDROOT
BRANCH   2   3
ATOM      3  C   UNL     1      47.079   5.049  14.279  0.00  0.00    +0.000 A 
ATOM      4  C   UNL     1      47.532   6.015  13.368  0.00  0.00    +0.000 A 
ATOM      5  C   UNL     1      46.845   6.250  12.177  0.00  0.00    +0.000 A 
ATOM      6  C   UNL     1      45.714   5.498  11.862  0.00  0.00    +0.000 A 
ATOM      7  C   UNL     1      45.198   4.604  12.797  0.00  0.00    +0.000 A 
ATOM      8  C   UNL     1      45.870   4.390  14.004  0.00  0.00    +0.000 A 
BRANCH   6   9
ATOM      9  O   UNL     1      45.017   5.634  10.682  0.00  0.00    +0.000 OA
BRANCH   9  10
ATOM     10  C   UNL     1      45.284   4.729   9.658  0.00  0.00    +0.000 A 
ATOM     11  C   UNL     1      44.733   3.466   9.798  0.00  0.00    +0.000 A 
ATOM     12  C   UNL     1      44.939   2.541   8.777  0.00  0.00    +0.000 A 
ATOM     13  C   UNL     1      45.690   2.906   7.666  0.00  0.00    +0.000 A 
ATOM     14  C   UNL     1      46.229   4.182   7.629  0.00  0.00    +0.000 A 
ATOM     15  N   UNL     1      46.055   5.095   8.607  0.00  0.00    +0.000 NA
ENDBRANCH   9  10
ENDBRANCH   6   9
ENDBRANCH   2   3
BRANCH   2  16
ATOM     16  N   UNL     1      47.854   5.944  16.389  0.00  0.00    +0.000 N 
ATOM     17  C   UNL     1      48.768   6.156  17.387  0.00  0.00    +0.000 C 
ATOM     18  O   UNL     1      49.797   5.498  17.495  0.00  0.00    +0.000 OA
ATOM     19  H   UNL     1      46.961   6.424  16.425  0.00  0.00    +0.000 HD
BRANCH  17  20
ATOM     20  C   UNL     1      48.446   7.229  18.330  0.00  0.00    +0.000 A 
ATOM     21  C   UNL     1      48.221   6.943  19.669  0.00  0.00    +0.000 A 
ATOM     22  S   UNL     1      47.783   8.311  20.590  0.00  0.00    +0.000 S 
ATOM     23  C   UNL     1      47.825   9.318  19.218  0.00  0.00    +0.000 A 
ATOM     24  N   UNL     1      47.459  10.626  19.292  0.00  0.00    +0.000 NA
ATOM     25  C   UNL     1      47.491  11.253  18.164  0.00  0.00    +0.000 A 
ATOM     26  N   UNL     1      47.887  10.701  16.974  0.00  0.00    +0.000 N 
ATOM     27  C   UNL     1      48.349   9.413  16.865  0.00  0.00    +0.000 A 
ATOM     28  O   UNL     1      48.838   8.996  15.822  0.00  0.00    +0.000 OA
ATOM     29  C   UNL     1      48.245   8.636  18.090  0.00  0.00    +0.000 A 
ATOM     30  H   UNL     1      47.942  11.263  16.136  0.00  0.00    +0.000 HD
ENDBRANCH  17  20
ENDBRANCH   2  16
TORSDOF 5
ENDMDL
MODEL 9
REMARK VINA RESULT:    -7.062      2.532      3.736
REMARK INTER + INTRA:          -9.699
REMARK INTER:                  -8.767
REMARK INTRA:                  -0.931
REMARK UNBOUND:                -0.572
REMARK  Name = 
REMARK  6 active torsions:
REMARK  status: ('A' for Active; 'I' for Inactive)
REMARK    1  A    between atoms: C_1  and  C_2
REMARK    2  A    between atoms: C_2  and  N_3
REMARK    3  A    between atoms: C_2  and  C_16
REMARK    4  A    between atoms: C_4  and  C_6
REMARK    5  A    between atoms: C_19  and  O_20
REMARK    6  A    between atoms: O_20  and  C_21
REMARK                            x       y       z     vdW  Elec       q    Type
REMARK                         _______ _______ _______ _____ _____    ______ ____
ROOT
ATOM      1  C   UNL     1      48.965   8.755  13.271  0.00  0.00    +0.000 C 
ATOM      2  C   UNL     1      47.795   8.072  13.989  0.00  0.00    +0.000 C 
ENDROOT
BRANCH   2   3
ATOM      3  C   UNL     1      46.897   7.266  13.068  0.00  0.00    +0.000 A 
ATOM      4  C   UNL     1      46.917   5.866  13.157  0.00  0.00    +0.000 A 
ATOM      5  C   UNL     1      46.064   5.089  12.375  0.00  0.00    +0.000 A 
ATOM      6  C   UNL     1      45.152   5.700  11.516  0.00  0.00    +0.000 A 
ATOM      7  C   UNL     1      45.185   7.081  11.344  0.00  0.00    +0.000 A 
ATOM      8  C   UNL     1      46.060   7.859  12.108  0.00  0.00    +0.000 A 
BRANCH   6   9
ATOM      9  O   UNL     1      44.242   5.001  10.755  0.00  0.00    +0.000 OA
BRANCH   9  10
ATOM     10  C   UNL     1      44.732   4.084   9.829  0.00  0.00    +0.000 A 
ATOM     11  C   UNL     1      45.473   4.607   8.781  0.00  0.00    +0.000 A 
ATOM     12  C   UNL     1      46.017   3.722   7.854  0.00  0.00    +0.000 A 
ATOM     13  C   UNL     1      45.797   2.357   8.001  0.00  0.00    +0.000 A 
ATOM     14  C   UNL     1      45.015   1.929   9.061  0.00  0.00    +0.000 A 
ATOM     15  N   UNL     1      44.466   2.763   9.969  0.00  0.00    +0.000 NA
ENDBRANCH   9  10
ENDBRANCH   6   9
ENDBRANCH   2   3
BRANCH   2  16
ATOM     16  N   UNL     1      48.287   7.215  15.047  0.00  0.00    +0.000 N 
ATOM     17  C   UNL     1      48.732   7.707  16.246  0.00  0.00    +0.000 C 
ATOM     18  O   UNL     1      48.556   8.870  16.591  0.00  0.00    +0.000 OA
ATOM     19  H   UNL     1      48.575   6.287  14.755  0.00  0.00    +0.000 HD
BRANCH  17  20
ATOM     20  C   UNL     1      49.435   6.753  17.106  0.00  0.00    +0.000 A 
ATOM     21  C   UNL     1      50.637   6.194  16.699  0.00  0.00    +0.000 A 
ATOM     22  S   UNL     1      51.259   5.049  17.800  0.00  0.00    +0.000 S 
ATOM     23  C   UNL     1      49.914   5.223  18.829  0.00  0.00    +0.000 A 
ATOM     24  N   UNL     1      49.770   4.449  19.938  0.00  0.00    +0.000 NA
ATOM     25  C   UNL     1      48.677   4.655  20.593  0.00  0.00    +0.000 A 
ATOM     26  N   UNL     1      47.730   5.588  20.260  0.00  0.00    +0.000 N 
ATOM     27  C   UNL     1      47.872   6.453  19.203  0.00  0.00    +0.000 A 
ATOM     28  O   UNL     1      47.085   7.373  19.020  0.00  0.00    +0.000 OA
ATOM     29  C   UNL     1      49.043   6.198  18.378  0.00  0.00    +0.000 A 
ATOM     30  H   UNL     1      46.921   5.738  20.847  0.00  0.00    +0.000 HD
ENDBRANCH  17  20
ENDBRANCH   2  16
TORSDOF 5
ENDMDL
