MODEL 1
REMARK VINA RESULT:    -8.225      0.000      0.000
REMARK INTER + INTRA:         -12.944
REMARK INTER:                 -12.072
REMARK INTRA:                  -0.872
REMARK UNBOUND:                -0.872
REMARK  Name = 
REMARK  9 active torsions:
REMARK  status: ('A' for Active; 'I' for Inactive)
REMARK    1  A    between atoms: C_1  and  C_2
REMARK    2  A    between atoms: C_2  and  C_3
REMARK    3  A    between atoms: C_3  and  N_4
REMARK    4  A    between atoms: C_3  and  C_26
REMARK    5  A    between atoms: N_4  and  C_5
REMARK    6  A    between atoms: C_5  and  C_6
REMARK    7  A    between atoms: C_9  and  C_10
REMARK    8  A    between atoms: C_10  and  N_11
REMARK    9  A    between atoms: C_12  and  C_14
REMARK                            x       y       z     vdW  Elec       q    Type
REMARK                         _______ _______ _______ _____ _____    ______ ____
ROOT
ATOM      1  C   UNL     1      44.135   6.730  11.676  0.00  0.00    +0.000 A 
ATOM      2  C   UNL     1      44.431   8.057  11.363  0.00  0.00    +0.000 A 
ATOM      3  C   UNL     1      45.503   8.692  11.991  0.00  0.00    +0.000 A 
ATOM      4  C   UNL     1      46.262   7.977  12.916  0.00  0.00    +0.000 A 
ATOM      5  N   UNL     1      45.972   6.698  13.261  0.00  0.00    +0.000 NA
ATOM      6  C   UNL     1      44.925   6.109  12.639  0.00  0.00    +0.000 A 
ENDROOT
BRANCH   1   7
ATOM      7  C   UNL     1      43.031   5.977  10.982  0.00  0.00    +0.000 C 
BRANCH   7   8
ATOM      8  N   UNL     1      43.557   5.148   9.904  0.00  0.00    +0.000 NA
ATOM      9  H   UNL     1      44.179   5.724   9.332  0.00  0.00    +0.000 HD
BRANCH   8  10
ATOM     10  C   UNL     1      44.362   3.996  10.371  0.00  0.00    +0.000 C 
BRANCH  10  11
ATOM     11  C   UNL     1      45.226   3.482   9.215  0.00  0.00    +0.000 A 
ATOM     12  C   UNL     1      45.472   2.114   9.061  0.00  0.00    +0.000 A 
ATOM     13  C   UNL     1      46.245   1.679   7.989  0.00  0.00    +0.000 A 
ATOM     14  C   UNL     1      46.757   2.615   7.100  0.00  0.00    +0.000 A 
ATOM     15  C   UNL     1      46.473   3.951   7.324  0.00  0.00    +0.000 A 
ATOM     16  N   UNL     1      45.721   4.405   8.351  0.00  0.00    +0.000 NA
ENDBRANCH  10  11
BRANCH  10  18
ATOM     17  C   UNL     1      43.675   2.726  12.485  0.00  0.00    +0.000 C 
ATOM     18  C   UNL     1      43.519   2.845  10.972  0.00  0.00    +0.000 C 
ENDBRANCH  10  18
ENDBRANCH   8  10
ENDBRANCH   7   8
ENDBRANCH   1   7
BRANCH   4  19
ATOM     19  C   UNL     1      47.433   8.634  13.609  0.00  0.00    +0.000 C 
BRANCH  19  20
ATOM     20  N   UNL     1      47.787   7.927  14.819  0.00  0.00    +0.000 N 
ATOM     21  C   UNL     1      48.737   6.941  14.827  0.00  0.00    +0.000 C 
ATOM     22  O   UNL     1      49.383   6.651  13.824  0.00  0.00    +0.000 OA
ATOM     23  H   UNL     1      47.117   7.995  15.580  0.00  0.00    +0.000 HD
BRANCH  21  24
ATOM     24  C   UNL     1      49.008   6.297  16.118  0.00  0.00    +0.000 A 
ATOM     25  C   UNL     1      49.941   6.859  16.978  0.00  0.00    +0.000 A 
ATOM     26  S   UNL     1      50.106   6.022  18.453  0.00  0.00    +0.000 S 
ATOM     27  C   UNL     1      48.974   4.845  17.975  0.00  0.00    +0.000 A 
ATOM     28  N   UNL     1      48.666   3.800  18.788  0.00  0.00    +0.000 NA
ATOM     29  C   UNL     1      47.815   2.968  18.287  0.00  0.00    +0.000 A 
ATOM     30  N   UNL     1      47.241   3.091  17.050  0.00  0.00    +0.000 N 
ATOM     31  C   UNL     1      47.496   4.146  16.205  0.00  0.00    +0.000 A 
ATOM     32  O   UNL     1      46.930   4.251  15.125  0.00  0.00    +0.000 OA
ATOM     33  C   UNL     1      48.460   5.102  16.715  0.00  0.00    +0.000 A 
ATOM     34  H   UNL     1      46.572   2.410  16.718  0.00  0.00    +0.000 HD
ENDBRANCH  21  24
ENDBRANCH  19  20
ENDBRANCH   4  19
TORSDOF 8
ENDMDL
MODEL 2
REMARK VINA RESULT:    -7.809      2.734      3.462
REMARK INTER + INTRA:         -12.333
REMARK INTER:                 -11.413
REMARK INTRA:                  -0.920
REMARK UNBOUND:                -0.872
REMARK  Name = 
REMARK  9 active torsions:
REMARK  status: ('A' for Active; 'I' for Inactive)
REMARK    1  A    between atoms: C_1  and  C_2
REMARK    2  A    between atoms: C_2  and  C_3
REMARK    3  A    between atoms: C_3  and  N_4
REMARK    4  A    between atoms: C_3  and  C_26
REMARK    5  A    between atoms: N_4  and  C_5
REMARK    6  A    between atoms: C_5  and  C_6
REMARK    7  A    between atoms: C_9  and  C_10
REMARK    8  A    between atoms: C_10  and  N_11
REMARK    9  A    between atoms: C_12  and  C_14
REMARK                            x       y       z     vdW  Elec       q    Type
REMARK                         _______ _______ _______ _____ _____    ______ ____
ROOT
ATOM      1  C   UNL     1      46.389   4.027  13.170  0.00  0.00    +0.000 A 
ATOM      2  C   UNL     1      46.536   5.372  12.827  0.00  0.00    +0.000 A 
ATOM      3  C   UNL     1      47.271   6.220  13.657  0.00  0.00    +0.000 A 
ATOM      4  C   UNL     1      47.852   5.697  14.810  0.00  0.00    +0.000 A 
ATOM      5  N   UNL     1      47.694   4.402  15.181  0.00  0.00    +0.000 NA
ATOM      6  C   UNL     1      46.973   3.604  14.360  0.00  0.00    +0.000 A 
ENDROOT
BRANCH   1   7
ATOM      7  C   UNL     1      45.661   3.056  12.280  0.00  0.00    +0.000 C 
BRANCH   7   8
ATOM      8  N   UNL     1      44.221   3.113  12.505  0.00  0.00    +0.000 NA
ATOM      9  H   UNL     1      44.039   3.800  13.241  0.00  0.00    +0.000 HD
BRANCH   8  10
ATOM     10  C   UNL     1      43.445   3.548  11.322  0.00  0.00    +0.000 C 
BRANCH  10  11
ATOM     11  C   UNL     1      44.303   3.372  10.064  0.00  0.00    +0.000 A 
ATOM     12  C   UNL     1      44.866   4.480   9.424  0.00  0.00    +0.000 A 
ATOM     13  C   UNL     1      45.656   4.284   8.295  0.00  0.00    +0.000 A 
ATOM     14  C   UNL     1      45.862   2.992   7.830  0.00  0.00    +0.000 A 
ATOM     15  C   UNL     1      45.266   1.948   8.516  0.00  0.00    +0.000 A 
ATOM     16  N   UNL     1      44.499   2.105   9.618  0.00  0.00    +0.000 NA
ENDBRANCH  10  11
BRANCH  10  18
ATOM     17  C   UNL     1      42.828   5.502  12.856  0.00  0.00    +0.000 C 
ATOM     18  C   UNL     1      42.914   4.999  11.418  0.00  0.00    +0.000 C 
ENDBRANCH  10  18
ENDBRANCH   8  10
ENDBRANCH   7   8
ENDBRANCH   1   7
BRANCH   4  19
ATOM     19  C   UNL     1      48.659   6.587  15.726  0.00  0.00    +0.000 C 
BRANCH  19  20
ATOM     20  N   UNL     1      49.778   5.872  16.296  0.00  0.00    +0.000 N 
ATOM     21  C   UNL     1      49.729   5.338  17.556  0.00  0.00    +0.000 C 
ATOM     22  O   UNL     1      48.712   5.383  18.242  0.00  0.00    +0.000 OA
ATOM     23  H   UNL     1      50.675   6.027  15.843  0.00  0.00    +0.000 HD
BRANCH  21  24
ATOM     24  C   UNL     1      50.930   4.636  18.022  0.00  0.00    +0.000 A 
ATOM     25  C   UNL     1      51.889   5.333  18.747  0.00  0.00    +0.000 A 
ATOM     26  S   UNL     1      53.198   4.368  19.257  0.00  0.00    +0.000 S 
ATOM     27  C   UNL     1      52.558   2.995  18.484  0.00  0.00    +0.000 A 
ATOM     28  N   UNL     1      53.219   1.806  18.510  0.00  0.00    +0.000 NA
ATOM     29  C   UNL     1      52.635   0.858  17.857  0.00  0.00    +0.000 A 
ATOM     30  N   UNL     1      51.447   0.989  17.187  0.00  0.00    +0.000 N 
ATOM     31  C   UNL     1      50.726   2.161  17.158  0.00  0.00    +0.000 A 
ATOM     32  O   UNL     1      49.645   2.232  16.589  0.00  0.00    +0.000 OA
ATOM     33  C   UNL     1      51.350   3.264  17.863  0.00  0.00    +0.000 A 
ATOM     34  H   UNL     1      51.035   0.203  16.703  0.00  0.00    +0.000 HD
ENDBRANCH  21  24
ENDBRANCH  19  20
ENDBRANCH   4  19
TORSDOF 8
ENDMDL
MODEL 3
REMARK VINA RESULT:    -7.808      1.772      2.163
REMARK INTER + INTRA:         -12.331
REMARK INTER:                 -11.381
REMARK INTRA:                  -0.951
REMARK UNBOUND:                -0.872
REMARK  Name = 
REMARK  9 active torsions:
REMARK  status: ('A' for Active; 'I' for Inactive)
REMARK    1  A    between atoms: C_1  and  C_2
REMARK    2  A    between atoms: C_2  and  C_3
REMARK    3  A    between atoms: C_3  and  N_4
REMARK    4  A    between atoms: C_3  and  C_26
REMARK    5  A    between atoms: N_4  and  C_5
REMARK    6  A    between atoms: C_5  and  C_6
REMARK    7  A    between atoms: C_9  and  C_10
REMARK    8  A    between atoms: C_10  and  N_11
REMARK    9  A    between atoms: C_12  and  C_14
REMARK                            x       y       z     vdW  Elec       q    Type
REMARK                         _______ _______ _______ _____ _____    ______ ____
ROOT
ATOM      1  C   UNL     1      44.833   5.973  11.569  0.00  0.00    +0.000 A 
ATOM      2  C   UNL     1      45.956   6.486  10.920  0.00  0.00    +0.000 A 
ATOM      3  C   UNL     1      47.136   6.688  11.636  0.00  0.00    +0.000 A 
ATOM      4  C   UNL     1      47.167   6.361  12.991  0.00  0.00    +0.000 A 
ATOM      5  N   UNL     1      46.078   5.894  13.650  0.00  0.00    +0.000 NA
ATOM      6  C   UNL     1      44.946   5.711  12.931  0.00  0.00    +0.000 A 
ENDROOT
BRANCH   1   7
ATOM      7  C   UNL     1      43.555   5.676  10.830  0.00  0.00    +0.000 C 
BRANCH   7   8
ATOM      8  N   UNL     1      43.784   4.731   9.742  0.00  0.00    +0.000 NA
ATOM      9  H   UNL     1      44.306   5.213   9.006  0.00  0.00    +0.000 HD
BRANCH   8  10
ATOM     10  C   UNL     1      44.592   3.553  10.131  0.00  0.00    +0.000 C 
BRANCH  10  11
ATOM     11  C   UNL     1      45.430   3.098   8.930  0.00  0.00    +0.000 A 
ATOM     12  C   UNL     1      45.941   4.031   8.023  0.00  0.00    +0.000 A 
ATOM     13  C   UNL     1      46.714   3.586   6.954  0.00  0.00    +0.000 A 
ATOM     14  C   UNL     1      46.954   2.226   6.814  0.00  0.00    +0.000 A 
ATOM     15  C   UNL     1      46.408   1.365   7.751  0.00  0.00    +0.000 A 
ATOM     16  N   UNL     1      45.660   1.766   8.803  0.00  0.00    +0.000 NA
ENDBRANCH  10  11
BRANCH  10  18
ATOM     17  C   UNL     1      43.411   2.543  12.164  0.00  0.00    +0.000 C 
ATOM     18  C   UNL     1      43.757   2.376  10.688  0.00  0.00    +0.000 C 
ENDBRANCH  10  18
ENDBRANCH   8  10
ENDBRANCH   7   8
ENDBRANCH   1   7
BRANCH   4  19
ATOM     19  C   UNL     1      48.430   6.562  13.793  0.00  0.00    +0.000 C 
BRANCH  19  20
ATOM     20  N   UNL     1      48.132   6.776  15.191  0.00  0.00    +0.000 N 
ATOM     21  C   UNL     1      49.068   6.571  16.169  0.00  0.00    +0.000 C 
ATOM     22  O   UNL     1      50.225   6.256  15.907  0.00  0.00    +0.000 OA
ATOM     23  H   UNL     1      47.144   6.810  15.430  0.00  0.00    +0.000 HD
BRANCH  21  24
ATOM     24  C   UNL     1      48.643   6.822  17.552  0.00  0.00    +0.000 A 
ATOM     25  C   UNL     1      48.262   8.104  17.926  0.00  0.00    +0.000 A 
ATOM     26  S   UNL     1      47.751   8.222  19.547  0.00  0.00    +0.000 S 
ATOM     27  C   UNL     1      48.070   6.575  19.825  0.00  0.00    +0.000 A 
ATOM     28  N   UNL     1      47.869   6.021  21.051  0.00  0.00    +0.000 NA
ATOM     29  C   UNL     1      48.181   4.770  21.128  0.00  0.00    +0.000 A 
ATOM     30  N   UNL     1      48.669   4.023  20.088  0.00  0.00    +0.000 N 
ATOM     31  C   UNL     1      48.859   4.530  18.823  0.00  0.00    +0.000 A 
ATOM     32  O   UNL     1      49.252   3.823  17.904  0.00  0.00    +0.000 OA
ATOM     33  C   UNL     1      48.539   5.938  18.688  0.00  0.00    +0.000 A 
ATOM     34  H   UNL     1      48.884   3.043  20.209  0.00  0.00    +0.000 HD
ENDBRANCH  21  24
ENDBRANCH  19  20
ENDBRANCH   4  19
TORSDOF 8
ENDMDL
MODEL 4
REMARK VINA RESULT:    -7.604      2.288      2.987
REMARK INTER + INTRA:         -12.033
REMARK INTER:                 -10.926
REMARK INTRA:                  -1.107
REMARK UNBOUND:                -0.872
REMARK  Name = 
REMARK  9 active torsions:
REMARK  status: ('A' for Active; 'I' for Inactive)
REMARK    1  A    between atoms: C_1  and  C_2
REMARK    2  A    between atoms: C_2  and  C_3
REMARK    3  A    between atoms: C_3  and  N_4
REMARK    4  A    between atoms: C_3  and  C_26
REMARK    5  A    between atoms: N_4  and  C_5
REMARK    6  A    between atoms: C_5  and  C_6
REMARK    7  A    between atoms: C_9  and  C_10
REMARK    8  A    between atoms: C_10  and  N_11
REMARK    9  A    between atoms: C_12  and  C_14
REMARK                            x       y       z     vdW  Elec       q    Type
REMARK                         _______ _______ _______ _____ _____    ______ ____
ROOT
ATOM      1  C   UNL     1      44.852   5.922  11.746  0.00  0.00    +0.000 A 
ATOM      2  C   UNL     1      45.790   6.819  11.234  0.00  0.00    +0.000 A 
ATOM      3  C   UNL     1      46.950   7.095  11.958  0.00  0.00    +0.000 A 
ATOM      4  C   UNL     1      47.150   6.454  13.179  0.00  0.00    +0.000 A 
ATOM      5  N   UNL     1      46.238   5.605  13.713  0.00  0.00    +0.000 NA
ATOM      6  C   UNL     1      45.120   5.360  12.990  0.00  0.00    +0.000 A 
ENDROOT
BRANCH   1   7
ATOM      7  C   UNL     1      43.615   5.540  10.977  0.00  0.00    +0.000 C 
BRANCH   7   8
ATOM      8  N   UNL     1      43.950   4.729   9.812  0.00  0.00    +0.000 NA
ATOM      9  H   UNL     1      44.569   5.277   9.209  0.00  0.00    +0.000 HD
BRANCH   8  10
ATOM     10  C   UNL     1      44.675   3.480  10.138  0.00  0.00    +0.000 C 
BRANCH  10  11
ATOM     11  C   UNL     1      45.494   3.040   8.919  0.00  0.00    +0.000 A 
ATOM     12  C   UNL     1      45.901   3.971   7.959  0.00  0.00    +0.000 A 
ATOM     13  C   UNL     1      46.659   3.541   6.874  0.00  0.00    +0.000 A 
ATOM     14  C   UNL     1      46.989   2.196   6.770  0.00  0.00    +0.000 A 
ATOM     15  C   UNL     1      46.544   1.336   7.759  0.00  0.00    +0.000 A 
ATOM     16  N   UNL     1      45.812   1.723   8.828  0.00  0.00    +0.000 NA
ENDBRANCH  10  11
BRANCH  10  18
ATOM     17  C   UNL     1      43.507   2.369  12.126  0.00  0.00    +0.000 C 
ATOM     18  C   UNL     1      43.759   2.331  10.621  0.00  0.00    +0.000 C 
ENDBRANCH  10  18
ENDBRANCH   8  10
ENDBRANCH   7   8
ENDBRANCH   1   7
BRANCH   4  19
ATOM     19  C   UNL     1      48.399   6.727  13.985  0.00  0.00    +0.000 C 
BRANCH  19  20
ATOM     20  N   UNL     1      48.103   6.798  15.398  0.00  0.00    +0.000 N 
ATOM     21  C   UNL     1      49.021   6.440  16.348  0.00  0.00    +0.000 C 
ATOM     22  O   UNL     1      50.164   6.101  16.053  0.00  0.00    +0.000 OA
ATOM     23  H   UNL     1      47.116   6.852  15.638  0.00  0.00    +0.000 HD
BRANCH  21  24
ATOM     24  C   UNL     1      48.601   6.556  17.749  0.00  0.00    +0.000 A 
ATOM     25  C   UNL     1      48.608   5.427  18.558  0.00  0.00    +0.000 A 
ATOM     26  S   UNL     1      48.141   5.734  20.168  0.00  0.00    +0.000 S 
ATOM     27  C   UNL     1      47.861   7.378  19.831  0.00  0.00    +0.000 A 
ATOM     28  N   UNL     1      47.407   8.221  20.796  0.00  0.00    +0.000 NA
ATOM     29  C   UNL     1      47.210   9.433  20.394  0.00  0.00    +0.000 A 
ATOM     30  N   UNL     1      47.432   9.877  19.118  0.00  0.00    +0.000 N 
ATOM     31  C   UNL     1      47.921   9.069  18.116  0.00  0.00    +0.000 A 
ATOM     32  O   UNL     1      48.153   9.509  16.997  0.00  0.00    +0.000 OA
ATOM     33  C   UNL     1      48.143   7.692  18.512  0.00  0.00    +0.000 A 
ATOM     34  H   UNL     1      47.269  10.843  18.868  0.00  0.00    +0.000 HD
ENDBRANCH  21  24
ENDBRANCH  19  20
ENDBRANCH   4  19
TORSDOF 8
ENDMDL
MODEL 5
REMARK VINA RESULT:    -7.412      2.767      7.945
REMARK INTER + INTRA:         -11.750
REMARK INTER:                 -10.157
REMARK INTRA:                  -1.593
REMARK UNBOUND:                -0.872
REMARK  Name = 
REMARK  9 active torsions:
REMARK  status: ('A' for Active; 'I' for Inactive)
REMARK    1  A    between atoms: C_1  and  C_2
REMARK    2  A    between atoms: C_2  and  C_3
REMARK    3  A    between atoms: C_3  and  N_4
REMARK    4  A    between atoms: C_3  and  C_26
REMARK    5  A    between atoms: N_4  and  C_5
REMARK    6  A    between atoms: C_5  and  C_6
REMARK    7  A    between atoms: C_9  and  C_10
REMARK    8  A    between atoms: C_10  and  N_11
REMARK    9  A    between atoms: C_12  and  C_14
REMARK                            x       y       z     vdW  Elec       q    Type
REMARK                         _______ _______ _______ _____ _____    ______ ____
ROOT
ATOM      1  C   UNL     1      49.087   8.044  16.107  0.00  0.00    +0.000 A 
ATOM      2  C   UNL     1      48.264   9.027  15.555  0.00  0.00    +0.000 A 
ATOM      3  C   UNL     1      47.875   8.932  14.219  0.00  0.00    +0.000 A 
ATOM      4  C   UNL     1      48.312   7.845  13.465  0.00  0.00    +0.000 A 
ATOM      5  N   UNL     1      49.139   6.896  13.970  0.00  0.00    +0.000 NA
ATOM      6  C   UNL     1      49.504   7.016  15.268  0.00  0.00    +0.000 A 
ENDROOT
BRANCH   1   7
ATOM      7  C   UNL     1      49.484   8.064  17.559  0.00  0.00    +0.000 C 
BRANCH   7   8
ATOM      8  N   UNL     1      50.136   6.816  17.943  0.00  0.00    +0.000 NA
ATOM      9  H   UNL     1      50.940   7.044  18.532  0.00  0.00    +0.000 HD
BRANCH   8  10
ATOM     10  C   UNL     1      49.275   5.909  18.736  0.00  0.00    +0.000 C 
BRANCH  10  11
ATOM     11  C   UNL     1      49.164   4.561  18.014  0.00  0.00    +0.000 A 
ATOM     12  C   UNL     1      47.956   4.161  17.434  0.00  0.00    +0.000 A 
ATOM     13  C   UNL     1      47.893   2.939  16.770  0.00  0.00    +0.000 A 
ATOM     14  C   UNL     1      49.032   2.147  16.703  0.00  0.00    +0.000 A 
ATOM     15  C   UNL     1      50.188   2.612  17.307  0.00  0.00    +0.000 A 
ATOM     16  N   UNL     1      50.283   3.795  17.953  0.00  0.00    +0.000 NA
ENDBRANCH  10  11
BRANCH  10  18
ATOM     17  C   UNL     1      47.547   6.503  20.528  0.00  0.00    +0.000 C 
ATOM     18  C   UNL     1      47.869   6.481  19.037  0.00  0.00    +0.000 C 
ENDBRANCH  10  18
ENDBRANCH   8  10
ENDBRANCH   7   8
ENDBRANCH   1   7
BRANCH   4  19
ATOM     19  C   UNL     1      47.904   7.710  12.017  0.00  0.00    +0.000 C 
BRANCH  19  20
ATOM     20  N   UNL     1      47.137   6.503  11.801  0.00  0.00    +0.000 N 
ATOM     21  C   UNL     1      45.771   6.490  11.885  0.00  0.00    +0.000 C 
ATOM     22  O   UNL     1      45.122   7.513  12.083  0.00  0.00    +0.000 OA
ATOM     23  H   UNL     1      47.660   5.633  11.865  0.00  0.00    +0.000 HD
BRANCH  21  24
ATOM     24  C   UNL     1      45.107   5.203  11.646  0.00  0.00    +0.000 A 
ATOM     25  C   UNL     1      44.430   4.582  12.687  0.00  0.00    +0.000 A 
ATOM     26  S   UNL     1      43.673   3.123  12.239  0.00  0.00    +0.000 S 
ATOM     27  C   UNL     1      44.267   3.239  10.649  0.00  0.00    +0.000 A 
ATOM     28  N   UNL     1      44.002   2.272   9.731  0.00  0.00    +0.000 NA
ATOM     29  C   UNL     1      44.540   2.473   8.575  0.00  0.00    +0.000 A 
ATOM     30  N   UNL     1      45.313   3.557   8.252  0.00  0.00    +0.000 N 
ATOM     31  C   UNL     1      45.583   4.577   9.137  0.00  0.00    +0.000 A 
ATOM     32  O   UNL     1      46.239   5.555   8.802  0.00  0.00    +0.000 OA
ATOM     33  C   UNL     1      45.014   4.389  10.458  0.00  0.00    +0.000 A 
ATOM     34  H   UNL     1      45.698   3.663   7.324  0.00  0.00    +0.000 HD
ENDBRANCH  21  24
ENDBRANCH  19  20
ENDBRANCH   4  19
TORSDOF 8
ENDMDL
MODEL 6
REMARK VINA RESULT:    -7.132      1.455      1.740
REMARK INTER + INTRA:         -11.340
REMARK INTER:                 -10.108
REMARK INTRA:                  -1.232
REMARK UNBOUND:                -0.872
REMARK  Name = 
REMARK  9 active torsions:
REMARK  status: ('A' for Active; 'I' for Inactive)
REMARK    1  A    between atoms: C_1  and  C_2
REMARK    2  A    between atoms: C_2  and  C_3
REMARK    3  A    between atoms: C_3  and  N_4
REMARK    4  A    between atoms: C_3  and  C_26
REMARK    5  A    between atoms: N_4  and  C_5
REMARK    6  A    between atoms: C_5  and  C_6
REMARK    7  A    between atoms: C_9  and  C_10
REMARK    8  A    between atoms: C_10  and  N_11
REMARK    9  A    between atoms: C_12  and  C_14
REMARK                            x       y       z     vdW  Elec       q    Type
REMARK                         _______ _______ _______ _____ _____    ______ ____
ROOT
ATOM      1  C   UNL     1      45.476   6.977  11.950  0.00  0.00    +0.000 A 
ATOM      2  C   UNL     1      46.670   6.265  12.070  0.00  0.00    +0.000 A 
ATOM      3  C   UNL     1      47.770   6.861  12.687  0.00  0.00    +0.000 A 
ATOM      4  C   UNL     1      47.645   8.159  13.180  0.00  0.00    +0.000 A 
ATOM      5  N   UNL     1      46.506   8.882  13.044  0.00  0.00    +0.000 NA
ATOM      6  C   UNL     1      45.457   8.279  12.438  0.00  0.00    +0.000 A 
ENDROOT
BRANCH   1   7
ATOM      7  C   UNL     1      44.240   6.359  11.352  0.00  0.00    +0.000 C 
BRANCH   7   8
ATOM      8  N   UNL     1      44.563   5.592  10.153  0.00  0.00    +0.000 NA
ATOM      9  H   UNL     1      45.434   5.960   9.764  0.00  0.00    +0.000 HD
BRANCH   8  10
ATOM     10  C   UNL     1      44.789   4.151  10.405  0.00  0.00    +0.000 C 
BRANCH  10  11
ATOM     11  C   UNL     1      45.459   3.524   9.178  0.00  0.00    +0.000 A 
ATOM     12  C   UNL     1      45.588   2.135   9.068  0.00  0.00    +0.000 A 
ATOM     13  C   UNL     1      46.184   1.597   7.932  0.00  0.00    +0.000 A 
ATOM     14  C   UNL     1      46.641   2.452   6.938  0.00  0.00    +0.000 A 
ATOM     15  C   UNL     1      46.482   3.814   7.124  0.00  0.00    +0.000 A 
ATOM     16  N   UNL     1      45.902   4.368   8.212  0.00  0.00    +0.000 NA
ENDBRANCH  10  11
BRANCH  10  18
ATOM     17  C   UNL     1      43.540   2.832  12.208  0.00  0.00    +0.000 C 
ATOM     18  C   UNL     1      43.506   3.371  10.781  0.00  0.00    +0.000 C 
ENDBRANCH  10  18
ENDBRANCH   8  10
ENDBRANCH   7   8
ENDBRANCH   1   7
BRANCH   4  19
ATOM     19  C   UNL     1      48.816   8.830  13.858  0.00  0.00    +0.000 C 
BRANCH  19  20
ATOM     20  N   UNL     1      49.187   8.135  15.069  0.00  0.00    +0.000 N 
ATOM     21  C   UNL     1      48.700   8.505  16.293  0.00  0.00    +0.000 C 
ATOM     22  O   UNL     1      47.874   9.405  16.420  0.00  0.00    +0.000 OA
ATOM     23  H   UNL     1      50.022   7.558  15.006  0.00  0.00    +0.000 HD
BRANCH  21  24
ATOM     24  C   UNL     1      49.152   7.721  17.449  0.00  0.00    +0.000 A 
ATOM     25  C   UNL     1      49.720   8.374  18.536  0.00  0.00    +0.000 A 
ATOM     26  S   UNL     1      50.148   7.332  19.814  0.00  0.00    +0.000 S 
ATOM     27  C   UNL     1      49.639   5.963  18.941  0.00  0.00    +0.000 A 
ATOM     28  N   UNL     1      49.759   4.715  19.467  0.00  0.00    +0.000 NA
ATOM     29  C   UNL     1      49.362   3.767  18.685  0.00  0.00    +0.000 A 
ATOM     30  N   UNL     1      48.850   3.956  17.429  0.00  0.00    +0.000 N 
ATOM     31  C   UNL     1      48.680   5.201  16.866  0.00  0.00    +0.000 A 
ATOM     32  O   UNL     1      48.176   5.338  15.759  0.00  0.00    +0.000 OA
ATOM     33  C   UNL     1      49.128   6.300  17.700  0.00  0.00    +0.000 A 
ATOM     34  H   UNL     1      48.546   3.172  16.869  0.00  0.00    +0.000 HD
ENDBRANCH  21  24
ENDBRANCH  19  20
ENDBRANCH   4  19
TORSDOF 8
ENDMDL
MODEL 7
REMARK VINA RESULT:    -6.934      2.994      7.891
REMARK INTER + INTRA:         -11.048
REMARK INTER:                  -9.653
REMARK INTRA:                  -1.395
REMARK UNBOUND:                -0.872
REMARK  Name = 
REMARK  9 active torsions:
REMARK  status: ('A' for Active; 'I' for Inactive)
REMARK    1  A    between atoms: C_1  and  C_2
REMARK    2  A    between atoms: C_2  and  C_3
REMARK    3  A    between atoms: C_3  and  N_4
REMARK    4  A    between atoms: C_3  and  C_26
REMARK    5  A    between atoms: N_4  and  C_5
REMARK    6  A    between atoms: C_5  and  C_6
REMARK    7  A    between atoms: C_9  and  C_10
REMARK    8  A    between atoms: C_10  and  N_11
REMARK    9  A    between atoms: C_12  and  C_14
REMARK                            x       y       z     vdW  Elec       q    Type
REMARK                         _______ _______ _______ _____ _____    ______ ____
ROOT
ATOM      1  C   UNL     1      49.979   7.088  15.843  0.00  0.00    +0.000 A 
ATOM      2  C   UNL     1      48.809   6.453  15.425  0.00  0.00    +0.000 A 
ATOM      3  C   UNL     1      48.262   6.764  14.179  0.00  0.00    +0.000 A 
ATOM      4  C   UNL     1      48.909   7.699  13.374  0.00  0.00    +0.000 A 
ATOM      5  N   UNL     1      50.027   8.354  13.773  0.00  0.00    +0.000 NA
ATOM      6  C   UNL     1      50.532   8.035  14.988  0.00  0.00    +0.000 A 
ENDROOT
BRANCH   1   7
ATOM      7  C   UNL     1      50.646   6.744  17.148  0.00  0.00    +0.000 C 
BRANCH   7   8
ATOM      8  N   UNL     1      49.693   6.782  18.252  0.00  0.00    +0.000 NA
ATOM      9  H   UNL     1      48.750   6.832  17.858  0.00  0.00    +0.000 HD
BRANCH   8  10
ATOM     10  C   UNL     1      49.726   5.580  19.115  0.00  0.00    +0.000 C 
BRANCH  10  11
ATOM     11  C   UNL     1      49.408   4.343  18.269  0.00  0.00    +0.000 A 
ATOM     12  C   UNL     1      48.093   4.061  17.884  0.00  0.00    +0.000 A 
ATOM     13  C   UNL     1      47.840   2.940  17.099  0.00  0.00    +0.000 A 
ATOM     14  C   UNL     1      48.900   2.126  16.722  0.00  0.00    +0.000 A 
ATOM     15  C   UNL     1      50.172   2.469  17.148  0.00  0.00    +0.000 A 
ATOM     16  N   UNL     1      50.451   3.554  17.905  0.00  0.00    +0.000 NA
ENDBRANCH  10  11
BRANCH  10  18
ATOM     17  C   UNL     1      47.860   6.875  20.296  0.00  0.00    +0.000 C 
ATOM     18  C   UNL     1      48.781   5.659  20.338  0.00  0.00    +0.000 C 
ENDBRANCH  10  18
ENDBRANCH   8  10
ENDBRANCH   7   8
ENDBRANCH   1   7
BRANCH   4  19
ATOM     19  C   UNL     1      48.345   8.053  12.017  0.00  0.00    +0.000 C 
BRANCH  19  20
ATOM     20  N   UNL     1      47.616   6.942  11.449  0.00  0.00    +0.000 N 
ATOM     21  C   UNL     1      46.248   6.928  11.394  0.00  0.00    +0.000 C 
ATOM     22  O   UNL     1      45.572   7.884  11.766  0.00  0.00    +0.000 OA
ATOM     23  H   UNL     1      48.138   6.075  11.356  0.00  0.00    +0.000 HD
BRANCH  21  24
ATOM     24  C   UNL     1      45.623   5.743  10.795  0.00  0.00    +0.000 A 
ATOM     25  C   UNL     1      45.745   5.526   9.428  0.00  0.00    +0.000 A 
ATOM     26  S   UNL     1      45.008   4.086   8.894  0.00  0.00    +0.000 S 
ATOM     27  C   UNL     1      44.452   3.725  10.461  0.00  0.00    +0.000 A 
ATOM     28  N   UNL     1      43.709   2.612  10.700  0.00  0.00    +0.000 NA
ATOM     29  C   UNL     1      43.329   2.478  11.927  0.00  0.00    +0.000 A 
ATOM     30  N   UNL     1      43.631   3.353  12.937  0.00  0.00    +0.000 N 
ATOM     31  C   UNL     1      44.406   4.476  12.751  0.00  0.00    +0.000 A 
ATOM     32  O   UNL     1      44.698   5.212  13.684  0.00  0.00    +0.000 OA
ATOM     33  C   UNL     1      44.844   4.680  11.383  0.00  0.00    +0.000 A 
ATOM     34  H   UNL     1      43.313   3.187  13.881  0.00  0.00    +0.000 HD
ENDBRANCH  21  24
ENDBRANCH  19  20
ENDBRANCH   4  19
TORSDOF 8
ENDMDL
MODEL 8
REMARK VINA RESULT:    -6.919      3.209      5.473
REMARK INTER + INTRA:         -11.027
REMARK INTER:                 -10.033
REMARK INTRA:                  -0.994
REMARK UNBOUND:                -0.872
REMARK  Name = 
REMARK  9 active torsions:
REMARK  status: ('A' for Active; 'I' for Inactive)
REMARK    1  A    between atoms: C_1  and  C_2
REMARK    2  A    between atoms: C_2  and  C_3
REMARK    3  A    between atoms: C_3  and  N_4
REMARK    4  A    between atoms: C_3  and  C_26
REMARK    5  A    between atoms: N_4  and  C_5
REMARK    6  A    between atoms: C_5  and  C_6
REMARK    7  A    between atoms: C_9  and  C_10
REMARK    8  A    between atoms: C_10  and  N_11
REMARK    9  A    between atoms: C_12  and  C_14
REMARK                            x       y       z     vdW  Elec       q    Type
REMARK                         _______ _______ _______ _____ _____    ______ ____
ROOT
ATOM      1  C   UNL     1      47.861   6.297  14.099  0.00  0.00    +0.000 A 
ATOM      2  C   UNL     1      47.171   5.092  13.961  0.00  0.00    +0.000 A 
ATOM      3  C   UNL     1      47.202   4.157  14.996  0.00  0.00    +0.000 A 
ATOM      4  C   UNL     1      47.917   4.456  16.154  0.00  0.00    +0.000 A 
ATOM      5  N   UNL     1      48.623   5.605  16.296  0.00  0.00    +0.000 NA
ATOM      6  C   UNL     1      48.578   6.492  15.275  0.00  0.00    +0.000 A 
ENDROOT
BRANCH   1   7
ATOM      7  C   UNL     1      47.809   7.368  13.041  0.00  0.00    +0.000 C 
BRANCH   7   8
ATOM      8  N   UNL     1      46.875   7.011  11.978  0.00  0.00    +0.000 NA
ATOM      9  H   UNL     1      46.917   5.998  11.842  0.00  0.00    +0.000 HD
BRANCH   8  10
ATOM     10  C   UNL     1      45.464   7.338  12.285  0.00  0.00    +0.000 C 
BRANCH  10  11
ATOM     11  C   UNL     1      44.599   6.092  12.064  0.00  0.00    +0.000 A 
ATOM     12  C   UNL     1      44.656   5.388  10.857  0.00  0.00    +0.000 A 
ATOM     13  C   UNL     1      43.872   4.250  10.696  0.00  0.00    +0.000 A 
ATOM     14  C   UNL     1      43.048   3.844  11.737  0.00  0.00    +0.000 A 
ATOM     15  C   UNL     1      43.044   4.596  12.899  0.00  0.00    +0.000 A 
ATOM     16  N   UNL     1      43.798   5.702  13.089  0.00  0.00    +0.000 NA
ENDBRANCH  10  11
BRANCH  10  18
ATOM     17  C   UNL     1      45.057   9.864  12.214  0.00  0.00    +0.000 C 
ATOM     18  C   UNL     1      44.907   8.535  11.479  0.00  0.00    +0.000 C 
ENDBRANCH  10  18
ENDBRANCH   8  10
ENDBRANCH   7   8
ENDBRANCH   1   7
BRANCH   4  19
ATOM     19  C   UNL     1      47.965   3.467  17.295  0.00  0.00    +0.000 C 
BRANCH  19  20
ATOM     20  N   UNL     1      49.329   3.171  17.672  0.00  0.00    +0.000 N 
ATOM     21  C   UNL     1      50.088   2.262  16.985  0.00  0.00    +0.000 C 
ATOM     22  O   UNL     1      49.673   1.697  15.976  0.00  0.00    +0.000 OA
ATOM     23  H   UNL     1      49.595   3.449  18.613  0.00  0.00    +0.000 HD
BRANCH  21  24
ATOM     24  C   UNL     1      51.458   2.048  17.466  0.00  0.00    +0.000 A 
ATOM     25  C   UNL     1      51.910   0.752  17.682  0.00  0.00    +0.000 A 
ATOM     26  S   UNL     1      53.534   0.669  18.192  0.00  0.00    +0.000 S 
ATOM     27  C   UNL     1      53.677   2.364  18.194  0.00  0.00    +0.000 A 
ATOM     28  N   UNL     1      54.837   2.966  18.570  0.00  0.00    +0.000 NA
ATOM     29  C   UNL     1      54.796   4.257  18.553  0.00  0.00    +0.000 A 
ATOM     30  N   UNL     1      53.703   4.998  18.189  0.00  0.00    +0.000 N 
ATOM     31  C   UNL     1      52.519   4.434  17.772  0.00  0.00    +0.000 A 
ATOM     32  O   UNL     1      51.576   5.125  17.408  0.00  0.00    +0.000 OA
ATOM     33  C   UNL     1      52.508   2.984  17.789  0.00  0.00    +0.000 A 
ATOM     34  H   UNL     1      53.738   6.008  18.187  0.00  0.00    +0.000 HD
ENDBRANCH  21  24
ENDBRANCH  19  20
ENDBRANCH   4  19
TORSDOF 8
ENDMDL
MODEL 9
REMARK VINA RESULT:    -6.534      5.033      7.925
REMARK INTER + INTRA:         -10.462
REMARK INTER:                  -9.231
REMARK INTRA:                  -1.231
REMARK UNBOUND:                -0.872
REMARK  Name = 
REMARK  9 active torsions:
REMARK  status: ('A' for Active; 'I' for Inactive)
REMARK    1  A    between atoms: C_1  and  C_2
REMARK    2  A    between atoms: C_2  and  C_3
REMARK    3  A    between atoms: C_3  and  N_4
REMARK    4  A    between atoms: C_3  and  C_26
REMARK    5  A    between atoms: N_4  and  C_5
REMARK    6  A    between atoms: C_5  and  C_6
REMARK    7  A    between atoms: C_9  and  C_10
REMARK    8  A    between atoms: C_10  and  N_11
REMARK    9  A    between atoms: C_12  and  C_14
REMARK                            x       y       z     vdW  Elec       q    Type
REMARK                         _______ _______ _______ _____ _____    ______ ____
ROOT
ATOM      1  C   UNL     1      50.840   8.439  12.236  0.00  0.00    +0.000 A 
ATOM      2  C   UNL     1      50.026   7.750  11.335  0.00  0.00    +0.000 A 
ATOM      3  C   UNL     1      48.662   7.618  11.599  0.00  0.00    +0.000 A 
ATOM      4  C   UNL     1      48.141   8.189  12.758  0.00  0.00    +0.000 A 
ATOM      5  N   UNL     1      48.918   8.832  13.664  0.00  0.00    +0.000 NA
ATOM      6  C   UNL     1      50.237   8.942  13.384  0.00  0.00    +0.000 A 
ENDROOT
BRANCH   1   7
ATOM      7  C   UNL     1      52.304   8.666  11.969  0.00  0.00    +0.000 C 
BRANCH   7   8
ATOM      8  N   UNL     1      52.969   7.423  11.594  0.00  0.00    +0.000 NA
ATOM      9  H   UNL     1      52.286   6.825  11.123  0.00  0.00    +0.000 HD
BRANCH   8  10
ATOM     10  C   UNL     1      54.092   7.607  10.646  0.00  0.00    +0.000 C 
BRANCH  10  11
ATOM     11  C   UNL     1      53.800   6.826   9.360  0.00  0.00    +0.000 A 
ATOM     12  C   UNL     1      52.652   7.095   8.608  0.00  0.00    +0.000 A 
ATOM     13  C   UNL     1      52.425   6.381   7.435  0.00  0.00    +0.000 A 
ATOM     14  C   UNL     1      53.344   5.417   7.043  0.00  0.00    +0.000 A 
ATOM     15  C   UNL     1      54.453   5.206   7.844  0.00  0.00    +0.000 A 
ATOM     16  N   UNL     1      54.704   5.886   8.985  0.00  0.00    +0.000 NA
ENDBRANCH  10  11
BRANCH  10  18
ATOM     17  C   UNL     1      55.360   6.386  12.505  0.00  0.00    +0.000 C 
ATOM     18  C   UNL     1      55.471   7.206  11.223  0.00  0.00    +0.000 C 
ENDBRANCH  10  18
ENDBRANCH   8  10
ENDBRANCH   7   8
ENDBRANCH   1   7
BRANCH   4  19
ATOM     19  C   UNL     1      46.668   8.068  13.070  0.00  0.00    +0.000 C 
BRANCH  19  20
ATOM     20  N   UNL     1      46.166   6.759  12.717  0.00  0.00    +0.000 N 
ATOM     21  C   UNL     1      45.094   6.597  11.881  0.00  0.00    +0.000 C 
ATOM     22  O   UNL     1      44.544   7.550  11.336  0.00  0.00    +0.000 OA
ATOM     23  H   UNL     1      46.456   5.998  13.326  0.00  0.00    +0.000 HD
BRANCH  21  24
ATOM     24  C   UNL     1      44.678   5.218  11.600  0.00  0.00    +0.000 A 
ATOM     25  C   UNL     1      43.967   4.511  12.561  0.00  0.00    +0.000 A 
ATOM     26  S   UNL     1      43.517   2.944  12.066  0.00  0.00    +0.000 S 
ATOM     27  C   UNL     1      44.302   3.132  10.569  0.00  0.00    +0.000 A 
ATOM     28  N   UNL     1      44.321   2.122   9.658  0.00  0.00    +0.000 NA
ATOM     29  C   UNL     1      44.978   2.390   8.579  0.00  0.00    +0.000 A 
ATOM     30  N   UNL     1      45.610   3.579   8.327  0.00  0.00    +0.000 N 
ATOM     31  C   UNL     1      45.592   4.640   9.203  0.00  0.00    +0.000 A 
ATOM     32  O   UNL     1      46.127   5.706   8.926  0.00  0.00    +0.000 OA
ATOM     33  C   UNL     1      44.880   4.383  10.440  0.00  0.00    +0.000 A 
ATOM     34  H   UNL     1      46.100   3.732   7.456  0.00  0.00    +0.000 HD
ENDBRANCH  21  24
ENDBRANCH  19  20
ENDBRANCH   4  19
TORSDOF 8
ENDMDL
