MODEL 1
REMARK VINA RESULT:    -7.210      0.000      0.000
REMARK INTER + INTRA:         -10.039
REMARK INTER:                  -9.528
REMARK INTRA:                  -0.512
REMARK UNBOUND:                -0.512
REMARK  Name = 
REMARK  6 active torsions:
REMARK  status: ('A' for Active; 'I' for Inactive)
REMARK    1  A    between atoms: N_1  and  C_2
REMARK    2  A    between atoms: C_2  and  C_3
REMARK    3  A    between atoms: C_3  and  C_4
REMARK    4  A    between atoms: C_7  and  O_8
REMARK    5  A    between atoms: O_8  and  C_9
REMARK    6  A    between atoms: C_9  and  C_10
REMARK                            x       y       z     vdW  Elec       q    Type
REMARK                         _______ _______ _______ _____ _____    ______ ____
ROOT
ATOM      1  C   UNL     1      46.190   2.187   7.912  0.00  0.00    +0.000 A 
ATOM      2  C   UNL     1      45.240   1.648   8.788  0.00  0.00    +0.000 A 
ATOM      3  C   UNL     1      44.371   2.488   9.489  0.00  0.00    +0.000 A 
ATOM      4  C   UNL     1      44.448   3.872   9.326  0.00  0.00    +0.000 A 
ATOM      5  C   UNL     1      45.346   4.407   8.401  0.00  0.00    +0.000 A 
ATOM      6  C   UNL     1      46.218   3.571   7.707  0.00  0.00    +0.000 A 
ENDROOT
BRANCH   1   7
ATOM      7  C   UNL     1      47.163   1.303   7.174  0.00  0.00    +0.000 C 
BRANCH   7   8
ATOM      8  C   UNL     1      48.341   2.102   6.612  0.00  0.00    +0.000 C 
BRANCH   8   9
ATOM      9  N   UNL     1      48.386   2.007   5.154  0.00  0.00    +0.000 NA
ATOM     10  H   UNL     1      47.685   2.630   4.755  0.00  0.00    +0.000 HD
ATOM     11  H   UNL     1      48.127   1.065   4.865  0.00  0.00    +0.000 HD
ENDBRANCH   8   9
ENDBRANCH   7   8
ENDBRANCH   1   7
BRANCH   4  12
ATOM     12  O   UNL     1      43.611   4.616  10.116  0.00  0.00    +0.000 OA
BRANCH  12  13
ATOM     13  C   UNL     1      43.533   4.173  11.475  0.00  0.00    +0.000 C 
BRANCH  13  14
ATOM     14  C   UNL     1      44.801   4.468  12.225  0.00  0.00    +0.000 A 
ATOM     15  C   UNL     1      45.271   5.765  12.440  0.00  0.00    +0.000 A 
ATOM     16  C   UNL     1      46.408   5.967  13.215  0.00  0.00    +0.000 A 
ATOM     17  C   UNL     1      47.035   4.861  13.762  0.00  0.00    +0.000 A 
ATOM     18  N   UNL     1      46.605   3.592  13.592  0.00  0.00    +0.000 NA
ATOM     19  C   UNL     1      45.500   3.428  12.834  0.00  0.00    +0.000 A 
ENDBRANCH  13  14
ENDBRANCH  12  13
ENDBRANCH   4  12
TORSDOF 6
ENDMDL
MODEL 2
REMARK VINA RESULT:    -7.175      1.191      1.894
REMARK INTER + INTRA:          -9.993
REMARK INTER:                  -9.608
REMARK INTRA:                  -0.385
REMARK UNBOUND:                -0.512
REMARK  Name = 
REMARK  6 active torsions:
REMARK  status: ('A' for Active; 'I' for Inactive)
REMARK    1  A    between atoms: N_1  and  C_2
REMARK    2  A    between atoms: C_2  and  C_3
REMARK    3  A    between atoms: C_3  and  C_4
REMARK    4  A    between atoms: C_7  and  O_8
REMARK    5  A    between atoms: O_8  and  C_9
REMARK    6  A    between atoms: C_9  and  C_10
REMARK                            x       y       z     vdW  Elec       q    Type
REMARK                         _______ _______ _______ _____ _____    ______ ____
ROOT
ATOM      1  C   UNL     1      45.826   3.147   7.895  0.00  0.00    +0.000 A 
ATOM      2  C   UNL     1      45.367   4.387   8.356  0.00  0.00    +0.000 A 
ATOM      3  C   UNL     1      44.497   4.456   9.447  0.00  0.00    +0.000 A 
ATOM      4  C   UNL     1      44.072   3.288  10.081  0.00  0.00    +0.000 A 
ATOM      5  C   UNL     1      44.582   2.056   9.668  0.00  0.00    +0.000 A 
ATOM      6  C   UNL     1      45.445   1.986   8.576  0.00  0.00    +0.000 A 
ENDROOT
BRANCH   1   7
ATOM      7  C   UNL     1      46.734   3.047   6.697  0.00  0.00    +0.000 C 
BRANCH   7   8
ATOM      8  C   UNL     1      47.722   1.885   6.830  0.00  0.00    +0.000 C 
BRANCH   8   9
ATOM      9  N   UNL     1      48.583   1.796   5.653  0.00  0.00    +0.000 NA
ATOM     10  H   UNL     1      48.356   0.950   5.132  0.00  0.00    +0.000 HD
ATOM     11  H   UNL     1      49.554   1.697   5.947  0.00  0.00    +0.000 HD
ENDBRANCH   8   9
ENDBRANCH   7   8
ENDBRANCH   1   7
BRANCH   4  12
ATOM     12  O   UNL     1      43.156   3.451  11.088  0.00  0.00    +0.000 OA
BRANCH  12  13
ATOM     13  C   UNL     1      43.688   3.266  12.404  0.00  0.00    +0.000 C 
BRANCH  13  14
ATOM     14  C   UNL     1      44.670   4.346  12.759  0.00  0.00    +0.000 A 
ATOM     15  C   UNL     1      46.020   4.091  13.007  0.00  0.00    +0.000 A 
ATOM     16  C   UNL     1      46.889   5.151  13.249  0.00  0.00    +0.000 A 
ATOM     17  C   UNL     1      46.379   6.437  13.223  0.00  0.00    +0.000 A 
ATOM     18  N   UNL     1      45.084   6.728  12.972  0.00  0.00    +0.000 NA
ATOM     19  C   UNL     1      44.265   5.679  12.742  0.00  0.00    +0.000 A 
ENDBRANCH  13  14
ENDBRANCH  12  13
ENDBRANCH   4  12
TORSDOF 6
ENDMDL
MODEL 3
REMARK VINA RESULT:    -6.784      1.890      6.156
REMARK INTER + INTRA:          -9.477
REMARK INTER:                  -8.987
REMARK INTRA:                  -0.491
REMARK UNBOUND:                -0.512
REMARK  Name = 
REMARK  6 active torsions:
REMARK  status: ('A' for Active; 'I' for Inactive)
REMARK    1  A    between atoms: N_1  and  C_2
REMARK    2  A    between atoms: C_2  and  C_3
REMARK    3  A    between atoms: C_3  and  C_4
REMARK    4  A    between atoms: C_7  and  O_8
REMARK    5  A    between atoms: O_8  and  C_9
REMARK    6  A    between atoms: C_9  and  C_10
REMARK                            x       y       z     vdW  Elec       q    Type
REMARK                         _______ _______ _______ _____ _____    ______ ____
ROOT
ATOM      1  C   UNL     1      46.677   5.679  12.866  0.00  0.00    +0.000 A 
ATOM      2  C   UNL     1      46.316   6.220  11.626  0.00  0.00    +0.000 A 
ATOM      3  C   UNL     1      45.482   5.507  10.762  0.00  0.00    +0.000 A 
ATOM      4  C   UNL     1      45.006   4.246  11.125  0.00  0.00    +0.000 A 
ATOM      5  C   UNL     1      45.307   3.736  12.389  0.00  0.00    +0.000 A 
ATOM      6  C   UNL     1      46.145   4.443  13.249  0.00  0.00    +0.000 A 
ENDROOT
BRANCH   1   7
ATOM      7  C   UNL     1      47.606   6.413  13.798  0.00  0.00    +0.000 C 
BRANCH   7   8
ATOM      8  C   UNL     1      47.738   7.890  13.419  0.00  0.00    +0.000 C 
BRANCH   8   9
ATOM      9  N   UNL     1      47.060   8.740  14.396  0.00  0.00    +0.000 NA
ATOM     10  H   UNL     1      46.706   9.574  13.928  0.00  0.00    +0.000 HD
ATOM     11  H   UNL     1      47.732   9.067  15.089  0.00  0.00    +0.000 HD
ENDBRANCH   8   9
ENDBRANCH   7   8
ENDBRANCH   1   7
BRANCH   4  12
ATOM     12  O   UNL     1      44.262   3.590  10.179  0.00  0.00    +0.000 OA
BRANCH  12  13
ATOM     13  C   UNL     1      44.534   3.992   8.833  0.00  0.00    +0.000 C 
BRANCH  13  14
ATOM     14  C   UNL     1      45.525   3.074   8.173  0.00  0.00    +0.000 A 
ATOM     15  C   UNL     1      46.489   3.524   7.268  0.00  0.00    +0.000 A 
ATOM     16  C   UNL     1      47.426   2.631   6.760  0.00  0.00    +0.000 A 
ATOM     17  C   UNL     1      47.377   1.314   7.184  0.00  0.00    +0.000 A 
ATOM     18  N   UNL     1      46.472   0.842   8.068  0.00  0.00    +0.000 NA
ATOM     19  C   UNL     1      45.574   1.732   8.543  0.00  0.00    +0.000 A 
ENDBRANCH  13  14
ENDBRANCH  12  13
ENDBRANCH   4  12
TORSDOF 6
ENDMDL
MODEL 4
REMARK VINA RESULT:    -6.637      1.533      6.034
REMARK INTER + INTRA:          -9.282
REMARK INTER:                  -8.819
REMARK INTRA:                  -0.463
REMARK UNBOUND:                -0.512
REMARK  Name = 
REMARK  6 active torsions:
REMARK  status: ('A' for Active; 'I' for Inactive)
REMARK    1  A    between atoms: N_1  and  C_2
REMARK    2  A    between atoms: C_2  and  C_3
REMARK    3  A    between atoms: C_3  and  C_4
REMARK    4  A    between atoms: C_7  and  O_8
REMARK    5  A    between atoms: O_8  and  C_9
REMARK    6  A    between atoms: C_9  and  C_10
REMARK                            x       y       z     vdW  Elec       q    Type
REMARK                         _______ _______ _______ _____ _____    ______ ____
ROOT
ATOM      1  C   UNL     1      46.486   4.971  13.190  0.00  0.00    +0.000 A 
ATOM      2  C   UNL     1      46.017   3.655  13.092  0.00  0.00    +0.000 A 
ATOM      3  C   UNL     1      45.256   3.258  11.991  0.00  0.00    +0.000 A 
ATOM      4  C   UNL     1      44.950   4.173  10.982  0.00  0.00    +0.000 A 
ATOM      5  C   UNL     1      45.475   5.465  11.043  0.00  0.00    +0.000 A 
ATOM      6  C   UNL     1      46.229   5.864  12.144  0.00  0.00    +0.000 A 
ENDROOT
BRANCH   1   7
ATOM      7  C   UNL     1      47.277   5.432  14.388  0.00  0.00    +0.000 C 
BRANCH   7   8
ATOM      8  C   UNL     1      47.210   4.420  15.534  0.00  0.00    +0.000 C 
BRANCH   8   9
ATOM      9  N   UNL     1      48.481   4.365  16.255  0.00  0.00    +0.000 NA
ATOM     10  H   UNL     1      48.951   5.267  16.176  0.00  0.00    +0.000 HD
ATOM     11  H   UNL     1      49.095   3.684  15.813  0.00  0.00    +0.000 HD
ENDBRANCH   8   9
ENDBRANCH   7   8
ENDBRANCH   1   7
BRANCH   4  12
ATOM     12  O   UNL     1      44.130   3.713   9.984  0.00  0.00    +0.000 OA
BRANCH  12  13
ATOM     13  C   UNL     1      44.535   4.096   8.666  0.00  0.00    +0.000 C 
BRANCH  13  14
ATOM     14  C   UNL     1      45.521   3.121   8.086  0.00  0.00    +0.000 A 
ATOM     15  C   UNL     1      46.537   3.502   7.208  0.00  0.00    +0.000 A 
ATOM     16  C   UNL     1      47.465   2.559   6.776  0.00  0.00    +0.000 A 
ATOM     17  C   UNL     1      47.352   1.263   7.249  0.00  0.00    +0.000 A 
ATOM     18  N   UNL     1      46.395   0.857   8.110  0.00  0.00    +0.000 NA
ATOM     19  C   UNL     1      45.508   1.794   8.510  0.00  0.00    +0.000 A 
ENDBRANCH  13  14
ENDBRANCH  12  13
ENDBRANCH   4  12
TORSDOF 6
ENDMDL
MODEL 5
REMARK VINA RESULT:    -6.375      2.064      5.886
REMARK INTER + INTRA:          -8.936
REMARK INTER:                  -8.443
REMARK INTRA:                  -0.493
REMARK UNBOUND:                -0.512
REMARK  Name = 
REMARK  6 active torsions:
REMARK  status: ('A' for Active; 'I' for Inactive)
REMARK    1  A    between atoms: N_1  and  C_2
REMARK    2  A    between atoms: C_2  and  C_3
REMARK    3  A    between atoms: C_3  and  C_4
REMARK    4  A    between atoms: C_7  and  O_8
REMARK    5  A    between atoms: O_8  and  C_9
REMARK    6  A    between atoms: C_9  and  C_10
REMARK                            x       y       z     vdW  Elec       q    Type
REMARK                         _______ _______ _______ _____ _____    ______ ____
ROOT
ATOM      1  C   UNL     1      47.077   6.053  12.970  0.00  0.00    +0.000 A 
ATOM      2  C   UNL     1      46.503   4.843  13.381  0.00  0.00    +0.000 A 
ATOM      3  C   UNL     1      45.598   4.175  12.554  0.00  0.00    +0.000 A 
ATOM      4  C   UNL     1      45.252   4.712  11.312  0.00  0.00    +0.000 A 
ATOM      5  C   UNL     1      45.875   5.880  10.871  0.00  0.00    +0.000 A 
ATOM      6  C   UNL     1      46.773   6.551  11.698  0.00  0.00    +0.000 A 
ENDROOT
BRANCH   1   7
ATOM      7  C   UNL     1      48.027   6.810  13.862  0.00  0.00    +0.000 C 
BRANCH   7   8
ATOM      8  C   UNL     1      49.291   7.235  13.112  0.00  0.00    +0.000 C 
BRANCH   8   9
ATOM      9  N   UNL     1      50.412   7.402  14.034  0.00  0.00    +0.000 NA
ATOM     10  H   UNL     1      51.223   7.743  13.520  0.00  0.00    +0.000 HD
ATOM     11  H   UNL     1      50.679   6.495  14.416  0.00  0.00    +0.000 HD
ENDBRANCH   8   9
ENDBRANCH   7   8
ENDBRANCH   1   7
BRANCH   4  12
ATOM     12  O   UNL     1      44.296   4.027  10.608  0.00  0.00    +0.000 OA
BRANCH  12  13
ATOM     13  C   UNL     1      44.324   4.260   9.196  0.00  0.00    +0.000 C 
BRANCH  13  14
ATOM     14  C   UNL     1      45.240   3.296   8.496  0.00  0.00    +0.000 A 
ATOM     15  C   UNL     1      46.169   3.695   7.534  0.00  0.00    +0.000 A 
ATOM     16  C   UNL     1      47.041   2.759   6.988  0.00  0.00    +0.000 A 
ATOM     17  C   UNL     1      46.964   1.451   7.433  0.00  0.00    +0.000 A 
ATOM     18  N   UNL     1      46.092   1.027   8.372  0.00  0.00    +0.000 NA
ATOM     19  C   UNL     1      45.257   1.958   8.883  0.00  0.00    +0.000 A 
ENDBRANCH  13  14
ENDBRANCH  12  13
ENDBRANCH   4  12
TORSDOF 6
ENDMDL
MODEL 6
REMARK VINA RESULT:    -6.338      1.858      2.334
REMARK INTER + INTRA:          -8.888
REMARK INTER:                  -8.406
REMARK INTRA:                  -0.482
REMARK UNBOUND:                -0.512
REMARK  Name = 
REMARK  6 active torsions:
REMARK  status: ('A' for Active; 'I' for Inactive)
REMARK    1  A    between atoms: N_1  and  C_2
REMARK    2  A    between atoms: C_2  and  C_3
REMARK    3  A    between atoms: C_3  and  C_4
REMARK    4  A    between atoms: C_7  and  O_8
REMARK    5  A    between atoms: O_8  and  C_9
REMARK    6  A    between atoms: C_9  and  C_10
REMARK                            x       y       z     vdW  Elec       q    Type
REMARK                         _______ _______ _______ _____ _____    ______ ____
ROOT
ATOM      1  C   UNL     1      46.107   2.406   7.898  0.00  0.00    +0.000 A 
ATOM      2  C   UNL     1      45.244   1.874   8.865  0.00  0.00    +0.000 A 
ATOM      3  C   UNL     1      44.586   2.717   9.763  0.00  0.00    +0.000 A 
ATOM      4  C   UNL     1      44.789   4.097   9.708  0.00  0.00    +0.000 A 
ATOM      5  C   UNL     1      45.593   4.634   8.702  0.00  0.00    +0.000 A 
ATOM      6  C   UNL     1      46.256   3.794   7.810  0.00  0.00    +0.000 A 
ENDROOT
BRANCH   1   7
ATOM      7  C   UNL     1      46.857   1.512   6.944  0.00  0.00    +0.000 C 
BRANCH   7   8
ATOM      8  C   UNL     1      48.242   2.072   6.613  0.00  0.00    +0.000 C 
BRANCH   8   9
ATOM      9  N   UNL     1      48.406   2.237   5.170  0.00  0.00    +0.000 NA
ATOM     10  H   UNL     1      49.371   2.497   4.969  0.00  0.00    +0.000 HD
ATOM     11  H   UNL     1      47.828   3.013   4.848  0.00  0.00    +0.000 HD
ENDBRANCH   8   9
ENDBRANCH   7   8
ENDBRANCH   1   7
BRANCH   4  12
ATOM     12  O   UNL     1      44.165   4.834  10.681  0.00  0.00    +0.000 OA
BRANCH  12  13
ATOM     13  C   UNL     1      44.995   5.156  11.801  0.00  0.00    +0.000 C 
BRANCH  13  14
ATOM     14  C   UNL     1      45.174   6.641  11.946  0.00  0.00    +0.000 A 
ATOM     15  C   UNL     1      44.471   7.568  11.176  0.00  0.00    +0.000 A 
ATOM     16  C   UNL     1      44.626   8.929  11.423  0.00  0.00    +0.000 A 
ATOM     17  C   UNL     1      45.475   9.318  12.445  0.00  0.00    +0.000 A 
ATOM     18  N   UNL     1      46.161   8.454  13.223  0.00  0.00    +0.000 NA
ATOM     19  C   UNL     1      45.991   7.140  12.958  0.00  0.00    +0.000 A 
ENDBRANCH  13  14
ENDBRANCH  12  13
ENDBRANCH   4  12
TORSDOF 6
ENDMDL
MODEL 7
REMARK VINA RESULT:    -5.347      2.439      3.873
REMARK INTER + INTRA:          -7.578
REMARK INTER:                  -7.196
REMARK INTRA:                  -0.383
REMARK UNBOUND:                -0.512
REMARK  Name = 
REMARK  6 active torsions:
REMARK  status: ('A' for Active; 'I' for Inactive)
REMARK    1  A    between atoms: N_1  and  C_2
REMARK    2  A    between atoms: C_2  and  C_3
REMARK    3  A    between atoms: C_3  and  C_4
REMARK    4  A    between atoms: C_7  and  O_8
REMARK    5  A    between atoms: O_8  and  C_9
REMARK    6  A    between atoms: C_9  and  C_10
REMARK                            x       y       z     vdW  Elec       q    Type
REMARK                         _______ _______ _______ _____ _____    ______ ____
ROOT
ATOM      1  C   UNL     1      45.037   4.142   9.746  0.00  0.00    +0.000 A 
ATOM      2  C   UNL     1      45.582   5.410   9.982  0.00  0.00    +0.000 A 
ATOM      3  C   UNL     1      45.891   5.813  11.283  0.00  0.00    +0.000 A 
ATOM      4  C   UNL     1      45.653   4.956  12.360  0.00  0.00    +0.000 A 
ATOM      5  C   UNL     1      45.176   3.667  12.119  0.00  0.00    +0.000 A 
ATOM      6  C   UNL     1      44.861   3.267  10.823  0.00  0.00    +0.000 A 
ENDROOT
BRANCH   1   7
ATOM      7  C   UNL     1      44.660   3.701   8.355  0.00  0.00    +0.000 C 
BRANCH   7   8
ATOM      8  C   UNL     1      45.835   3.036   7.633  0.00  0.00    +0.000 C 
BRANCH   8   9
ATOM      9  N   UNL     1      46.608   4.022   6.881  0.00  0.00    +0.000 NA
ATOM     10  H   UNL     1      47.591   3.949   7.142  0.00  0.00    +0.000 HD
ATOM     11  H   UNL     1      46.313   4.961   7.144  0.00  0.00    +0.000 HD
ENDBRANCH   8   9
ENDBRANCH   7   8
ENDBRANCH   1   7
BRANCH   4  12
ATOM     12  O   UNL     1      45.912   5.470  13.603  0.00  0.00    +0.000 OA
BRANCH  12  13
ATOM     13  C   UNL     1      47.304   5.601  13.909  0.00  0.00    +0.000 C 
BRANCH  13  14
ATOM     14  C   UNL     1      47.631   5.021  15.256  0.00  0.00    +0.000 A 
ATOM     15  C   UNL     1      48.395   5.698  16.208  0.00  0.00    +0.000 A 
ATOM     16  C   UNL     1      48.588   5.135  17.465  0.00  0.00    +0.000 A 
ATOM     17  C   UNL     1      47.997   3.912  17.735  0.00  0.00    +0.000 A 
ATOM     18  N   UNL     1      47.238   3.233  16.849  0.00  0.00    +0.000 NA
ATOM     19  C   UNL     1      47.070   3.804  15.637  0.00  0.00    +0.000 A 
ENDBRANCH  13  14
ENDBRANCH  12  13
ENDBRANCH   4  12
TORSDOF 6
ENDMDL
MODEL 8
REMARK VINA RESULT:    -5.165      1.749      2.621
REMARK INTER + INTRA:          -7.338
REMARK INTER:                  -6.824
REMARK INTRA:                  -0.514
REMARK UNBOUND:                -0.512
REMARK  Name = 
REMARK  6 active torsions:
REMARK  status: ('A' for Active; 'I' for Inactive)
REMARK    1  A    between atoms: N_1  and  C_2
REMARK    2  A    between atoms: C_2  and  C_3
REMARK    3  A    between atoms: C_3  and  C_4
REMARK    4  A    between atoms: C_7  and  O_8
REMARK    5  A    between atoms: O_8  and  C_9
REMARK    6  A    between atoms: C_9  and  C_10
REMARK                            x       y       z     vdW  Elec       q    Type
REMARK                         _______ _______ _______ _____ _____    ______ ____
ROOT
ATOM      1  C   UNL     1      45.176   3.112   8.887  0.00  0.00    +0.000 A 
ATOM      2  C   UNL     1      45.668   4.407   8.678  0.00  0.00    +0.000 A 
ATOM      3  C   UNL     1      45.340   5.436   9.563  0.00  0.00    +0.000 A 
ATOM      4  C   UNL     1      44.513   5.185  10.659  0.00  0.00    +0.000 A 
ATOM      5  C   UNL     1      44.080   3.881  10.908  0.00  0.00    +0.000 A 
ATOM      6  C   UNL     1      44.400   2.855  10.022  0.00  0.00    +0.000 A 
ENDROOT
BRANCH   1   7
ATOM      7  C   UNL     1      45.485   1.994   7.924  0.00  0.00    +0.000 C 
BRANCH   7   8
ATOM      8  C   UNL     1      46.947   2.025   7.472  0.00  0.00    +0.000 C 
BRANCH   8   9
ATOM      9  N   UNL     1      47.047   2.377   6.057  0.00  0.00    +0.000 NA
ATOM     10  H   UNL     1      48.030   2.395   5.784  0.00  0.00    +0.000 HD
ATOM     11  H   UNL     1      46.695   3.323   5.915  0.00  0.00    +0.000 HD
ENDBRANCH   8   9
ENDBRANCH   7   8
ENDBRANCH   1   7
BRANCH   4  12
ATOM     12  O   UNL     1      44.182   6.273  11.423  0.00  0.00    +0.000 OA
BRANCH  12  13
ATOM     13  C   UNL     1      44.807   6.301  12.711  0.00  0.00    +0.000 C 
BRANCH  13  14
ATOM     14  C   UNL     1      46.255   6.690  12.613  0.00  0.00    +0.000 A 
ATOM     15  C   UNL     1      46.684   7.866  11.993  0.00  0.00    +0.000 A 
ATOM     16  C   UNL     1      48.034   8.202  12.013  0.00  0.00    +0.000 A 
ATOM     17  C   UNL     1      48.913   7.355  12.665  0.00  0.00    +0.000 A 
ATOM     18  N   UNL     1      48.537   6.218  13.290  0.00  0.00    +0.000 NA
ATOM     19  C   UNL     1      47.221   5.917  13.252  0.00  0.00    +0.000 A 
ENDBRANCH  13  14
ENDBRANCH  12  13
ENDBRANCH   4  12
TORSDOF 6
ENDMDL
MODEL 9
REMARK VINA RESULT:    -4.916      4.403      6.119
REMARK INTER + INTRA:          -7.008
REMARK INTER:                  -6.549
REMARK INTRA:                  -0.459
REMARK UNBOUND:                -0.512
REMARK  Name = 
REMARK  6 active torsions:
REMARK  status: ('A' for Active; 'I' for Inactive)
REMARK    1  A    between atoms: N_1  and  C_2
REMARK    2  A    between atoms: C_2  and  C_3
REMARK    3  A    between atoms: C_3  and  C_4
REMARK    4  A    between atoms: C_7  and  O_8
REMARK    5  A    between atoms: O_8  and  C_9
REMARK    6  A    between atoms: C_9  and  C_10
REMARK                            x       y       z     vdW  Elec       q    Type
REMARK                         _______ _______ _______ _____ _____    ______ ____
ROOT
ATOM      1  C   UNL     1      45.294   5.345  11.657  0.00  0.00    +0.000 A 
ATOM      2  C   UNL     1      45.525   4.555  12.791  0.00  0.00    +0.000 A 
ATOM      3  C   UNL     1      46.636   4.794  13.602  0.00  0.00    +0.000 A 
ATOM      4  C   UNL     1      47.531   5.818  13.285  0.00  0.00    +0.000 A 
ATOM      5  C   UNL     1      47.265   6.649  12.196  0.00  0.00    +0.000 A 
ATOM      6  C   UNL     1      46.160   6.408  11.382  0.00  0.00    +0.000 A 
ENDROOT
BRANCH   1   7
ATOM      7  C   UNL     1      44.122   5.080  10.747  0.00  0.00    +0.000 C 
BRANCH   7   8
ATOM      8  C   UNL     1      42.801   5.520  11.382  0.00  0.00    +0.000 C 
BRANCH   8   9
ATOM      9  N   UNL     1      42.612   6.963  11.243  0.00  0.00    +0.000 NA
ATOM     10  H   UNL     1      43.514   7.430  11.328  0.00  0.00    +0.000 HD
ATOM     11  H   UNL     1      42.039   7.308  12.013  0.00  0.00    +0.000 HD
ENDBRANCH   8   9
ENDBRANCH   7   8
ENDBRANCH   1   7
BRANCH   4  12
ATOM     12  O   UNL     1      48.633   5.923  14.092  0.00  0.00    +0.000 OA
BRANCH  12  13
ATOM     13  C   UNL     1      48.389   6.580  15.340  0.00  0.00    +0.000 C 
BRANCH  13  14
ATOM     14  C   UNL     1      48.713   5.688  16.505  0.00  0.00    +0.000 A 
ATOM     15  C   UNL     1      47.802   4.772  17.034  0.00  0.00    +0.000 A 
ATOM     16  C   UNL     1      48.199   3.920  18.061  0.00  0.00    +0.000 A 
ATOM     17  C   UNL     1      49.503   4.005  18.518  0.00  0.00    +0.000 A 
ATOM     18  N   UNL     1      50.418   4.866  18.023  0.00  0.00    +0.000 NA
ATOM     19  C   UNL     1      50.004   5.680  17.029  0.00  0.00    +0.000 A 
ENDBRANCH  13  14
ENDBRANCH  12  13
ENDBRANCH   4  12
TORSDOF 6
ENDMDL
