MODEL 1
REMARK VINA RESULT:    -8.762      0.000      0.000
REMARK INTER + INTRA:         -11.619
REMARK INTER:                 -10.811
REMARK INTRA:                  -0.808
REMARK UNBOUND:                -0.808
REMARK  Name = 
REMARK  4 active torsions:
REMARK  status: ('A' for Active; 'I' for Inactive)
REMARK    1  A    between atoms: C_2  and  C_4
REMARK    2  A    between atoms: N_8  and  C_9
REMARK    3  A    between atoms: C_9  and  C_10
REMARK    4  A    between atoms: C_14  and  C_15
REMARK                            x       y       z     vdW  Elec       q    Type
REMARK                         _______ _______ _______ _____ _____    ______ ____
ROOT
ATOM      1  C   UNL     1      43.591   3.694  11.238  0.00  0.00    +0.000 C 
ENDROOT
BRANCH   1   6
ATOM      2  C   UNL     1      46.615   2.497   7.220  0.00  0.00    +0.000 A 
ATOM      3  C   UNL     1      46.103   3.724   7.626  0.00  0.00    +0.000 A 
ATOM      4  C   UNL     1      45.256   3.776   8.732  0.00  0.00    +0.000 A 
ATOM      5  C   UNL     1      44.936   2.611   9.418  0.00  0.00    +0.000 A 
ATOM      6  N   UNL     1      44.154   2.573  10.534  0.00  0.00    +0.000 N 
ATOM      7  N   UNL     1      45.409   1.412   9.017  0.00  0.00    +0.000 NA
ATOM      8  C   UNL     1      46.226   1.375   7.930  0.00  0.00    +0.000 A 
ATOM      9  H   UNL     1      43.995   1.637  10.884  0.00  0.00    +0.000 HD
BRANCH   2  11
ATOM     10  N   UNL     1      47.479   3.297   5.098  0.00  0.00    +0.000 N 
ATOM     11  C   UNL     1      47.540   2.347   6.080  0.00  0.00    +0.000 C 
ATOM     12  O   UNL     1      48.351   1.433   6.030  0.00  0.00    +0.000 OA
ATOM     13  H   UNL     1      48.183   3.242   4.374  0.00  0.00    +0.000 HD
ATOM     14  H   UNL     1      47.013   4.185   5.227  0.00  0.00    +0.000 HD
ENDBRANCH   2  11
ENDBRANCH   1   6
BRANCH   1  15
ATOM     15  C   UNL     1      44.638   4.442  12.026  0.00  0.00    +0.000 A 
ATOM     16  C   UNL     1      45.564   3.750  12.815  0.00  0.00    +0.000 A 
ATOM     17  C   UNL     1      46.571   4.439  13.485  0.00  0.00    +0.000 A 
ATOM     18  C   UNL     1      46.675   5.827  13.357  0.00  0.00    +0.000 A 
ATOM     19  C   UNL     1      45.784   6.558  12.553  0.00  0.00    +0.000 A 
ATOM     20  C   UNL     1      44.753   5.840  11.915  0.00  0.00    +0.000 A 
BRANCH  19  21
ATOM     21  C   UNL     1      45.972   8.007  12.303  0.00  0.00    +0.000 A 
ATOM     22  C   UNL     1      47.253   8.590  12.380  0.00  0.00    +0.000 A 
ATOM     23  C   UNL     1      47.474   9.933  12.054  0.00  0.00    +0.000 A 
ATOM     24  C   UNL     1      46.411  10.726  11.637  0.00  0.00    +0.000 A 
ATOM     25  C   UNL     1      45.139  10.173  11.574  0.00  0.00    +0.000 A 
ATOM     26  F   UNL     1      44.114  10.932  11.164  0.00  0.00    +0.000 F 
ATOM     27  C   UNL     1      44.911   8.840  11.910  0.00  0.00    +0.000 A 
ENDBRANCH  19  21
ENDBRANCH   1  15
TORSDOF 4
ENDMDL
MODEL 2
REMARK VINA RESULT:    -8.762      2.614      3.954
REMARK INTER + INTRA:         -11.619
REMARK INTER:                 -10.999
REMARK INTRA:                  -0.620
REMARK UNBOUND:                -0.808
REMARK  Name = 
REMARK  4 active torsions:
REMARK  status: ('A' for Active; 'I' for Inactive)
REMARK    1  A    between atoms: C_2  and  C_4
REMARK    2  A    between atoms: N_8  and  C_9
REMARK    3  A    between atoms: C_9  and  C_10
REMARK    4  A    between atoms: C_14  and  C_15
REMARK                            x       y       z     vdW  Elec       q    Type
REMARK                         _______ _______ _______ _____ _____    ______ ____
ROOT
ATOM      1  C   UNL     1      43.566   3.700  11.122  0.00  0.00    +0.000 C 
ENDROOT
BRANCH   1   6
ATOM      2  C   UNL     1      46.642   2.494   7.147  0.00  0.00    +0.000 A 
ATOM      3  C   UNL     1      46.000   3.687   7.457  0.00  0.00    +0.000 A 
ATOM      4  C   UNL     1      45.170   3.743   8.576  0.00  0.00    +0.000 A 
ATOM      5  C   UNL     1      44.996   2.615   9.369  0.00  0.00    +0.000 A 
ATOM      6  N   UNL     1      44.242   2.591  10.504  0.00  0.00    +0.000 N 
ATOM      7  N   UNL     1      45.596   1.447   9.062  0.00  0.00    +0.000 NA
ATOM      8  C   UNL     1      46.394   1.403   7.961  0.00  0.00    +0.000 A 
ATOM      9  H   UNL     1      44.195   1.678  10.938  0.00  0.00    +0.000 HD
BRANCH   2  11
ATOM     10  N   UNL     1      47.480   3.290   5.012  0.00  0.00    +0.000 N 
ATOM     11  C   UNL     1      47.559   2.346   6.000  0.00  0.00    +0.000 C 
ATOM     12  O   UNL     1      48.380   1.441   5.949  0.00  0.00    +0.000 OA
ATOM     13  H   UNL     1      48.178   3.237   4.282  0.00  0.00    +0.000 HD
ATOM     14  H   UNL     1      47.005   4.172   5.139  0.00  0.00    +0.000 HD
ENDBRANCH   2  11
ENDBRANCH   1   6
BRANCH   1  15
ATOM     15  C   UNL     1      44.539   4.752  11.598  0.00  0.00    +0.000 A 
ATOM     16  C   UNL     1      44.514   6.041  11.056  0.00  0.00    +0.000 A 
ATOM     17  C   UNL     1      45.367   7.027  11.546  0.00  0.00    +0.000 A 
ATOM     18  C   UNL     1      46.241   6.737  12.598  0.00  0.00    +0.000 A 
ATOM     19  C   UNL     1      46.279   5.462  13.190  0.00  0.00    +0.000 A 
ATOM     20  C   UNL     1      45.430   4.475  12.650  0.00  0.00    +0.000 A 
BRANCH  19  21
ATOM     21  C   UNL     1      47.101   5.189  14.392  0.00  0.00    +0.000 A 
ATOM     22  C   UNL     1      48.004   6.155  14.882  0.00  0.00    +0.000 A 
ATOM     23  C   UNL     1      48.719   5.961  16.070  0.00  0.00    +0.000 A 
ATOM     24  C   UNL     1      48.543   4.792  16.799  0.00  0.00    +0.000 A 
ATOM     25  C   UNL     1      47.672   3.821  16.322  0.00  0.00    +0.000 A 
ATOM     26  F   UNL     1      47.493   2.697  17.027  0.00  0.00    +0.000 F 
ATOM     27  C   UNL     1      46.967   4.002  15.133  0.00  0.00    +0.000 A 
ENDBRANCH  19  21
ENDBRANCH   1  15
TORSDOF 4
ENDMDL
MODEL 3
REMARK VINA RESULT:    -8.616      1.619      1.983
REMARK INTER + INTRA:         -11.439
REMARK INTER:                 -10.599
REMARK INTRA:                  -0.839
REMARK UNBOUND:                -0.808
REMARK  Name = 
REMARK  4 active torsions:
REMARK  status: ('A' for Active; 'I' for Inactive)
REMARK    1  A    between atoms: C_2  and  C_4
REMARK    2  A    between atoms: N_8  and  C_9
REMARK    3  A    between atoms: C_9  and  C_10
REMARK    4  A    between atoms: C_14  and  C_15
REMARK                            x       y       z     vdW  Elec       q    Type
REMARK                         _______ _______ _______ _____ _____    ______ ____
ROOT
ATOM      1  C   UNL     1      43.739   4.515  11.154  0.00  0.00    +0.000 C 
ENDROOT
BRANCH   1   6
ATOM      2  C   UNL     1      46.620   2.638   7.294  0.00  0.00    +0.000 A 
ATOM      3  C   UNL     1      46.315   3.952   7.631  0.00  0.00    +0.000 A 
ATOM      4  C   UNL     1      45.459   4.198   8.705  0.00  0.00    +0.000 A 
ATOM      5  C   UNL     1      44.927   3.136   9.427  0.00  0.00    +0.000 A 
ATOM      6  N   UNL     1      44.121   3.284  10.516  0.00  0.00    +0.000 N 
ATOM      7  N   UNL     1      45.199   1.858   9.092  0.00  0.00    +0.000 NA
ATOM      8  C   UNL     1      46.026   1.633   8.036  0.00  0.00    +0.000 A 
ATOM      9  H   UNL     1      43.795   2.406  10.899  0.00  0.00    +0.000 HD
BRANCH   2  11
ATOM     10  N   UNL     1      47.501   3.066   5.073  0.00  0.00    +0.000 N 
ATOM     11  C   UNL     1      47.535   2.281   6.193  0.00  0.00    +0.000 C 
ATOM     12  O   UNL     1      48.317   1.346   6.289  0.00  0.00    +0.000 OA
ATOM     13  H   UNL     1      48.200   2.875   4.368  0.00  0.00    +0.000 HD
ATOM     14  H   UNL     1      47.063   3.977   5.060  0.00  0.00    +0.000 HD
ENDBRANCH   2  11
ENDBRANCH   1   6
BRANCH   1  15
ATOM     15  C   UNL     1      44.830   5.038  12.056  0.00  0.00    +0.000 A 
ATOM     16  C   UNL     1      45.280   4.280  13.142  0.00  0.00    +0.000 A 
ATOM     17  C   UNL     1      46.334   4.735  13.930  0.00  0.00    +0.000 A 
ATOM     18  C   UNL     1      46.961   5.947  13.628  0.00  0.00    +0.000 A 
ATOM     19  C   UNL     1      46.560   6.727  12.529  0.00  0.00    +0.000 A 
ATOM     20  C   UNL     1      45.468   6.259  11.771  0.00  0.00    +0.000 A 
BRANCH  19  21
ATOM     21  C   UNL     1      47.309   7.939  12.122  0.00  0.00    +0.000 A 
ATOM     22  C   UNL     1      46.707   9.213  12.186  0.00  0.00    +0.000 A 
ATOM     23  C   UNL     1      47.422  10.382  11.901  0.00  0.00    +0.000 A 
ATOM     24  C   UNL     1      48.763  10.303  11.550  0.00  0.00    +0.000 A 
ATOM     25  C   UNL     1      49.368   9.056  11.464  0.00  0.00    +0.000 A 
ATOM     26  F   UNL     1      50.664   8.976  11.134  0.00  0.00    +0.000 F 
ATOM     27  C   UNL     1      48.658   7.886  11.732  0.00  0.00    +0.000 A 
ENDBRANCH  19  21
ENDBRANCH   1  15
TORSDOF 4
ENDMDL
MODEL 4
REMARK VINA RESULT:    -8.134      4.412      7.362
REMARK INTER + INTRA:         -10.844
REMARK INTER:                 -10.012
REMARK INTRA:                  -0.831
REMARK UNBOUND:                -0.808
REMARK  Name = 
REMARK  4 active torsions:
REMARK  status: ('A' for Active; 'I' for Inactive)
REMARK    1  A    between atoms: C_2  and  C_4
REMARK    2  A    between atoms: N_8  and  C_9
REMARK    3  A    between atoms: C_9  and  C_10
REMARK    4  A    between atoms: C_14  and  C_15
REMARK                            x       y       z     vdW  Elec       q    Type
REMARK                         _______ _______ _______ _____ _____    ______ ____
ROOT
ATOM      1  C   UNL     1      44.741   6.881  11.916  0.00  0.00    +0.000 C 
ENDROOT
BRANCH   1   6
ATOM      2  C   UNL     1      49.743   7.903  12.728  0.00  0.00    +0.000 A 
ATOM      3  C   UNL     1      49.036   7.760  11.539  0.00  0.00    +0.000 A 
ATOM      4  C   UNL     1      47.682   7.428  11.588  0.00  0.00    +0.000 A 
ATOM      5  C   UNL     1      47.055   7.248  12.815  0.00  0.00    +0.000 A 
ATOM      6  N   UNL     1      45.729   6.968  12.959  0.00  0.00    +0.000 N 
ATOM      7  N   UNL     1      47.739   7.361  13.972  0.00  0.00    +0.000 NA
ATOM      8  C   UNL     1      49.061   7.674  13.910  0.00  0.00    +0.000 A 
ATOM      9  H   UNL     1      45.447   6.833  13.921  0.00  0.00    +0.000 HD
BRANCH   2  11
ATOM     10  N   UNL     1      51.861   7.956  13.912  0.00  0.00    +0.000 N 
ATOM     11  C   UNL     1      51.169   8.278  12.777  0.00  0.00    +0.000 C 
ATOM     12  O   UNL     1      51.721   8.822  11.830  0.00  0.00    +0.000 OA
ATOM     13  H   UNL     1      52.858   8.127  13.896  0.00  0.00    +0.000 HD
ATOM     14  H   UNL     1      51.514   7.295  14.593  0.00  0.00    +0.000 HD
ENDBRANCH   2  11
ENDBRANCH   1   6
BRANCH   1  15
ATOM     15  C   UNL     1      44.485   5.450  11.509  0.00  0.00    +0.000 A 
ATOM     16  C   UNL     1      43.486   4.699  12.138  0.00  0.00    +0.000 A 
ATOM     17  C   UNL     1      43.206   3.403  11.712  0.00  0.00    +0.000 A 
ATOM     18  C   UNL     1      43.912   2.851  10.639  0.00  0.00    +0.000 A 
ATOM     19  C   UNL     1      44.904   3.580   9.961  0.00  0.00    +0.000 A 
ATOM     20  C   UNL     1      45.191   4.876  10.436  0.00  0.00    +0.000 A 
BRANCH  19  21
ATOM     21  C   UNL     1      45.557   3.054   8.739  0.00  0.00    +0.000 A 
ATOM     22  C   UNL     1      45.930   3.920   7.691  0.00  0.00    +0.000 A 
ATOM     23  C   UNL     1      46.634   3.464   6.571  0.00  0.00    +0.000 A 
ATOM     24  C   UNL     1      46.987   2.124   6.476  0.00  0.00    +0.000 A 
ATOM     25  C   UNL     1      46.612   1.252   7.490  0.00  0.00    +0.000 A 
ATOM     26  F   UNL     1      46.958  -0.039   7.406  0.00  0.00    +0.000 F 
ATOM     27  C   UNL     1      45.898   1.698   8.601  0.00  0.00    +0.000 A 
ENDBRANCH  19  21
ENDBRANCH   1  15
TORSDOF 4
ENDMDL
MODEL 5
REMARK VINA RESULT:    -7.597      4.345      7.528
REMARK INTER + INTRA:         -10.182
REMARK INTER:                  -9.463
REMARK INTRA:                  -0.719
REMARK UNBOUND:                -0.808
REMARK  Name = 
REMARK  4 active torsions:
REMARK  status: ('A' for Active; 'I' for Inactive)
REMARK    1  A    between atoms: C_2  and  C_4
REMARK    2  A    between atoms: N_8  and  C_9
REMARK    3  A    between atoms: C_9  and  C_10
REMARK    4  A    between atoms: C_14  and  C_15
REMARK                            x       y       z     vdW  Elec       q    Type
REMARK                         _______ _______ _______ _____ _____    ______ ____
ROOT
ATOM      1  C   UNL     1      45.737   4.251  13.598  0.00  0.00    +0.000 C 
ENDROOT
BRANCH   1   6
ATOM      2  C   UNL     1      48.280   8.715  13.027  0.00  0.00    +0.000 A 
ATOM      3  C   UNL     1      46.916   8.448  13.004  0.00  0.00    +0.000 A 
ATOM      4  C   UNL     1      46.478   7.130  13.132  0.00  0.00    +0.000 A 
ATOM      5  C   UNL     1      47.401   6.103  13.287  0.00  0.00    +0.000 A 
ATOM      6  N   UNL     1      47.062   4.795  13.464  0.00  0.00    +0.000 N 
ATOM      7  N   UNL     1      48.727   6.350  13.287  0.00  0.00    +0.000 NA
ATOM      8  C   UNL     1      49.141   7.639  13.149  0.00  0.00    +0.000 A 
ATOM      9  H   UNL     1      47.860   4.176  13.524  0.00  0.00    +0.000 HD
BRANCH   2  11
ATOM     10  N   UNL     1      48.056  11.106  13.379  0.00  0.00    +0.000 N 
ATOM     11  C   UNL     1      48.836  10.078  12.926  0.00  0.00    +0.000 C 
ATOM     12  O   UNL     1      49.961  10.279  12.489  0.00  0.00    +0.000 OA
ATOM     13  H   UNL     1      48.484  12.022  13.398  0.00  0.00    +0.000 HD
ATOM     14  H   UNL     1      47.248  10.958  13.967  0.00  0.00    +0.000 HD
ENDBRANCH   2  11
ENDBRANCH   1   6
BRANCH   1  15
ATOM     15  C   UNL     1      44.998   4.254  12.281  0.00  0.00    +0.000 A 
ATOM     16  C   UNL     1      43.839   5.020  12.118  0.00  0.00    +0.000 A 
ATOM     17  C   UNL     1      43.200   5.074  10.882  0.00  0.00    +0.000 A 
ATOM     18  C   UNL     1      43.725   4.376   9.791  0.00  0.00    +0.000 A 
ATOM     19  C   UNL     1      44.902   3.616   9.904  0.00  0.00    +0.000 A 
ATOM     20  C   UNL     1      45.508   3.551  11.175  0.00  0.00    +0.000 A 
BRANCH  19  21
ATOM     21  C   UNL     1      45.538   2.989   8.722  0.00  0.00    +0.000 A 
ATOM     22  C   UNL     1      45.882   3.762   7.594  0.00  0.00    +0.000 A 
ATOM     23  C   UNL     1      46.572   3.214   6.506  0.00  0.00    +0.000 A 
ATOM     24  C   UNL     1      46.937   1.873   6.524  0.00  0.00    +0.000 A 
ATOM     25  C   UNL     1      46.589   1.092   7.618  0.00  0.00    +0.000 A 
ATOM     26  F   UNL     1      46.948  -0.198   7.643  0.00  0.00    +0.000 F 
ATOM     27  C   UNL     1      45.891   1.629   8.699  0.00  0.00    +0.000 A 
ENDBRANCH  19  21
ENDBRANCH   1  15
TORSDOF 4
ENDMDL
MODEL 6
REMARK VINA RESULT:    -7.565      4.420      7.606
REMARK INTER + INTRA:         -10.142
REMARK INTER:                 -10.273
REMARK INTRA:                   0.131
REMARK UNBOUND:                -0.808
REMARK  Name = 
REMARK  4 active torsions:
REMARK  status: ('A' for Active; 'I' for Inactive)
REMARK    1  A    between atoms: C_2  and  C_4
REMARK    2  A    between atoms: N_8  and  C_9
REMARK    3  A    between atoms: C_9  and  C_10
REMARK    4  A    between atoms: C_14  and  C_15
REMARK                            x       y       z     vdW  Elec       q    Type
REMARK                         _______ _______ _______ _____ _____    ______ ____
ROOT
ATOM      1  C   UNL     1      45.137   7.148  11.148  0.00  0.00    +0.000 C 
ENDROOT
BRANCH   1   6
ATOM      2  C   UNL     1      47.439   4.869  15.177  0.00  0.00    +0.000 A 
ATOM      3  C   UNL     1      46.185   4.651  14.617  0.00  0.00    +0.000 A 
ATOM      4  C   UNL     1      45.770   5.446  13.548  0.00  0.00    +0.000 A 
ATOM      5  C   UNL     1      46.608   6.437  13.053  0.00  0.00    +0.000 A 
ATOM      6  N   UNL     1      46.304   7.229  11.986  0.00  0.00    +0.000 N 
ATOM      7  N   UNL     1      47.816   6.671  13.606  0.00  0.00    +0.000 NA
ATOM      8  C   UNL     1      48.204   5.896  14.654  0.00  0.00    +0.000 A 
ATOM      9  H   UNL     1      47.012   7.922  11.782  0.00  0.00    +0.000 HD
BRANCH   2  11
ATOM     10  N   UNL     1      47.106   3.214  16.920  0.00  0.00    +0.000 N 
ATOM     11  C   UNL     1      47.975   4.062  16.290  0.00  0.00    +0.000 C 
ATOM     12  O   UNL     1      49.153   4.120  16.613  0.00  0.00    +0.000 OA
ATOM     13  H   UNL     1      47.505   2.594  17.613  0.00  0.00    +0.000 HD
ATOM     14  H   UNL     1      46.213   2.956  16.525  0.00  0.00    +0.000 HD
ENDBRANCH   2  11
ENDBRANCH   1   6
BRANCH   1  15
ATOM     15  C   UNL     1      44.754   5.716  10.862  0.00  0.00    +0.000 A 
ATOM     16  C   UNL     1      43.633   5.144  11.472  0.00  0.00    +0.000 A 
ATOM     17  C   UNL     1      43.244   3.846  11.152  0.00  0.00    +0.000 A 
ATOM     18  C   UNL     1      43.963   3.112  10.204  0.00  0.00    +0.000 A 
ATOM     19  C   UNL     1      45.079   3.659   9.547  0.00  0.00    +0.000 A 
ATOM     20  C   UNL     1      45.471   4.961   9.916  0.00  0.00    +0.000 A 
BRANCH  19  21
ATOM     21  C   UNL     1      45.759   2.940   8.444  0.00  0.00    +0.000 A 
ATOM     22  C   UNL     1      46.302   3.647   7.351  0.00  0.00    +0.000 A 
ATOM     23  C   UNL     1      47.034   3.004   6.346  0.00  0.00    +0.000 A 
ATOM     24  C   UNL     1      47.244   1.632   6.415  0.00  0.00    +0.000 A 
ATOM     25  C   UNL     1      46.700   0.917   7.474  0.00  0.00    +0.000 A 
ATOM     26  F   UNL     1      46.908  -0.404   7.548  0.00  0.00    +0.000 F 
ATOM     27  C   UNL     1      45.958   1.550   8.470  0.00  0.00    +0.000 A 
ENDBRANCH  19  21
ENDBRANCH   1  15
TORSDOF 4
ENDMDL
MODEL 7
REMARK VINA RESULT:    -6.960      4.732      7.804
REMARK INTER + INTRA:          -9.396
REMARK INTER:                  -9.081
REMARK INTRA:                  -0.315
REMARK UNBOUND:                -0.808
REMARK  Name = 
REMARK  4 active torsions:
REMARK  status: ('A' for Active; 'I' for Inactive)
REMARK    1  A    between atoms: C_2  and  C_4
REMARK    2  A    between atoms: N_8  and  C_9
REMARK    3  A    between atoms: C_9  and  C_10
REMARK    4  A    between atoms: C_14  and  C_15
REMARK                            x       y       z     vdW  Elec       q    Type
REMARK                         _______ _______ _______ _____ _____    ______ ____
ROOT
ATOM      1  C   UNL     1      48.889   7.686  13.115  0.00  0.00    +0.000 C 
ENDROOT
BRANCH   1   6
ATOM      2  C   UNL     1      47.829   4.396  16.959  0.00  0.00    +0.000 A 
ATOM      3  C   UNL     1      47.508   4.333  15.608  0.00  0.00    +0.000 A 
ATOM      4  C   UNL     1      47.870   5.390  14.773  0.00  0.00    +0.000 A 
ATOM      5  C   UNL     1      48.547   6.486  15.293  0.00  0.00    +0.000 A 
ATOM      6  N   UNL     1      48.978   7.541  14.544  0.00  0.00    +0.000 N 
ATOM      7  N   UNL     1      48.841   6.566  16.607  0.00  0.00    +0.000 NA
ATOM      8  C   UNL     1      48.473   5.534  17.412  0.00  0.00    +0.000 A 
ATOM      9  H   UNL     1      49.422   8.268  15.089  0.00  0.00    +0.000 HD
BRANCH   2  11
ATOM     10  N   UNL     1      48.279   3.237  19.044  0.00  0.00    +0.000 N 
ATOM     11  C   UNL     1      47.512   3.316  17.913  0.00  0.00    +0.000 C 
ATOM     12  O   UNL     1      46.582   2.546  17.722  0.00  0.00    +0.000 OA
ATOM     13  H   UNL     1      47.991   2.559  19.737  0.00  0.00    +0.000 HD
ATOM     14  H   UNL     1      48.875   3.993  19.352  0.00  0.00    +0.000 HD
ENDBRANCH   2  11
ENDBRANCH   1   6
BRANCH   1  15
ATOM     15  C   UNL     1      47.457   7.639  12.639  0.00  0.00    +0.000 A 
ATOM     16  C   UNL     1      46.627   8.758  12.769  0.00  0.00    +0.000 A 
ATOM     17  C   UNL     1      45.329   8.733  12.266  0.00  0.00    +0.000 A 
ATOM     18  C   UNL     1      44.854   7.594  11.609  0.00  0.00    +0.000 A 
ATOM     19  C   UNL     1      45.664   6.459  11.431  0.00  0.00    +0.000 A 
ATOM     20  C   UNL     1      46.961   6.499  11.982  0.00  0.00    +0.000 A 
BRANCH  19  21
ATOM     21  C   UNL     1      45.216   5.305  10.617  0.00  0.00    +0.000 A 
ATOM     22  C   UNL     1      45.606   5.181   9.267  0.00  0.00    +0.000 A 
ATOM     23  C   UNL     1      45.278   4.053   8.505  0.00  0.00    +0.000 A 
ATOM     24  C   UNL     1      44.553   3.018   9.081  0.00  0.00    +0.000 A 
ATOM     25  C   UNL     1      44.144   3.131  10.403  0.00  0.00    +0.000 A 
ATOM     26  F   UNL     1      43.453   2.130  10.963  0.00  0.00    +0.000 F 
ATOM     27  C   UNL     1      44.456   4.257  11.163  0.00  0.00    +0.000 A 
ENDBRANCH  19  21
ENDBRANCH   1  15
TORSDOF 4
ENDMDL
MODEL 8
REMARK VINA RESULT:    -6.942      5.414      8.572
REMARK INTER + INTRA:          -9.374
REMARK INTER:                  -8.738
REMARK INTRA:                  -0.635
REMARK UNBOUND:                -0.808
REMARK  Name = 
REMARK  4 active torsions:
REMARK  status: ('A' for Active; 'I' for Inactive)
REMARK    1  A    between atoms: C_2  and  C_4
REMARK    2  A    between atoms: N_8  and  C_9
REMARK    3  A    between atoms: C_9  and  C_10
REMARK    4  A    between atoms: C_14  and  C_15
REMARK                            x       y       z     vdW  Elec       q    Type
REMARK                         _______ _______ _______ _____ _____    ______ ____
ROOT
ATOM      1  C   UNL     1      48.064   7.560  14.047  0.00  0.00    +0.000 C 
ENDROOT
BRANCH   1   6
ATOM      2  C   UNL     1      49.012   5.281  18.590  0.00  0.00    +0.000 A 
ATOM      3  C   UNL     1      48.938   6.630  18.258  0.00  0.00    +0.000 A 
ATOM      4  C   UNL     1      48.718   6.993  16.930  0.00  0.00    +0.000 A 
ATOM      5  C   UNL     1      48.568   6.012  15.957  0.00  0.00    +0.000 A 
ATOM      6  N   UNL     1      48.305   6.274  14.645  0.00  0.00    +0.000 N 
ATOM      7  N   UNL     1      48.662   4.702  16.266  0.00  0.00    +0.000 NA
ATOM      8  C   UNL     1      48.888   4.362  17.563  0.00  0.00    +0.000 A 
ATOM      9  H   UNL     1      48.263   5.444  14.069  0.00  0.00    +0.000 HD
BRANCH   2  11
ATOM     10  N   UNL     1      48.514   3.692  20.355  0.00  0.00    +0.000 N 
ATOM     11  C   UNL     1      49.215   4.801  19.970  0.00  0.00    +0.000 C 
ATOM     12  O   UNL     1      50.004   5.348  20.728  0.00  0.00    +0.000 OA
ATOM     13  H   UNL     1      48.735   3.312  21.266  0.00  0.00    +0.000 HD
ATOM     14  H   UNL     1      48.060   3.077  19.693  0.00  0.00    +0.000 HD
ENDBRANCH   2  11
ENDBRANCH   1   6
BRANCH   1  15
ATOM     15  C   UNL     1      46.859   7.535  13.138  0.00  0.00    +0.000 A 
ATOM     16  C   UNL     1      46.117   8.699  12.909  0.00  0.00    +0.000 A 
ATOM     17  C   UNL     1      45.049   8.688  12.016  0.00  0.00    +0.000 A 
ATOM     18  C   UNL     1      44.723   7.515  11.328  0.00  0.00    +0.000 A 
ATOM     19  C   UNL     1      45.459   6.331  11.507  0.00  0.00    +0.000 A 
ATOM     20  C   UNL     1      46.513   6.362  12.444  0.00  0.00    +0.000 A 
BRANCH  19  21
ATOM     21  C   UNL     1      45.208   5.127  10.681  0.00  0.00    +0.000 A 
ATOM     22  C   UNL     1      44.462   4.045  11.194  0.00  0.00    +0.000 A 
ATOM     23  C   UNL     1      44.127   2.940  10.403  0.00  0.00    +0.000 A 
ATOM     24  C   UNL     1      44.528   2.895   9.074  0.00  0.00    +0.000 A 
ATOM     25  C   UNL     1      45.279   3.942   8.557  0.00  0.00    +0.000 A 
ATOM     26  F   UNL     1      45.660   3.906   7.274  0.00  0.00    +0.000 F 
ATOM     27  C   UNL     1      45.628   5.039   9.344  0.00  0.00    +0.000 A 
ENDBRANCH  19  21
ENDBRANCH   1  15
TORSDOF 4
ENDMDL
MODEL 9
REMARK VINA RESULT:    -6.801      6.073      8.424
REMARK INTER + INTRA:          -9.199
REMARK INTER:                  -8.491
REMARK INTRA:                  -0.708
REMARK UNBOUND:                -0.808
REMARK  Name = 
REMARK  4 active torsions:
REMARK  status: ('A' for Active; 'I' for Inactive)
REMARK    1  A    between atoms: C_2  and  C_4
REMARK    2  A    between atoms: N_8  and  C_9
REMARK    3  A    between atoms: C_9  and  C_10
REMARK    4  A    between atoms: C_14  and  C_15
REMARK                            x       y       z     vdW  Elec       q    Type
REMARK                         _______ _______ _______ _____ _____    ______ ____
ROOT
ATOM      1  C   UNL     1      47.549   4.378  16.583  0.00  0.00    +0.000 C 
ENDROOT
BRANCH   1   6
ATOM      2  C   UNL     1      51.965   1.950  17.733  0.00  0.00    +0.000 A 
ATOM      3  C   UNL     1      50.779   1.455  17.202  0.00  0.00    +0.000 A 
ATOM      4  C   UNL     1      49.697   2.319  17.031  0.00  0.00    +0.000 A 
ATOM      5  C   UNL     1      49.814   3.657  17.385  0.00  0.00    +0.000 A 
ATOM      6  N   UNL     1      48.827   4.581  17.211  0.00  0.00    +0.000 N 
ATOM      7  N   UNL     1      50.953   4.140  17.923  0.00  0.00    +0.000 NA
ATOM      8  C   UNL     1      51.997   3.285  18.094  0.00  0.00    +0.000 A 
ATOM      9  H   UNL     1      49.069   5.501  17.556  0.00  0.00    +0.000 HD
BRANCH   2  11
ATOM     10  N   UNL     1      53.442   0.184  16.965  0.00  0.00    +0.000 N 
ATOM     11  C   UNL     1      53.169   1.119  17.926  0.00  0.00    +0.000 C 
ATOM     12  O   UNL     1      53.913   1.283  18.882  0.00  0.00    +0.000 OA
ATOM     13  H   UNL     1      54.320  -0.310  17.054  0.00  0.00    +0.000 HD
ATOM     14  H   UNL     1      53.005   0.194  16.055  0.00  0.00    +0.000 HD
ENDBRANCH   2  11
ENDBRANCH   1   6
BRANCH   1  15
ATOM     15  C   UNL     1      47.441   5.134  15.280  0.00  0.00    +0.000 A 
ATOM     16  C   UNL     1      48.312   6.191  14.997  0.00  0.00    +0.000 A 
ATOM     17  C   UNL     1      48.255   6.839  13.766  0.00  0.00    +0.000 A 
ATOM     18  C   UNL     1      47.336   6.424  12.798  0.00  0.00    +0.000 A 
ATOM     19  C   UNL     1      46.461   5.349  13.031  0.00  0.00    +0.000 A 
ATOM     20  C   UNL     1      46.517   4.734  14.298  0.00  0.00    +0.000 A 
BRANCH  19  21
ATOM     21  C   UNL     1      45.584   4.816  11.962  0.00  0.00    +0.000 A 
ATOM     22  C   UNL     1      45.674   5.308  10.644  0.00  0.00    +0.000 A 
ATOM     23  C   UNL     1      44.928   4.756   9.596  0.00  0.00    +0.000 A 
ATOM     24  C   UNL     1      44.073   3.690   9.845  0.00  0.00    +0.000 A 
ATOM     25  C   UNL     1      43.956   3.204  11.141  0.00  0.00    +0.000 A 
ATOM     26  F   UNL     1      43.140   2.170  11.383  0.00  0.00    +0.000 F 
ATOM     27  C   UNL     1      44.687   3.759  12.191  0.00  0.00    +0.000 A 
ENDBRANCH  19  21
ENDBRANCH   1  15
TORSDOF 4
ENDMDL
