MODEL 1
REMARK VINA RESULT:    -9.082      0.000      0.000
REMARK INTER + INTRA:         -11.870
REMARK INTER:                 -11.206
REMARK INTRA:                  -0.664
REMARK UNBOUND:                -0.664
REMARK  Name = 
REMARK  4 active torsions:
REMARK  status: ('A' for Active; 'I' for Inactive)
REMARK    1  A    between atoms: C_2  and  C_4
REMARK    2  A    between atoms: N_8  and  C_9
REMARK    3  A    between atoms: C_9  and  C_10
REMARK    4  A    between atoms: C_14  and  C_15
REMARK                            x       y       z     vdW  Elec       q    Type
REMARK                         _______ _______ _______ _____ _____    ______ ____
ROOT
ATOM      1  C   UNL     1      46.414   2.277   7.633  0.00  0.00    +0.000 A 
ATOM      2  C   UNL     1      45.684   1.833   8.730  0.00  0.00    +0.000 A 
ATOM      3  C   UNL     1      44.884   2.741   9.427  0.00  0.00    +0.000 A 
ATOM      4  C   UNL     1      44.835   4.072   9.027  0.00  0.00    +0.000 A 
ATOM      5  N   UNL     1      44.017   5.015   9.600  0.00  0.00    +0.000 N 
ATOM      6  N   UNL     1      45.558   4.516   7.978  0.00  0.00    +0.000 NA
ATOM      7  C   UNL     1      46.331   3.620   7.308  0.00  0.00    +0.000 A 
ATOM      8  H   UNL     1      44.190   5.922   9.178  0.00  0.00    +0.000 HD
ENDROOT
BRANCH   1  10
ATOM      9  N   UNL     1      48.306   1.969   6.140  0.00  0.00    +0.000 N 
ATOM     10  C   UNL     1      47.270   1.390   6.821  0.00  0.00    +0.000 C 
ATOM     11  O   UNL     1      47.084   0.181   6.784  0.00  0.00    +0.000 OA
ATOM     12  H   UNL     1      48.944   1.337   5.671  0.00  0.00    +0.000 HD
ATOM     13  H   UNL     1      48.640   2.900   6.343  0.00  0.00    +0.000 HD
ENDBRANCH   1  10
BRANCH   5  14
ATOM     14  C   UNL     1      43.646   5.023  10.999  0.00  0.00    +0.000 C 
BRANCH  14  15
ATOM     15  C   UNL     1      44.798   5.057  11.971  0.00  0.00    +0.000 A 
ATOM     16  C   UNL     1      44.769   4.181  13.053  0.00  0.00    +0.000 A 
ATOM     17  N   UNL     1      45.719   4.114  14.007  0.00  0.00    +0.000 NA
ATOM     18  C   UNL     1      46.761   4.968  13.884  0.00  0.00    +0.000 A 
ATOM     19  C   UNL     1      46.917   5.907  12.861  0.00  0.00    +0.000 A 
ATOM     20  C   UNL     1      45.895   5.927  11.894  0.00  0.00    +0.000 A 
BRANCH  19  21
ATOM     21  C   UNL     1      48.078   6.821  12.802  0.00  0.00    +0.000 A 
ATOM     22  C   UNL     1      48.403   7.545  11.645  0.00  0.00    +0.000 A 
ATOM     23  C   UNL     1      49.500   8.407  11.625  0.00  0.00    +0.000 A 
ATOM     24  C   UNL     1      50.266   8.524  12.769  0.00  0.00    +0.000 A 
ATOM     25  N   UNL     1      50.006   7.850  13.906  0.00  0.00    +0.000 NA
ATOM     26  C   UNL     1      48.927   7.028  13.895  0.00  0.00    +0.000 A 
ENDBRANCH  19  21
ENDBRANCH  14  15
ENDBRANCH   5  14
TORSDOF 4
ENDMDL
MODEL 2
REMARK VINA RESULT:    -8.605      1.816      2.982
REMARK INTER + INTRA:         -11.281
REMARK INTER:                 -10.584
REMARK INTRA:                  -0.697
REMARK UNBOUND:                -0.664
REMARK  Name = 
REMARK  4 active torsions:
REMARK  status: ('A' for Active; 'I' for Inactive)
REMARK    1  A    between atoms: C_2  and  C_4
REMARK    2  A    between atoms: N_8  and  C_9
REMARK    3  A    between atoms: C_9  and  C_10
REMARK    4  A    between atoms: C_14  and  C_15
REMARK                            x       y       z     vdW  Elec       q    Type
REMARK                         _______ _______ _______ _____ _____    ______ ____
ROOT
ATOM      1  C   UNL     1      46.372   2.241   7.666  0.00  0.00    +0.000 A 
ATOM      2  C   UNL     1      45.716   1.828   8.820  0.00  0.00    +0.000 A 
ATOM      3  C   UNL     1      44.886   2.730   9.489  0.00  0.00    +0.000 A 
ATOM      4  C   UNL     1      44.736   4.026   9.005  0.00  0.00    +0.000 A 
ATOM      5  N   UNL     1      43.881   4.953   9.550  0.00  0.00    +0.000 N 
ATOM      6  N   UNL     1      45.387   4.441   7.900  0.00  0.00    +0.000 NA
ATOM      7  C   UNL     1      46.190   3.551   7.257  0.00  0.00    +0.000 A 
ATOM      8  H   UNL     1      43.979   5.838   9.062  0.00  0.00    +0.000 HD
ENDROOT
BRANCH   1  10
ATOM      9  N   UNL     1      48.298   1.939   6.215  0.00  0.00    +0.000 N 
ATOM     10  C   UNL     1      47.253   1.355   6.878  0.00  0.00    +0.000 C 
ATOM     11  O   UNL     1      47.077   0.145   6.845  0.00  0.00    +0.000 OA
ATOM     12  H   UNL     1      48.951   1.309   5.764  0.00  0.00    +0.000 HD
ATOM     13  H   UNL     1      48.620   2.873   6.418  0.00  0.00    +0.000 HD
ENDBRANCH   1  10
BRANCH   5  14
ATOM     14  C   UNL     1      43.564   5.033  10.960  0.00  0.00    +0.000 C 
BRANCH  14  15
ATOM     15  C   UNL     1      44.665   5.573  11.838  0.00  0.00    +0.000 A 
ATOM     16  C   UNL     1      45.091   6.881  11.624  0.00  0.00    +0.000 A 
ATOM     17  N   UNL     1      46.075   7.487  12.318  0.00  0.00    +0.000 NA
ATOM     18  C   UNL     1      46.677   6.752  13.282  0.00  0.00    +0.000 A 
ATOM     19  C   UNL     1      46.364   5.428  13.598  0.00  0.00    +0.000 A 
ATOM     20  C   UNL     1      45.327   4.851  12.841  0.00  0.00    +0.000 A 
BRANCH  19  21
ATOM     21  C   UNL     1      47.078   4.682  14.656  0.00  0.00    +0.000 A 
ATOM     22  C   UNL     1      47.541   5.300  15.827  0.00  0.00    +0.000 A 
ATOM     23  C   UNL     1      48.204   4.566  16.811  0.00  0.00    +0.000 A 
ATOM     24  C   UNL     1      48.402   3.214  16.601  0.00  0.00    +0.000 A 
ATOM     25  N   UNL     1      47.985   2.568  15.495  0.00  0.00    +0.000 NA
ATOM     26  C   UNL     1      47.337   3.310  14.563  0.00  0.00    +0.000 A 
ENDBRANCH  19  21
ENDBRANCH  14  15
ENDBRANCH   5  14
TORSDOF 4
ENDMDL
MODEL 3
REMARK VINA RESULT:    -7.972      1.639      2.188
REMARK INTER + INTRA:         -10.500
REMARK INTER:                 -10.279
REMARK INTRA:                  -0.221
REMARK UNBOUND:                -0.664
REMARK  Name = 
REMARK  4 active torsions:
REMARK  status: ('A' for Active; 'I' for Inactive)
REMARK    1  A    between atoms: C_2  and  C_4
REMARK    2  A    between atoms: N_8  and  C_9
REMARK    3  A    between atoms: C_9  and  C_10
REMARK    4  A    between atoms: C_14  and  C_15
REMARK                            x       y       z     vdW  Elec       q    Type
REMARK                         _______ _______ _______ _____ _____    ______ ____
ROOT
ATOM      1  C   UNL     1      46.715   2.461   7.100  0.00  0.00    +0.000 A 
ATOM      2  C   UNL     1      46.266   3.683   7.589  0.00  0.00    +0.000 A 
ATOM      3  C   UNL     1      45.498   3.708   8.755  0.00  0.00    +0.000 A 
ATOM      4  C   UNL     1      45.182   2.518   9.404  0.00  0.00    +0.000 A 
ATOM      5  N   UNL     1      44.504   2.452  10.596  0.00  0.00    +0.000 N 
ATOM      6  N   UNL     1      45.594   1.328   8.923  0.00  0.00    +0.000 NA
ATOM      7  C   UNL     1      46.343   1.319   7.788  0.00  0.00    +0.000 A 
ATOM      8  H   UNL     1      44.347   1.482  10.848  0.00  0.00    +0.000 HD
ENDROOT
BRANCH   1  10
ATOM      9  N   UNL     1      47.318   3.223   4.874  0.00  0.00    +0.000 N 
ATOM     10  C   UNL     1      47.549   2.335   5.888  0.00  0.00    +0.000 C 
ATOM     11  O   UNL     1      48.432   1.493   5.807  0.00  0.00    +0.000 OA
ATOM     12  H   UNL     1      47.964   3.190   4.093  0.00  0.00    +0.000 HD
ATOM     13  H   UNL     1      46.787   4.072   5.001  0.00  0.00    +0.000 HD
ENDBRANCH   1  10
BRANCH   5  14
ATOM     14  C   UNL     1      43.475   3.390  10.997  0.00  0.00    +0.000 C 
BRANCH  14  15
ATOM     15  C   UNL     1      43.962   4.780  11.318  0.00  0.00    +0.000 A 
ATOM     16  C   UNL     1      43.092   5.845  11.101  0.00  0.00    +0.000 A 
ATOM     17  N   UNL     1      43.397   7.139  11.326  0.00  0.00    +0.000 NA
ATOM     18  C   UNL     1      44.641   7.395  11.793  0.00  0.00    +0.000 A 
ATOM     19  C   UNL     1      45.620   6.431  12.046  0.00  0.00    +0.000 A 
ATOM     20  C   UNL     1      45.241   5.099  11.794  0.00  0.00    +0.000 A 
BRANCH  19  21
ATOM     21  C   UNL     1      46.967   6.789  12.541  0.00  0.00    +0.000 A 
ATOM     22  C   UNL     1      47.721   7.828  11.976  0.00  0.00    +0.000 A 
ATOM     23  C   UNL     1      48.986   8.147  12.472  0.00  0.00    +0.000 A 
ATOM     24  C   UNL     1      49.482   7.408  13.529  0.00  0.00    +0.000 A 
ATOM     25  N   UNL     1      48.807   6.396  14.108  0.00  0.00    +0.000 NA
ATOM     26  C   UNL     1      47.577   6.118  13.606  0.00  0.00    +0.000 A 
ENDBRANCH  19  21
ENDBRANCH  14  15
ENDBRANCH   5  14
TORSDOF 4
ENDMDL
MODEL 4
REMARK VINA RESULT:    -7.872      3.059      6.958
REMARK INTER + INTRA:         -10.377
REMARK INTER:                  -9.798
REMARK INTRA:                  -0.579
REMARK UNBOUND:                -0.664
REMARK  Name = 
REMARK  4 active torsions:
REMARK  status: ('A' for Active; 'I' for Inactive)
REMARK    1  A    between atoms: C_2  and  C_4
REMARK    2  A    between atoms: N_8  and  C_9
REMARK    3  A    between atoms: C_9  and  C_10
REMARK    4  A    between atoms: C_14  and  C_15
REMARK                            x       y       z     vdW  Elec       q    Type
REMARK                         _______ _______ _______ _____ _____    ______ ____
ROOT
ATOM      1  C   UNL     1      48.217   7.032  14.025  0.00  0.00    +0.000 A 
ATOM      2  C   UNL     1      47.500   5.852  13.860  0.00  0.00    +0.000 A 
ATOM      3  C   UNL     1      46.435   5.825  12.956  0.00  0.00    +0.000 A 
ATOM      4  C   UNL     1      46.098   6.973  12.247  0.00  0.00    +0.000 A 
ATOM      5  N   UNL     1      45.122   7.018  11.281  0.00  0.00    +0.000 N 
ATOM      6  N   UNL     1      46.773   8.128  12.419  0.00  0.00    +0.000 NA
ATOM      7  C   UNL     1      47.808   8.139  13.300  0.00  0.00    +0.000 A 
ATOM      8  H   UNL     1      45.020   7.968  10.940  0.00  0.00    +0.000 HD
ENDROOT
BRANCH   1  10
ATOM      9  N   UNL     1      50.589   7.420  14.379  0.00  0.00    +0.000 N 
ATOM     10  C   UNL     1      49.370   7.154  14.940  0.00  0.00    +0.000 C 
ATOM     11  O   UNL     1      49.237   7.056  16.152  0.00  0.00    +0.000 OA
ATOM     12  H   UNL     1      51.349   7.602  15.024  0.00  0.00    +0.000 HD
ATOM     13  H   UNL     1      50.694   7.754  13.432  0.00  0.00    +0.000 HD
ENDBRANCH   1  10
BRANCH   5  14
ATOM     14  C   UNL     1      43.914   6.219  11.312  0.00  0.00    +0.000 C 
BRANCH  14  15
ATOM     15  C   UNL     1      44.055   4.820  10.768  0.00  0.00    +0.000 A 
ATOM     16  C   UNL     1      43.340   3.800  11.390  0.00  0.00    +0.000 A 
ATOM     17  N   UNL     1      43.383   2.503  11.024  0.00  0.00    +0.000 NA
ATOM     18  C   UNL     1      44.185   2.196   9.978  0.00  0.00    +0.000 A 
ATOM     19  C   UNL     1      44.967   3.110   9.267  0.00  0.00    +0.000 A 
ATOM     20  C   UNL     1      44.877   4.448   9.695  0.00  0.00    +0.000 A 
BRANCH  19  21
ATOM     21  C   UNL     1      45.834   2.697   8.143  0.00  0.00    +0.000 A 
ATOM     22  C   UNL     1      46.151   3.561   7.085  0.00  0.00    +0.000 A 
ATOM     23  C   UNL     1      46.980   3.144   6.043  0.00  0.00    +0.000 A 
ATOM     24  C   UNL     1      47.475   1.854   6.073  0.00  0.00    +0.000 A 
ATOM     25  N   UNL     1      47.199   0.978   7.058  0.00  0.00    +0.000 NA
ATOM     26  C   UNL     1      46.398   1.419   8.060  0.00  0.00    +0.000 A 
ENDBRANCH  19  21
ENDBRANCH  14  15
ENDBRANCH   5  14
TORSDOF 4
ENDMDL
MODEL 5
REMARK VINA RESULT:    -7.807      2.756      6.891
REMARK INTER + INTRA:         -10.296
REMARK INTER:                  -9.600
REMARK INTRA:                  -0.696
REMARK UNBOUND:                -0.664
REMARK  Name = 
REMARK  4 active torsions:
REMARK  status: ('A' for Active; 'I' for Inactive)
REMARK    1  A    between atoms: C_2  and  C_4
REMARK    2  A    between atoms: N_8  and  C_9
REMARK    3  A    between atoms: C_9  and  C_10
REMARK    4  A    between atoms: C_14  and  C_15
REMARK                            x       y       z     vdW  Elec       q    Type
REMARK                         _______ _______ _______ _____ _____    ______ ____
ROOT
ATOM      1  C   UNL     1      48.753   7.562  12.949  0.00  0.00    +0.000 A 
ATOM      2  C   UNL     1      48.014   7.997  11.853  0.00  0.00    +0.000 A 
ATOM      3  C   UNL     1      46.687   7.585  11.721  0.00  0.00    +0.000 A 
ATOM      4  C   UNL     1      46.125   6.739  12.673  0.00  0.00    +0.000 A 
ATOM      5  N   UNL     1      44.808   6.349  12.669  0.00  0.00    +0.000 N 
ATOM      6  N   UNL     1      46.841   6.295  13.726  0.00  0.00    +0.000 NA
ATOM      7  C   UNL     1      48.132   6.707  13.842  0.00  0.00    +0.000 A 
ATOM      8  H   UNL     1      44.642   5.696  13.428  0.00  0.00    +0.000 HD
ENDROOT
BRANCH   1  10
ATOM      9  N   UNL     1      50.760   7.481  14.315  0.00  0.00    +0.000 N 
ATOM     10  C   UNL     1      50.155   7.961  13.186  0.00  0.00    +0.000 C 
ATOM     11  O   UNL     1      50.762   8.663  12.390  0.00  0.00    +0.000 OA
ATOM     12  H   UNL     1      51.749   7.678  14.411  0.00  0.00    +0.000 HD
ATOM     13  H   UNL     1      50.385   6.712  14.850  0.00  0.00    +0.000 HD
ENDBRANCH   1  10
BRANCH   5  14
ATOM     14  C   UNL     1      44.028   6.142  11.467  0.00  0.00    +0.000 C 
BRANCH  14  15
ATOM     15  C   UNL     1      44.131   4.766  10.861  0.00  0.00    +0.000 A 
ATOM     16  C   UNL     1      43.385   3.740  11.434  0.00  0.00    +0.000 A 
ATOM     17  N   UNL     1      43.393   2.461  11.010  0.00  0.00    +0.000 NA
ATOM     18  C   UNL     1      44.191   2.178   9.954  0.00  0.00    +0.000 A 
ATOM     19  C   UNL     1      45.002   3.101   9.288  0.00  0.00    +0.000 A 
ATOM     20  C   UNL     1      44.948   4.420   9.775  0.00  0.00    +0.000 A 
BRANCH  19  21
ATOM     21  C   UNL     1      45.862   2.714   8.149  0.00  0.00    +0.000 A 
ATOM     22  C   UNL     1      46.175   3.604   7.111  0.00  0.00    +0.000 A 
ATOM     23  C   UNL     1      46.997   3.212   6.054  0.00  0.00    +0.000 A 
ATOM     24  C   UNL     1      47.491   1.921   6.050  0.00  0.00    +0.000 A 
ATOM     25  N   UNL     1      47.220   1.021   7.015  0.00  0.00    +0.000 NA
ATOM     26  C   UNL     1      46.424   1.438   8.031  0.00  0.00    +0.000 A 
ENDBRANCH  19  21
ENDBRANCH  14  15
ENDBRANCH   5  14
TORSDOF 4
ENDMDL
MODEL 6
REMARK VINA RESULT:    -7.604      3.057      7.048
REMARK INTER + INTRA:         -10.046
REMARK INTER:                  -9.725
REMARK INTRA:                  -0.321
REMARK UNBOUND:                -0.664
REMARK  Name = 
REMARK  4 active torsions:
REMARK  status: ('A' for Active; 'I' for Inactive)
REMARK    1  A    between atoms: C_2  and  C_4
REMARK    2  A    between atoms: N_8  and  C_9
REMARK    3  A    between atoms: C_9  and  C_10
REMARK    4  A    between atoms: C_14  and  C_15
REMARK                            x       y       z     vdW  Elec       q    Type
REMARK                         _______ _______ _______ _____ _____    ______ ____
ROOT
ATOM      1  C   UNL     1      47.445   4.383  15.690  0.00  0.00    +0.000 A 
ATOM      2  C   UNL     1      46.404   4.187  14.789  0.00  0.00    +0.000 A 
ATOM      3  C   UNL     1      46.271   5.056  13.704  0.00  0.00    +0.000 A 
ATOM      4  C   UNL     1      47.169   6.108  13.544  0.00  0.00    +0.000 A 
ATOM      5  N   UNL     1      47.165   6.960  12.467  0.00  0.00    +0.000 N 
ATOM      6  N   UNL     1      48.166   6.318  14.426  0.00  0.00    +0.000 NA
ATOM      7  C   UNL     1      48.284   5.463  15.476  0.00  0.00    +0.000 A 
ATOM      8  H   UNL     1      47.875   7.674  12.593  0.00  0.00    +0.000 HD
ENDROOT
BRANCH   1  10
ATOM      9  N   UNL     1      48.964   3.402  17.312  0.00  0.00    +0.000 N 
ATOM     10  C   UNL     1      47.679   3.506  16.855  0.00  0.00    +0.000 C 
ATOM     11  O   UNL     1      46.758   2.923  17.410  0.00  0.00    +0.000 OA
ATOM     12  H   UNL     1      49.094   2.880  18.171  0.00  0.00    +0.000 HD
ATOM     13  H   UNL     1      49.692   4.049  17.049  0.00  0.00    +0.000 HD
ENDBRANCH   1  10
BRANCH   5  14
ATOM     14  C   UNL     1      45.969   7.367  11.759  0.00  0.00    +0.000 C 
BRANCH  14  15
ATOM     15  C   UNL     1      45.254   6.266  11.017  0.00  0.00    +0.000 A 
ATOM     16  C   UNL     1      43.888   6.107  11.237  0.00  0.00    +0.000 A 
ATOM     17  N   UNL     1      43.127   5.158  10.659  0.00  0.00    +0.000 NA
ATOM     18  C   UNL     1      43.756   4.310   9.812  0.00  0.00    +0.000 A 
ATOM     19  C   UNL     1      45.119   4.343   9.505  0.00  0.00    +0.000 A 
ATOM     20  C   UNL     1      45.860   5.358  10.138  0.00  0.00    +0.000 A 
BRANCH  19  21
ATOM     21  C   UNL     1      45.740   3.371   8.580  0.00  0.00    +0.000 A 
ATOM     22  C   UNL     1      46.349   3.764   7.379  0.00  0.00    +0.000 A 
ATOM     23  C   UNL     1      46.935   2.824   6.531  0.00  0.00    +0.000 A 
ATOM     24  C   UNL     1      46.895   1.492   6.899  0.00  0.00    +0.000 A 
ATOM     25  N   UNL     1      46.320   1.055   8.036  0.00  0.00    +0.000 NA
ATOM     26  C   UNL     1      45.767   1.997   8.841  0.00  0.00    +0.000 A 
ENDBRANCH  19  21
ENDBRANCH  14  15
ENDBRANCH   5  14
TORSDOF 4
ENDMDL
MODEL 7
REMARK VINA RESULT:    -7.101      3.547      7.585
REMARK INTER + INTRA:          -9.426
REMARK INTER:                  -8.893
REMARK INTRA:                  -0.533
REMARK UNBOUND:                -0.664
REMARK  Name = 
REMARK  4 active torsions:
REMARK  status: ('A' for Active; 'I' for Inactive)
REMARK    1  A    between atoms: C_2  and  C_4
REMARK    2  A    between atoms: N_8  and  C_9
REMARK    3  A    between atoms: C_9  and  C_10
REMARK    4  A    between atoms: C_14  and  C_15
REMARK                            x       y       z     vdW  Elec       q    Type
REMARK                         _______ _______ _______ _____ _____    ______ ____
ROOT
ATOM      1  C   UNL     1      48.715   4.789  16.747  0.00  0.00    +0.000 A 
ATOM      2  C   UNL     1      47.611   3.985  16.485  0.00  0.00    +0.000 A 
ATOM      3  C   UNL     1      46.799   4.282  15.388  0.00  0.00    +0.000 A 
ATOM      4  C   UNL     1      47.093   5.378  14.583  0.00  0.00    +0.000 A 
ATOM      5  N   UNL     1      46.400   5.697  13.441  0.00  0.00    +0.000 N 
ATOM      6  N   UNL     1      48.148   6.176  14.844  0.00  0.00    +0.000 NA
ATOM      7  C   UNL     1      48.931   5.874  15.914  0.00  0.00    +0.000 A 
ATOM      8  H   UNL     1      46.762   6.561  13.051  0.00  0.00    +0.000 HD
ENDROOT
BRANCH   1  10
ATOM      9  N   UNL     1      49.321   3.541  18.741  0.00  0.00    +0.000 N 
ATOM     10  C   UNL     1      49.643   4.544  17.869  0.00  0.00    +0.000 C 
ATOM     11  O   UNL     1      50.676   5.187  17.995  0.00  0.00    +0.000 OA
ATOM     12  H   UNL     1      50.016   3.317  19.444  0.00  0.00    +0.000 HD
ATOM     13  H   UNL     1      48.629   2.837  18.532  0.00  0.00    +0.000 HD
ENDBRANCH   1  10
BRANCH   5  14
ATOM     14  C   UNL     1      44.984   5.458  13.258  0.00  0.00    +0.000 C 
BRANCH  14  15
ATOM     15  C   UNL     1      44.634   4.414  12.229  0.00  0.00    +0.000 A 
ATOM     16  C   UNL     1      43.588   3.539  12.513  0.00  0.00    +0.000 A 
ATOM     17  N   UNL     1      43.179   2.548  11.696  0.00  0.00    +0.000 NA
ATOM     18  C   UNL     1      43.848   2.411  10.528  0.00  0.00    +0.000 A 
ATOM     19  C   UNL     1      44.921   3.205  10.117  0.00  0.00    +0.000 A 
ATOM     20  C   UNL     1      45.300   4.224  11.010  0.00  0.00    +0.000 A 
BRANCH  19  21
ATOM     21  C   UNL     1      45.616   2.985   8.830  0.00  0.00    +0.000 A 
ATOM     22  C   UNL     1      46.049   1.715   8.421  0.00  0.00    +0.000 A 
ATOM     23  C   UNL     1      46.693   1.539   7.196  0.00  0.00    +0.000 A 
ATOM     24  C   UNL     1      46.903   2.647   6.398  0.00  0.00    +0.000 A 
ATOM     25  N   UNL     1      46.515   3.891   6.741  0.00  0.00    +0.000 NA
ATOM     26  C   UNL     1      45.884   4.025   7.934  0.00  0.00    +0.000 A 
ENDBRANCH  19  21
ENDBRANCH  14  15
ENDBRANCH   5  14
TORSDOF 4
ENDMDL
MODEL 8
REMARK VINA RESULT:    -6.474      4.872      6.780
REMARK INTER + INTRA:          -8.651
REMARK INTER:                  -8.145
REMARK INTRA:                  -0.507
REMARK UNBOUND:                -0.664
REMARK  Name = 
REMARK  4 active torsions:
REMARK  status: ('A' for Active; 'I' for Inactive)
REMARK    1  A    between atoms: C_2  and  C_4
REMARK    2  A    between atoms: N_8  and  C_9
REMARK    3  A    between atoms: C_9  and  C_10
REMARK    4  A    between atoms: C_14  and  C_15
REMARK                            x       y       z     vdW  Elec       q    Type
REMARK                         _______ _______ _______ _____ _____    ______ ____
ROOT
ATOM      1  C   UNL     1      45.275   4.684  11.599  0.00  0.00    +0.000 A 
ATOM      2  C   UNL     1      45.726   5.706  12.427  0.00  0.00    +0.000 A 
ATOM      3  C   UNL     1      46.335   5.379  13.641  0.00  0.00    +0.000 A 
ATOM      4  C   UNL     1      46.471   4.044  14.011  0.00  0.00    +0.000 A 
ATOM      5  N   UNL     1      47.127   3.627  15.144  0.00  0.00    +0.000 N 
ATOM      6  N   UNL     1      46.015   3.049  13.225  0.00  0.00    +0.000 NA
ATOM      7  C   UNL     1      45.426   3.382  12.045  0.00  0.00    +0.000 A 
ATOM      8  H   UNL     1      47.054   2.618  15.230  0.00  0.00    +0.000 HD
ENDROOT
BRANCH   1  10
ATOM      9  N   UNL     1      45.465   5.144   9.221  0.00  0.00    +0.000 N 
ATOM     10  C   UNL     1      44.638   4.928  10.290  0.00  0.00    +0.000 C 
ATOM     11  O   UNL     1      43.422   4.906  10.157  0.00  0.00    +0.000 OA
ATOM     12  H   UNL     1      45.018   5.208   8.314  0.00  0.00    +0.000 HD
ATOM     13  H   UNL     1      46.449   4.922   9.239  0.00  0.00    +0.000 HD
ENDBRANCH   1  10
BRANCH   5  14
ATOM     14  C   UNL     1      47.156   4.373  16.385  0.00  0.00    +0.000 C 
BRANCH  14  15
ATOM     15  C   UNL     1      48.528   4.602  16.965  0.00  0.00    +0.000 A 
ATOM     16  C   UNL     1      48.893   5.906  17.290  0.00  0.00    +0.000 A 
ATOM     17  N   UNL     1      50.090   6.261  17.797  0.00  0.00    +0.000 NA
ATOM     18  C   UNL     1      50.983   5.263  17.995  0.00  0.00    +0.000 A 
ATOM     19  C   UNL     1      50.761   3.914  17.706  0.00  0.00    +0.000 A 
ATOM     20  C   UNL     1      49.492   3.607  17.181  0.00  0.00    +0.000 A 
BRANCH  19  21
ATOM     21  C   UNL     1      51.793   2.880  17.934  0.00  0.00    +0.000 A 
ATOM     22  C   UNL     1      51.650   1.564  17.470  0.00  0.00    +0.000 A 
ATOM     23  C   UNL     1      52.646   0.614  17.693  0.00  0.00    +0.000 A 
ATOM     24  C   UNL     1      53.776   0.997  18.391  0.00  0.00    +0.000 A 
ATOM     25  N   UNL     1      53.966   2.243  18.866  0.00  0.00    +0.000 NA
ATOM     26  C   UNL     1      52.981   3.145  18.624  0.00  0.00    +0.000 A 
ENDBRANCH  19  21
ENDBRANCH  14  15
ENDBRANCH   5  14
TORSDOF 4
ENDMDL
MODEL 9
REMARK VINA RESULT:    -6.290      4.114      8.269
REMARK INTER + INTRA:          -8.424
REMARK INTER:                  -8.017
REMARK INTRA:                  -0.407
REMARK UNBOUND:                -0.664
REMARK  Name = 
REMARK  4 active torsions:
REMARK  status: ('A' for Active; 'I' for Inactive)
REMARK    1  A    between atoms: C_2  and  C_4
REMARK    2  A    between atoms: N_8  and  C_9
REMARK    3  A    between atoms: C_9  and  C_10
REMARK    4  A    between atoms: C_14  and  C_15
REMARK                            x       y       z     vdW  Elec       q    Type
REMARK                         _______ _______ _______ _____ _____    ______ ____
ROOT
ATOM      1  C   UNL     1      50.885   5.072  17.507  0.00  0.00    +0.000 A 
ATOM      2  C   UNL     1      51.214   6.173  16.724  0.00  0.00    +0.000 A 
ATOM      3  C   UNL     1      50.237   6.739  15.902  0.00  0.00    +0.000 A 
ATOM      4  C   UNL     1      48.959   6.191  15.865  0.00  0.00    +0.000 A 
ATOM      5  N   UNL     1      47.915   6.727  15.151  0.00  0.00    +0.000 N 
ATOM      6  N   UNL     1      48.639   5.109  16.604  0.00  0.00    +0.000 NA
ATOM      7  C   UNL     1      49.599   4.570  17.401  0.00  0.00    +0.000 A 
ATOM      8  H   UNL     1      47.099   6.131  15.236  0.00  0.00    +0.000 HD
ENDROOT
BRANCH   1  10
ATOM      9  N   UNL     1      51.498   4.354  19.746  0.00  0.00    +0.000 N 
ATOM     10  C   UNL     1      51.841   4.418  18.423  0.00  0.00    +0.000 C 
ATOM     11  O   UNL     1      52.882   3.924  18.012  0.00  0.00    +0.000 OA
ATOM     12  H   UNL     1      52.114   3.814  20.343  0.00  0.00    +0.000 HD
ATOM     13  H   UNL     1      50.558   4.516  20.074  0.00  0.00    +0.000 HD
ENDBRANCH   1  10
BRANCH   5  14
ATOM     14  C   UNL     1      48.070   7.422  13.890  0.00  0.00    +0.000 C 
BRANCH  14  15
ATOM     15  C   UNL     1      46.901   7.308  12.944  0.00  0.00    +0.000 A 
ATOM     16  C   UNL     1      46.031   8.391  12.843  0.00  0.00    +0.000 A 
ATOM     17  N   UNL     1      44.939   8.422  12.055  0.00  0.00    +0.000 NA
ATOM     18  C   UNL     1      44.689   7.312  11.322  0.00  0.00    +0.000 A 
ATOM     19  C   UNL     1      45.465   6.150  11.331  0.00  0.00    +0.000 A 
ATOM     20  C   UNL     1      46.594   6.179  12.172  0.00  0.00    +0.000 A 
BRANCH  19  21
ATOM     21  C   UNL     1      45.120   4.967  10.514  0.00  0.00    +0.000 A 
ATOM     22  C   UNL     1      45.580   4.805   9.199  0.00  0.00    +0.000 A 
ATOM     23  C   UNL     1      45.243   3.672   8.457  0.00  0.00    +0.000 A 
ATOM     24  C   UNL     1      44.438   2.716   9.046  0.00  0.00    +0.000 A 
ATOM     25  N   UNL     1      43.962   2.819  10.301  0.00  0.00    +0.000 NA
ATOM     26  C   UNL     1      44.315   3.929  10.998  0.00  0.00    +0.000 A 
ENDBRANCH  19  21
ENDBRANCH  14  15
ENDBRANCH   5  14
TORSDOF 4
ENDMDL
