MODEL 1
REMARK VINA RESULT:    -7.368      0.000      0.000
REMARK INTER + INTRA:          -9.560
REMARK INTER:                  -9.306
REMARK INTRA:                  -0.254
REMARK UNBOUND:                -0.254
REMARK  Name = 
REMARK  5 active torsions:
REMARK  status: ('A' for Active; 'I' for Inactive)
REMARK    1  A    between atoms: N_1  and  C_2
REMARK    2  A    between atoms: C_2  and  C_3
REMARK    3  A    between atoms: C_6  and  C_7
REMARK    4  A    between atoms: C_7  and  N_8
REMARK    5  A    between atoms: C_13  and  C_14
REMARK                            x       y       z     vdW  Elec       q    Type
REMARK                         _______ _______ _______ _____ _____    ______ ____
ROOT
ATOM      1  N   UNL     1      44.385   4.693  10.398  0.00  0.00    +0.000 N 
ATOM      2  C   UNL     1      43.745   3.634  10.994  0.00  0.00    +0.000 A 
ATOM      3  C   UNL     1      44.123   2.485  10.332  0.00  0.00    +0.000 A 
ATOM      4  C   UNL     1      45.034   2.856   9.308  0.00  0.00    +0.000 A 
ATOM      5  C   UNL     1      45.722   2.174   8.287  0.00  0.00    +0.000 A 
ATOM      6  C   UNL     1      46.538   2.925   7.433  0.00  0.00    +0.000 A 
ATOM      7  C   UNL     1      46.662   4.293   7.670  0.00  0.00    +0.000 A 
ATOM      8  N   UNL     1      46.032   4.993   8.649  0.00  0.00    +0.000 NA
ATOM      9  C   UNL     1      45.224   4.231   9.411  0.00  0.00    +0.000 A 
ENDROOT
BRANCH   6  10
ATOM     10  C   UNL     1      47.262   2.356   6.270  0.00  0.00    +0.000 C 
ATOM     11  N   UNL     1      47.163   2.987   5.061  0.00  0.00    +0.000 N 
ATOM     12  O   UNL     1      47.953   1.351   6.380  0.00  0.00    +0.000 OA
ATOM     13  H   UNL     1      46.648   3.834   4.884  0.00  0.00    +0.000 HD
ATOM     14  H   UNL     1      47.699   2.593   4.298  0.00  0.00    +0.000 HD
ENDBRANCH   6  10
BRANCH   1  15
ATOM     15  C   UNL     1      44.203   6.087  10.763  0.00  0.00    +0.000 C 
BRANCH  15  19
ATOM     16  C   UNL     1      47.487   7.465  13.270  0.00  0.00    +0.000 C 
ATOM     17  C   UNL     1      46.254   8.376  13.200  0.00  0.00    +0.000 C 
ATOM     18  C   UNL     1      45.297   7.982  12.080  0.00  0.00    +0.000 C 
ATOM     19  C   UNL     1      44.884   6.497  12.091  0.00  0.00    +0.000 C 
ATOM     20  C   UNL     1      46.072   5.551  12.351  0.00  0.00    +0.000 C 
ATOM     21  C   UNL     1      47.002   6.022  13.466  0.00  0.00    +0.000 C 
BRANCH  16  22
ATOM     22  C   UNL     1      48.398   7.675  12.040  0.00  0.00    +0.000 C 
BRANCH  22  23
ATOM     23  N   UNL     1      49.733   7.115  12.228  0.00  0.00    +0.000 NA
ATOM     24  H   UNL     1      50.061   7.354  13.165  0.00  0.00    +0.000 HD
ATOM     25  H   UNL     1      50.385   7.562  11.587  0.00  0.00    +0.000 HD
ENDBRANCH  22  23
ENDBRANCH  16  22
ENDBRANCH  15  19
ENDBRANCH   1  15
TORSDOF 5
ENDMDL
MODEL 2
REMARK VINA RESULT:    -6.296      4.608      8.240
REMARK INTER + INTRA:          -8.206
REMARK INTER:                  -7.665
REMARK INTRA:                  -0.541
REMARK UNBOUND:                -0.254
REMARK  Name = 
REMARK  5 active torsions:
REMARK  status: ('A' for Active; 'I' for Inactive)
REMARK    1  A    between atoms: N_1  and  C_2
REMARK    2  A    between atoms: C_2  and  C_3
REMARK    3  A    between atoms: C_6  and  C_7
REMARK    4  A    between atoms: C_7  and  N_8
REMARK    5  A    between atoms: C_13  and  C_14
REMARK                            x       y       z     vdW  Elec       q    Type
REMARK                         _______ _______ _______ _____ _____    ______ ____
ROOT
ATOM      1  N   UNL     1      47.890   6.261  14.037  0.00  0.00    +0.000 N 
ATOM      2  C   UNL     1      48.337   7.559  14.078  0.00  0.00    +0.000 A 
ATOM      3  C   UNL     1      48.803   7.806  15.352  0.00  0.00    +0.000 A 
ATOM      4  C   UNL     1      48.648   6.613  16.108  0.00  0.00    +0.000 A 
ATOM      5  C   UNL     1      48.883   6.239  17.443  0.00  0.00    +0.000 A 
ATOM      6  C   UNL     1      48.566   4.929  17.822  0.00  0.00    +0.000 A 
ATOM      7  C   UNL     1      48.084   4.058  16.847  0.00  0.00    +0.000 A 
ATOM      8  N   UNL     1      47.855   4.366  15.544  0.00  0.00    +0.000 NA
ATOM      9  C   UNL     1      48.131   5.650  15.245  0.00  0.00    +0.000 A 
ENDROOT
BRANCH   6  10
ATOM     10  C   UNL     1      48.688   4.417  19.208  0.00  0.00    +0.000 C 
ATOM     11  N   UNL     1      48.352   3.116  19.460  0.00  0.00    +0.000 N 
ATOM     12  O   UNL     1      49.097   5.130  20.116  0.00  0.00    +0.000 OA
ATOM     13  H   UNL     1      48.040   2.448  18.773  0.00  0.00    +0.000 HD
ATOM     14  H   UNL     1      48.483   2.789  20.410  0.00  0.00    +0.000 HD
ENDBRANCH   6  10
BRANCH   1  15
ATOM     15  C   UNL     1      47.264   5.632  12.887  0.00  0.00    +0.000 C 
BRANCH  15  19
ATOM     16  C   UNL     1      43.199   4.682  11.647  0.00  0.00    +0.000 C 
ATOM     17  C   UNL     1      43.468   4.682  13.158  0.00  0.00    +0.000 C 
ATOM     18  C   UNL     1      44.957   4.718  13.487  0.00  0.00    +0.000 C 
ATOM     19  C   UNL     1      45.734   5.850  12.789  0.00  0.00    +0.000 C 
ATOM     20  C   UNL     1      45.350   6.009  11.306  0.00  0.00    +0.000 C 
ATOM     21  C   UNL     1      43.848   5.937  11.046  0.00  0.00    +0.000 C 
BRANCH  16  22
ATOM     22  C   UNL     1      43.655   3.353  11.006  0.00  0.00    +0.000 C 
BRANCH  22  23
ATOM     23  N   UNL     1      43.044   2.186  11.637  0.00  0.00    +0.000 NA
ATOM     24  H   UNL     1      42.184   1.955  11.138  0.00  0.00    +0.000 HD
ATOM     25  H   UNL     1      42.757   2.421  12.585  0.00  0.00    +0.000 HD
ENDBRANCH  22  23
ENDBRANCH  16  22
ENDBRANCH  15  19
ENDBRANCH   1  15
TORSDOF 5
ENDMDL
MODEL 3
REMARK VINA RESULT:    -6.083      3.944      5.944
REMARK INTER + INTRA:          -7.937
REMARK INTER:                  -7.450
REMARK INTRA:                  -0.487
REMARK UNBOUND:                -0.254
REMARK  Name = 
REMARK  5 active torsions:
REMARK  status: ('A' for Active; 'I' for Inactive)
REMARK    1  A    between atoms: N_1  and  C_2
REMARK    2  A    between atoms: C_2  and  C_3
REMARK    3  A    between atoms: C_6  and  C_7
REMARK    4  A    between atoms: C_7  and  N_8
REMARK    5  A    between atoms: C_13  and  C_14
REMARK                            x       y       z     vdW  Elec       q    Type
REMARK                         _______ _______ _______ _____ _____    ______ ____
ROOT
ATOM      1  N   UNL     1      47.617   6.750  13.832  0.00  0.00    +0.000 N 
ATOM      2  C   UNL     1      48.436   7.463  12.990  0.00  0.00    +0.000 A 
ATOM      3  C   UNL     1      47.985   7.272  11.701  0.00  0.00    +0.000 A 
ATOM      4  C   UNL     1      46.845   6.427  11.761  0.00  0.00    +0.000 A 
ATOM      5  C   UNL     1      45.984   5.841  10.816  0.00  0.00    +0.000 A 
ATOM      6  C   UNL     1      44.953   5.021  11.288  0.00  0.00    +0.000 A 
ATOM      7  C   UNL     1      44.807   4.871  12.666  0.00  0.00    +0.000 A 
ATOM      8  N   UNL     1      45.601   5.426  13.618  0.00  0.00    +0.000 NA
ATOM      9  C   UNL     1      46.604   6.166  13.108  0.00  0.00    +0.000 A 
ENDROOT
BRANCH   6  10
ATOM     10  C   UNL     1      44.019   4.278  10.409  0.00  0.00    +0.000 C 
ATOM     11  N   UNL     1      44.115   4.449   9.055  0.00  0.00    +0.000 N 
ATOM     12  O   UNL     1      43.185   3.509  10.870  0.00  0.00    +0.000 OA
ATOM     13  H   UNL     1      44.788   5.031   8.584  0.00  0.00    +0.000 HD
ATOM     14  H   UNL     1      43.486   3.899   8.482  0.00  0.00    +0.000 HD
ENDBRANCH   6  10
BRANCH   1  15
ATOM     15  C   UNL     1      47.795   6.640  15.269  0.00  0.00    +0.000 C 
BRANCH  15  19
ATOM     16  C   UNL     1      49.305   3.745  18.152  0.00  0.00    +0.000 C 
ATOM     17  C   UNL     1      48.331   3.208  17.093  0.00  0.00    +0.000 C 
ATOM     18  C   UNL     1      47.623   4.324  16.331  0.00  0.00    +0.000 C 
ATOM     19  C   UNL     1      48.569   5.378  15.725  0.00  0.00    +0.000 C 
ATOM     20  C   UNL     1      49.684   5.806  16.698  0.00  0.00    +0.000 C 
ATOM     21  C   UNL     1      50.330   4.642  17.446  0.00  0.00    +0.000 C 
BRANCH  16  22
ATOM     22  C   UNL     1      48.540   4.427  19.307  0.00  0.00    +0.000 C 
BRANCH  22  23
ATOM     23  N   UNL     1      48.337   3.539  20.448  0.00  0.00    +0.000 NA
ATOM     24  H   UNL     1      47.387   3.167  20.410  0.00  0.00    +0.000 HD
ATOM     25  H   UNL     1      48.387   4.075  21.313  0.00  0.00    +0.000 HD
ENDBRANCH  22  23
ENDBRANCH  16  22
ENDBRANCH  15  19
ENDBRANCH   1  15
TORSDOF 5
ENDMDL
MODEL 4
REMARK VINA RESULT:    -5.912      3.079      4.857
REMARK INTER + INTRA:          -7.721
REMARK INTER:                  -7.419
REMARK INTRA:                  -0.302
REMARK UNBOUND:                -0.254
REMARK  Name = 
REMARK  5 active torsions:
REMARK  status: ('A' for Active; 'I' for Inactive)
REMARK    1  A    between atoms: N_1  and  C_2
REMARK    2  A    between atoms: C_2  and  C_3
REMARK    3  A    between atoms: C_6  and  C_7
REMARK    4  A    between atoms: C_7  and  N_8
REMARK    5  A    between atoms: C_13  and  C_14
REMARK                            x       y       z     vdW  Elec       q    Type
REMARK                         _______ _______ _______ _____ _____    ______ ____
ROOT
ATOM      1  N   UNL     1      47.237   6.865  13.222  0.00  0.00    +0.000 N 
ATOM      2  C   UNL     1      47.732   6.267  14.355  0.00  0.00    +0.000 A 
ATOM      3  C   UNL     1      47.258   4.972  14.391  0.00  0.00    +0.000 A 
ATOM      4  C   UNL     1      46.459   4.771  13.234  0.00  0.00    +0.000 A 
ATOM      5  C   UNL     1      45.682   3.714  12.728  0.00  0.00    +0.000 A 
ATOM      6  C   UNL     1      44.999   3.922  11.524  0.00  0.00    +0.000 A 
ATOM      7  C   UNL     1      45.167   5.141  10.870  0.00  0.00    +0.000 A 
ATOM      8  N   UNL     1      45.917   6.185  11.310  0.00  0.00    +0.000 NA
ATOM      9  C   UNL     1      46.513   5.950  12.494  0.00  0.00    +0.000 A 
ENDROOT
BRANCH   6  10
ATOM     10  C   UNL     1      44.084   2.928  10.910  0.00  0.00    +0.000 C 
ATOM     11  N   UNL     1      44.527   2.201   9.840  0.00  0.00    +0.000 N 
ATOM     12  O   UNL     1      42.959   2.740  11.355  0.00  0.00    +0.000 OA
ATOM     13  H   UNL     1      45.444   2.262   9.429  0.00  0.00    +0.000 HD
ATOM     14  H   UNL     1      43.890   1.505   9.469  0.00  0.00    +0.000 HD
ENDBRANCH   6  10
BRANCH   1  15
ATOM     15  C   UNL     1      47.453   8.253  12.851  0.00  0.00    +0.000 C 
BRANCH  15  19
ATOM     16  C   UNL     1      51.478   9.060  11.396  0.00  0.00    +0.000 C 
ATOM     17  C   UNL     1      50.890   7.687  11.046  0.00  0.00    +0.000 C 
ATOM     18  C   UNL     1      49.626   7.372  11.840  0.00  0.00    +0.000 C 
ATOM     19  C   UNL     1      48.544   8.467  11.774  0.00  0.00    +0.000 C 
ATOM     20  C   UNL     1      49.124   9.885  11.931  0.00  0.00    +0.000 C 
ATOM     21  C   UNL     1      50.401  10.122  11.130  0.00  0.00    +0.000 C 
BRANCH  16  22
ATOM     22  C   UNL     1      52.046   9.066  12.832  0.00  0.00    +0.000 C 
BRANCH  22  23
ATOM     23  N   UNL     1      53.002   7.987  13.063  0.00  0.00    +0.000 NA
ATOM     24  H   UNL     1      52.511   7.094  13.001  0.00  0.00    +0.000 HD
ATOM     25  H   UNL     1      53.356   8.041  14.016  0.00  0.00    +0.000 HD
ENDBRANCH  22  23
ENDBRANCH  16  22
ENDBRANCH  15  19
ENDBRANCH   1  15
TORSDOF 5
ENDMDL
MODEL 5
REMARK VINA RESULT:    -5.656      3.964      6.550
REMARK INTER + INTRA:          -7.397
REMARK INTER:                  -7.135
REMARK INTRA:                  -0.262
REMARK UNBOUND:                -0.254
REMARK  Name = 
REMARK  5 active torsions:
REMARK  status: ('A' for Active; 'I' for Inactive)
REMARK    1  A    between atoms: N_1  and  C_2
REMARK    2  A    between atoms: C_2  and  C_3
REMARK    3  A    between atoms: C_6  and  C_7
REMARK    4  A    between atoms: C_7  and  N_8
REMARK    5  A    between atoms: C_13  and  C_14
REMARK                            x       y       z     vdW  Elec       q    Type
REMARK                         _______ _______ _______ _____ _____    ______ ____
ROOT
ATOM      1  N   UNL     1      48.593   7.513  14.064  0.00  0.00    +0.000 N 
ATOM      2  C   UNL     1      48.039   8.706  13.669  0.00  0.00    +0.000 A 
ATOM      3  C   UNL     1      46.791   8.439  13.147  0.00  0.00    +0.000 A 
ATOM      4  C   UNL     1      46.573   7.038  13.240  0.00  0.00    +0.000 A 
ATOM      5  C   UNL     1      45.547   6.158  12.851  0.00  0.00    +0.000 A 
ATOM      6  C   UNL     1      45.722   4.793  13.106  0.00  0.00    +0.000 A 
ATOM      7  C   UNL     1      46.877   4.389  13.774  0.00  0.00    +0.000 A 
ATOM      8  N   UNL     1      47.887   5.200  14.183  0.00  0.00    +0.000 NA
ATOM      9  C   UNL     1      47.689   6.495  13.870  0.00  0.00    +0.000 A 
ENDROOT
BRANCH   6  10
ATOM     10  C   UNL     1      44.763   3.744  12.685  0.00  0.00    +0.000 C 
ATOM     11  N   UNL     1      45.117   2.899  11.669  0.00  0.00    +0.000 N 
ATOM     12  O   UNL     1      43.679   3.613  13.240  0.00  0.00    +0.000 OA
ATOM     13  H   UNL     1      45.997   2.909  11.180  0.00  0.00    +0.000 HD
ATOM     14  H   UNL     1      44.454   2.171  11.433  0.00  0.00    +0.000 HD
ENDBRANCH   6  10
BRANCH   1  15
ATOM     15  C   UNL     1      49.931   7.357  14.609  0.00  0.00    +0.000 C 
BRANCH  15  19
ATOM     16  C   UNL     1      48.768   6.245  18.656  0.00  0.00    +0.000 C 
ATOM     17  C   UNL     1      50.201   5.889  18.237  0.00  0.00    +0.000 C 
ATOM     18  C   UNL     1      50.423   6.030  16.734  0.00  0.00    +0.000 C 
ATOM     19  C   UNL     1      50.003   7.395  16.155  0.00  0.00    +0.000 C 
ATOM     20  C   UNL     1      48.647   7.880  16.702  0.00  0.00    +0.000 C 
ATOM     21  C   UNL     1      48.483   7.685  18.207  0.00  0.00    +0.000 C 
BRANCH  16  22
ATOM     22  C   UNL     1      47.764   5.196  18.129  0.00  0.00    +0.000 C 
BRANCH  22  23
ATOM     23  N   UNL     1      46.427   5.366  18.691  0.00  0.00    +0.000 NA
ATOM     24  H   UNL     1      46.094   6.305  18.471  0.00  0.00    +0.000 HD
ATOM     25  H   UNL     1      46.475   5.322  19.707  0.00  0.00    +0.000 HD
ENDBRANCH  22  23
ENDBRANCH  16  22
ENDBRANCH  15  19
ENDBRANCH   1  15
TORSDOF 5
ENDMDL
MODEL 6
REMARK VINA RESULT:    -5.392      2.901      6.962
REMARK INTER + INTRA:          -7.064
REMARK INTER:                  -6.509
REMARK INTRA:                  -0.555
REMARK UNBOUND:                -0.254
REMARK  Name = 
REMARK  5 active torsions:
REMARK  status: ('A' for Active; 'I' for Inactive)
REMARK    1  A    between atoms: N_1  and  C_2
REMARK    2  A    between atoms: C_2  and  C_3
REMARK    3  A    between atoms: C_6  and  C_7
REMARK    4  A    between atoms: C_7  and  N_8
REMARK    5  A    between atoms: C_13  and  C_14
REMARK                            x       y       z     vdW  Elec       q    Type
REMARK                         _______ _______ _______ _____ _____    ______ ____
ROOT
ATOM      1  N   UNL     1      44.874   5.726  11.269  0.00  0.00    +0.000 N 
ATOM      2  C   UNL     1      43.871   6.633  11.031  0.00  0.00    +0.000 A 
ATOM      3  C   UNL     1      44.176   7.790  11.717  0.00  0.00    +0.000 A 
ATOM      4  C   UNL     1      45.413   7.584  12.383  0.00  0.00    +0.000 A 
ATOM      5  C   UNL     1      46.216   8.340  13.257  0.00  0.00    +0.000 A 
ATOM      6  C   UNL     1      47.395   7.756  13.734  0.00  0.00    +0.000 A 
ATOM      7  C   UNL     1      47.731   6.482  13.281  0.00  0.00    +0.000 A 
ATOM      8  N   UNL     1      46.999   5.719  12.428  0.00  0.00    +0.000 NA
ATOM      9  C   UNL     1      45.853   6.309  12.038  0.00  0.00    +0.000 A 
ENDROOT
BRANCH   6  10
ATOM     10  C   UNL     1      48.298   8.402  14.717  0.00  0.00    +0.000 C 
ATOM     11  N   UNL     1      47.761   9.250  15.645  0.00  0.00    +0.000 N 
ATOM     12  O   UNL     1      49.502   8.175  14.720  0.00  0.00    +0.000 OA
ATOM     13  H   UNL     1      46.783   9.470  15.741  0.00  0.00    +0.000 HD
ATOM     14  H   UNL     1      48.401   9.645  16.324  0.00  0.00    +0.000 HD
ENDBRANCH   6  10
BRANCH   1  15
ATOM     15  C   UNL     1      44.893   4.359  10.776  0.00  0.00    +0.000 C 
BRANCH  15  19
ATOM     16  C   UNL     1      46.253   2.895   6.906  0.00  0.00    +0.000 C 
ATOM     17  C   UNL     1      44.824   2.514   7.315  0.00  0.00    +0.000 C 
ATOM     18  C   UNL     1      44.541   2.797   8.787  0.00  0.00    +0.000 C 
ATOM     19  C   UNL     1      44.876   4.233   9.233  0.00  0.00    +0.000 C 
ATOM     20  C   UNL     1      46.227   4.727   8.681  0.00  0.00    +0.000 C 
ATOM     21  C   UNL     1      46.454   4.386   7.211  0.00  0.00    +0.000 C 
BRANCH  16  22
ATOM     22  C   UNL     1      47.285   1.958   7.572  0.00  0.00    +0.000 C 
BRANCH  22  23
ATOM     23  N   UNL     1      47.024   0.548   7.294  0.00  0.00    +0.000 NA
ATOM     24  H   UNL     1      46.534   0.474   6.402  0.00  0.00    +0.000 HD
ATOM     25  H   UNL     1      46.383   0.175   7.992  0.00  0.00    +0.000 HD
ENDBRANCH  22  23
ENDBRANCH  16  22
ENDBRANCH  15  19
ENDBRANCH   1  15
TORSDOF 5
ENDMDL
MODEL 7
REMARK VINA RESULT:    -5.202      5.360      8.392
REMARK INTER + INTRA:          -6.824
REMARK INTER:                  -6.515
REMARK INTRA:                  -0.309
REMARK UNBOUND:                -0.254
REMARK  Name = 
REMARK  5 active torsions:
REMARK  status: ('A' for Active; 'I' for Inactive)
REMARK    1  A    between atoms: N_1  and  C_2
REMARK    2  A    between atoms: C_2  and  C_3
REMARK    3  A    between atoms: C_6  and  C_7
REMARK    4  A    between atoms: C_7  and  N_8
REMARK    5  A    between atoms: C_13  and  C_14
REMARK                            x       y       z     vdW  Elec       q    Type
REMARK                         _______ _______ _______ _____ _____    ______ ____
ROOT
ATOM      1  N   UNL     1      48.176   4.882  16.248  0.00  0.00    +0.000 N 
ATOM      2  C   UNL     1      47.362   3.815  16.540  0.00  0.00    +0.000 A 
ATOM      3  C   UNL     1      48.118   2.882  17.219  0.00  0.00    +0.000 A 
ATOM      4  C   UNL     1      49.431   3.406  17.356  0.00  0.00    +0.000 A 
ATOM      5  C   UNL     1      50.643   2.936  17.894  0.00  0.00    +0.000 A 
ATOM      6  C   UNL     1      51.763   3.771  17.812  0.00  0.00    +0.000 A 
ATOM      7  C   UNL     1      51.604   5.037  17.250  0.00  0.00    +0.000 A 
ATOM      8  N   UNL     1      50.454   5.541  16.732  0.00  0.00    +0.000 NA
ATOM      9  C   UNL     1      49.421   4.679  16.794  0.00  0.00    +0.000 A 
ENDROOT
BRANCH   6  10
ATOM     10  C   UNL     1      53.120   3.381  18.266  0.00  0.00    +0.000 C 
ATOM     11  N   UNL     1      53.238   2.460  19.270  0.00  0.00    +0.000 N 
ATOM     12  O   UNL     1      54.125   3.853  17.748  0.00  0.00    +0.000 OA
ATOM     13  H   UNL     1      52.473   1.994  19.730  0.00  0.00    +0.000 HD
ATOM     14  H   UNL     1      54.179   2.189  19.530  0.00  0.00    +0.000 HD
ENDBRANCH   6  10
BRANCH   1  15
ATOM     15  C   UNL     1      47.773   6.050  15.482  0.00  0.00    +0.000 C 
BRANCH  15  19
ATOM     16  C   UNL     1      46.101   6.589  11.497  0.00  0.00    +0.000 C 
ATOM     17  C   UNL     1      47.557   7.034  11.691  0.00  0.00    +0.000 C 
ATOM     18  C   UNL     1      47.958   7.098  13.162  0.00  0.00    +0.000 C 
ATOM     19  C   UNL     1      47.665   5.811  13.957  0.00  0.00    +0.000 C 
ATOM     20  C   UNL     1      46.276   5.222  13.644  0.00  0.00    +0.000 C 
ATOM     21  C   UNL     1      45.930   5.214  12.158  0.00  0.00    +0.000 C 
BRANCH  16  22
ATOM     22  C   UNL     1      45.122   7.671  12.004  0.00  0.00    +0.000 C 
BRANCH  22  23
ATOM     23  N   UNL     1      43.837   7.635  11.312  0.00  0.00    +0.000 NA
ATOM     24  H   UNL     1      43.938   8.091  10.405  0.00  0.00    +0.000 HD
ATOM     25  H   UNL     1      43.156   8.192  11.825  0.00  0.00    +0.000 HD
ENDBRANCH  22  23
ENDBRANCH  16  22
ENDBRANCH  15  19
ENDBRANCH   1  15
TORSDOF 5
ENDMDL
MODEL 8
REMARK VINA RESULT:    -5.194      3.471      5.806
REMARK INTER + INTRA:          -6.814
REMARK INTER:                  -6.375
REMARK INTRA:                  -0.439
REMARK UNBOUND:                -0.254
REMARK  Name = 
REMARK  5 active torsions:
REMARK  status: ('A' for Active; 'I' for Inactive)
REMARK    1  A    between atoms: N_1  and  C_2
REMARK    2  A    between atoms: C_2  and  C_3
REMARK    3  A    between atoms: C_6  and  C_7
REMARK    4  A    between atoms: C_7  and  N_8
REMARK    5  A    between atoms: C_13  and  C_14
REMARK                            x       y       z     vdW  Elec       q    Type
REMARK                         _______ _______ _______ _____ _____    ______ ____
ROOT
ATOM      1  N   UNL     1      48.129   7.016  12.484  0.00  0.00    +0.000 N 
ATOM      2  C   UNL     1      48.524   6.703  13.761  0.00  0.00    +0.000 A 
ATOM      3  C   UNL     1      47.587   5.844  14.294  0.00  0.00    +0.000 A 
ATOM      4  C   UNL     1      46.595   5.616  13.303  0.00  0.00    +0.000 A 
ATOM      5  C   UNL     1      45.389   4.895  13.244  0.00  0.00    +0.000 A 
ATOM      6  C   UNL     1      44.657   4.939  12.052  0.00  0.00    +0.000 A 
ATOM      7  C   UNL     1      45.188   5.652  10.977  0.00  0.00    +0.000 A 
ATOM      8  N   UNL     1      46.353   6.350  10.980  0.00  0.00    +0.000 NA
ATOM      9  C   UNL     1      46.991   6.313  12.165  0.00  0.00    +0.000 A 
ENDROOT
BRANCH   6  10
ATOM     10  C   UNL     1      43.335   4.294  11.868  0.00  0.00    +0.000 C 
ATOM     11  N   UNL     1      42.219   5.083  11.818  0.00  0.00    +0.000 N 
ATOM     12  O   UNL     1      43.232   3.079  11.745  0.00  0.00    +0.000 OA
ATOM     13  H   UNL     1      42.210   6.088  11.875  0.00  0.00    +0.000 HD
ATOM     14  H   UNL     1      41.337   4.612  11.655  0.00  0.00    +0.000 HD
ENDBRANCH   6  10
BRANCH   1  15
ATOM     15  C   UNL     1      48.817   7.946  11.605  0.00  0.00    +0.000 C 
BRANCH  15  19
ATOM     16  C   UNL     1      52.890   9.240  10.762  0.00  0.00    +0.000 C 
ATOM     17  C   UNL     1      52.248   9.798  12.040  0.00  0.00    +0.000 C 
ATOM     18  C   UNL     1      50.745   9.547  12.097  0.00  0.00    +0.000 C 
ATOM     19  C   UNL     1      50.336   8.079  11.872  0.00  0.00    +0.000 C 
ATOM     20  C   UNL     1      51.103   7.420  10.710  0.00  0.00    +0.000 C 
ATOM     21  C   UNL     1      52.597   7.734  10.700  0.00  0.00    +0.000 C 
BRANCH  16  22
ATOM     22  C   UNL     1      52.429  10.037   9.522  0.00  0.00    +0.000 C 
BRANCH  22  23
ATOM     23  N   UNL     1      53.031   9.547   8.285  0.00  0.00    +0.000 NA
ATOM     24  H   UNL     1      53.632   8.752   8.503  0.00  0.00    +0.000 HD
ATOM     25  H   UNL     1      53.647  10.260   7.898  0.00  0.00    +0.000 HD
ENDBRANCH  22  23
ENDBRANCH  16  22
ENDBRANCH  15  19
ENDBRANCH   1  15
TORSDOF 5
ENDMDL
MODEL 9
REMARK VINA RESULT:    -5.104      3.803      5.768
REMARK INTER + INTRA:          -6.701
REMARK INTER:                  -6.260
REMARK INTRA:                  -0.440
REMARK UNBOUND:                -0.254
REMARK  Name = 
REMARK  5 active torsions:
REMARK  status: ('A' for Active; 'I' for Inactive)
REMARK    1  A    between atoms: N_1  and  C_2
REMARK    2  A    between atoms: C_2  and  C_3
REMARK    3  A    between atoms: C_6  and  C_7
REMARK    4  A    between atoms: C_7  and  N_8
REMARK    5  A    between atoms: C_13  and  C_14
REMARK                            x       y       z     vdW  Elec       q    Type
REMARK                         _______ _______ _______ _____ _____    ______ ____
ROOT
ATOM      1  N   UNL     1      47.523   6.883  13.714  0.00  0.00    +0.000 N 
ATOM      2  C   UNL     1      47.532   8.156  13.198  0.00  0.00    +0.000 A 
ATOM      3  C   UNL     1      46.663   8.184  12.128  0.00  0.00    +0.000 A 
ATOM      4  C   UNL     1      46.096   6.889  11.997  0.00  0.00    +0.000 A 
ATOM      5  C   UNL     1      45.202   6.275  11.100  0.00  0.00    +0.000 A 
ATOM      6  C   UNL     1      44.898   4.924  11.301  0.00  0.00    +0.000 A 
ATOM      7  C   UNL     1      45.456   4.277  12.402  0.00  0.00    +0.000 A 
ATOM      8  N   UNL     1      46.310   4.829  13.303  0.00  0.00    +0.000 NA
ATOM      9  C   UNL     1      46.606   6.115  13.036  0.00  0.00    +0.000 A 
ENDROOT
BRANCH   6  10
ATOM     10  C   UNL     1      44.035   4.127  10.395  0.00  0.00    +0.000 C 
ATOM     11  N   UNL     1      44.025   4.431   9.061  0.00  0.00    +0.000 N 
ATOM     12  O   UNL     1      43.353   3.202  10.817  0.00  0.00    +0.000 OA
ATOM     13  H   UNL     1      44.576   5.149   8.620  0.00  0.00    +0.000 HD
ATOM     14  H   UNL     1      43.453   3.843   8.466  0.00  0.00    +0.000 HD
ENDBRANCH   6  10
BRANCH   1  15
ATOM     15  C   UNL     1      48.355   6.426  14.814  0.00  0.00    +0.000 C 
BRANCH  15  19
ATOM     16  C   UNL     1      50.979   8.125  17.845  0.00  0.00    +0.000 C 
ATOM     17  C   UNL     1      51.559   8.010  16.429  0.00  0.00    +0.000 C 
ATOM     18  C   UNL     1      50.704   7.137  15.516  0.00  0.00    +0.000 C 
ATOM     19  C   UNL     1      49.216   7.531  15.471  0.00  0.00    +0.000 C 
ATOM     20  C   UNL     1      48.641   7.844  16.865  0.00  0.00    +0.000 C 
ATOM     21  C   UNL     1      49.560   8.699  17.734  0.00  0.00    +0.000 C 
BRANCH  16  22
ATOM     22  C   UNL     1      51.071   6.774  18.589  0.00  0.00    +0.000 C 
BRANCH  22  23
ATOM     23  N   UNL     1      50.375   6.792  19.873  0.00  0.00    +0.000 NA
ATOM     24  H   UNL     1      50.715   6.016  20.442  0.00  0.00    +0.000 HD
ATOM     25  H   UNL     1      49.383   6.612  19.728  0.00  0.00    +0.000 HD
ENDBRANCH  22  23
ENDBRANCH  16  22
ENDBRANCH  15  19
ENDBRANCH   1  15
TORSDOF 5
ENDMDL
