MODEL 1
REMARK VINA RESULT:    -8.192      0.000      0.000
REMARK INTER + INTRA:         -12.081
REMARK INTER:                 -11.066
REMARK INTRA:                  -1.016
REMARK UNBOUND:                -1.016
REMARK  Name = 
REMARK  6 active torsions:
REMARK  status: ('A' for Active; 'I' for Inactive)
REMARK    1  A    between atoms: C_2  and  C_25
REMARK    2  A    between atoms: N_3  and  C_4
REMARK    3  A    between atoms: C_4  and  C_5
REMARK    4  A    between atoms: C_8  and  C_9
REMARK    5  A    between atoms: C_9  and  N_10
REMARK    6  A    between atoms: C_11  and  C_13
REMARK                            x       y       z     vdW  Elec       q    Type
REMARK                         _______ _______ _______ _____ _____    ______ ____
ROOT
ATOM      1  C   UNL     1      45.020   6.309  11.228  0.00  0.00    +0.000 A 
ATOM      2  C   UNL     1      44.603   7.561  11.677  0.00  0.00    +0.000 A 
ATOM      3  C   UNL     1      45.415   8.271  12.561  0.00  0.00    +0.000 A 
ATOM      4  C   UNL     1      46.640   7.734  12.962  0.00  0.00    +0.000 A 
ATOM      5  C   UNL     1      46.971   6.476  12.468  0.00  0.00    +0.000 A 
ATOM      6  N   UNL     1      46.203   5.760  11.613  0.00  0.00    +0.000 NA
ENDROOT
BRANCH   1   7
ATOM      7  C   UNL     1      44.156   5.510  10.278  0.00  0.00    +0.000 C 
BRANCH   7  10
ATOM      8  O   UNL     1      44.346   2.696  10.109  0.00  0.00    +0.000 OA
ATOM      9  C   UNL     1      44.948   3.379   9.284  0.00  0.00    +0.000 C 
ATOM     10  N   UNL     1      44.926   4.763   9.308  0.00  0.00    +0.000 N 
ATOM     11  H   UNL     1      45.362   5.255   8.535  0.00  0.00    +0.000 HD
BRANCH   9  12
ATOM     12  C   UNL     1      45.770   2.771   8.166  0.00  0.00    +0.000 A 
ATOM     13  N   UNL     1      46.210   1.506   8.330  0.00  0.00    +0.000 NA
ATOM     14  C   UNL     1      46.937   1.003   7.318  0.00  0.00    +0.000 A 
ATOM     15  C   UNL     1      47.238   1.707   6.175  0.00  0.00    +0.000 A 
ATOM     16  C   UNL     1      46.744   2.992   6.112  0.00  0.00    +0.000 A 
ATOM     17  N   UNL     1      46.004   3.556   7.085  0.00  0.00    +0.000 NA
ENDBRANCH   9  12
ENDBRANCH   7  10
ENDBRANCH   1   7
BRANCH   4  18
ATOM     18  C   UNL     1      47.552   8.458  13.910  0.00  0.00    +0.000 C 
BRANCH  18  19
ATOM     19  N   UNL     1      47.872   7.647  15.058  0.00  0.00    +0.000 N 
ATOM     20  C   UNL     1      49.075   6.995  15.157  0.00  0.00    +0.000 C 
ATOM     21  O   UNL     1      49.956   7.122  14.309  0.00  0.00    +0.000 OA
ATOM     22  H   UNL     1      47.100   7.352  15.647  0.00  0.00    +0.000 HD
BRANCH  20  23
ATOM     23  C   UNL     1      49.280   6.179  16.361  0.00  0.00    +0.000 A 
ATOM     24  C   UNL     1      50.302   6.499  17.246  0.00  0.00    +0.000 A 
ATOM     25  S   UNL     1      50.365   5.482  18.614  0.00  0.00    +0.000 S 
ATOM     26  C   UNL     1      49.061   4.547  18.047  0.00  0.00    +0.000 A 
ATOM     27  N   UNL     1      48.608   3.476  18.754  0.00  0.00    +0.000 NA
ATOM     28  C   UNL     1      47.634   2.840  18.192  0.00  0.00    +0.000 A 
ATOM     29  N   UNL     1      47.069   3.180  16.991  0.00  0.00    +0.000 N 
ATOM     30  C   UNL     1      47.476   4.267  16.256  0.00  0.00    +0.000 A 
ATOM     31  O   UNL     1      46.925   4.569  15.202  0.00  0.00    +0.000 OA
ATOM     32  C   UNL     1      48.576   5.013  16.839  0.00  0.00    +0.000 A 
ATOM     33  H   UNL     1      46.303   2.645  16.609  0.00  0.00    +0.000 HD
ENDBRANCH  20  23
ENDBRANCH  18  19
ENDBRANCH   4  18
TORSDOF 6
ENDMDL
MODEL 2
REMARK VINA RESULT:    -7.835      0.796      1.080
REMARK INTER + INTRA:         -11.599
REMARK INTER:                 -10.566
REMARK INTRA:                  -1.033
REMARK UNBOUND:                -1.016
REMARK  Name = 
REMARK  6 active torsions:
REMARK  status: ('A' for Active; 'I' for Inactive)
REMARK    1  A    between atoms: C_2  and  C_25
REMARK    2  A    between atoms: N_3  and  C_4
REMARK    3  A    between atoms: C_4  and  C_5
REMARK    4  A    between atoms: C_8  and  C_9
REMARK    5  A    between atoms: C_9  and  N_10
REMARK    6  A    between atoms: C_11  and  C_13
REMARK                            x       y       z     vdW  Elec       q    Type
REMARK                         _______ _______ _______ _____ _____    ______ ____
ROOT
ATOM      1  C   UNL     1      45.185   6.400  11.417  0.00  0.00    +0.000 A 
ATOM      2  C   UNL     1      46.426   5.903  11.813  0.00  0.00    +0.000 A 
ATOM      3  C   UNL     1      47.224   6.668  12.664  0.00  0.00    +0.000 A 
ATOM      4  C   UNL     1      46.762   7.901  13.126  0.00  0.00    +0.000 A 
ATOM      5  C   UNL     1      45.515   8.320  12.673  0.00  0.00    +0.000 A 
ATOM      6  N   UNL     1      44.719   7.603  11.844  0.00  0.00    +0.000 NA
ENDROOT
BRANCH   1   7
ATOM      7  C   UNL     1      44.302   5.599  10.486  0.00  0.00    +0.000 C 
BRANCH   7  10
ATOM      8  O   UNL     1      44.012   2.831  10.002  0.00  0.00    +0.000 OA
ATOM      9  C   UNL     1      44.833   3.463   9.342  0.00  0.00    +0.000 C 
ATOM     10  N   UNL     1      45.053   4.817   9.530  0.00  0.00    +0.000 N 
ATOM     11  H   UNL     1      45.672   5.288   8.878  0.00  0.00    +0.000 HD
BRANCH   9  12
ATOM     12  C   UNL     1      45.680   2.821   8.263  0.00  0.00    +0.000 A 
ATOM     13  N   UNL     1      46.065   1.541   8.449  0.00  0.00    +0.000 NA
ATOM     14  C   UNL     1      46.816   1.007   7.471  0.00  0.00    +0.000 A 
ATOM     15  C   UNL     1      47.195   1.695   6.341  0.00  0.00    +0.000 A 
ATOM     16  C   UNL     1      46.752   2.997   6.253  0.00  0.00    +0.000 A 
ATOM     17  N   UNL     1      45.991   3.591   7.191  0.00  0.00    +0.000 NA
ENDBRANCH   9  12
ENDBRANCH   7  10
ENDBRANCH   1   7
BRANCH   4  18
ATOM     18  C   UNL     1      47.581   8.762  14.044  0.00  0.00    +0.000 C 
BRANCH  18  19
ATOM     19  N   UNL     1      47.905   8.071  15.267  0.00  0.00    +0.000 N 
ATOM     20  C   UNL     1      49.183   7.648  15.530  0.00  0.00    +0.000 C 
ATOM     21  O   UNL     1      50.118   7.894  14.771  0.00  0.00    +0.000 OA
ATOM     22  H   UNL     1      47.133   7.669  15.790  0.00  0.00    +0.000 HD
BRANCH  20  23
ATOM     23  C   UNL     1      49.389   6.935  16.797  0.00  0.00    +0.000 A 
ATOM     24  C   UNL     1      50.135   7.525  17.809  0.00  0.00    +0.000 A 
ATOM     25  S   UNL     1      50.230   6.583  19.228  0.00  0.00    +0.000 S 
ATOM     26  C   UNL     1      49.319   5.330  18.523  0.00  0.00    +0.000 A 
ATOM     27  N   UNL     1      49.045   4.191  19.213  0.00  0.00    +0.000 NA
ATOM     28  C   UNL     1      48.371   3.313  18.546  0.00  0.00    +0.000 A 
ATOM     29  N   UNL     1      47.944   3.472  17.254  0.00  0.00    +0.000 N 
ATOM     30  C   UNL     1      48.175   4.616  16.528  0.00  0.00    +0.000 A 
ATOM     31  O   UNL     1      47.746   4.746  15.386  0.00  0.00    +0.000 OA
ATOM     32  C   UNL     1      48.936   5.633  17.228  0.00  0.00    +0.000 A 
ATOM     33  H   UNL     1      47.412   2.750  16.790  0.00  0.00    +0.000 HD
ENDBRANCH  20  23
ENDBRANCH  18  19
ENDBRANCH   4  18
TORSDOF 6
ENDMDL
MODEL 3
REMARK VINA RESULT:    -7.115      3.051      8.486
REMARK INTER + INTRA:         -10.626
REMARK INTER:                  -9.741
REMARK INTRA:                  -0.886
REMARK UNBOUND:                -1.016
REMARK  Name = 
REMARK  6 active torsions:
REMARK  status: ('A' for Active; 'I' for Inactive)
REMARK    1  A    between atoms: C_2  and  C_25
REMARK    2  A    between atoms: N_3  and  C_4
REMARK    3  A    between atoms: C_4  and  C_5
REMARK    4  A    between atoms: C_8  and  C_9
REMARK    5  A    between atoms: C_9  and  N_10
REMARK    6  A    between atoms: C_11  and  C_13
REMARK                            x       y       z     vdW  Elec       q    Type
REMARK                         _______ _______ _______ _____ _____    ______ ____
ROOT
ATOM      1  C   UNL     1      49.414   7.672  15.601  0.00  0.00    +0.000 A 
ATOM      2  C   UNL     1      48.654   8.818  15.376  0.00  0.00    +0.000 A 
ATOM      3  C   UNL     1      47.900   8.914  14.206  0.00  0.00    +0.000 A 
ATOM      4  C   UNL     1      47.896   7.857  13.295  0.00  0.00    +0.000 A 
ATOM      5  C   UNL     1      48.690   6.755  13.599  0.00  0.00    +0.000 A 
ATOM      6  N   UNL     1      49.436   6.634  14.724  0.00  0.00    +0.000 NA
ENDROOT
BRANCH   1   7
ATOM      7  C   UNL     1      50.251   7.543  16.855  0.00  0.00    +0.000 C 
BRANCH   7  10
ATOM      8  O   UNL     1      49.037   5.299  18.068  0.00  0.00    +0.000 OA
ATOM      9  C   UNL     1      50.166   5.177  17.600  0.00  0.00    +0.000 C 
ATOM     10  N   UNL     1      50.841   6.231  17.007  0.00  0.00    +0.000 N 
ATOM     11  H   UNL     1      51.725   6.028  16.552  0.00  0.00    +0.000 HD
BRANCH   9  12
ATOM     12  C   UNL     1      50.923   3.867  17.626  0.00  0.00    +0.000 A 
ATOM     13  N   UNL     1      50.293   2.770  17.156  0.00  0.00    +0.000 NA
ATOM     14  C   UNL     1      50.996   1.626  17.198  0.00  0.00    +0.000 A 
ATOM     15  C   UNL     1      52.279   1.540  17.689  0.00  0.00    +0.000 A 
ATOM     16  C   UNL     1      52.827   2.717  18.148  0.00  0.00    +0.000 A 
ATOM     17  N   UNL     1      52.182   3.899  18.129  0.00  0.00    +0.000 NA
ENDBRANCH   9  12
ENDBRANCH   7  10
ENDBRANCH   1   7
BRANCH   4  18
ATOM     18  C   UNL     1      47.101   7.909  12.023  0.00  0.00    +0.000 C 
BRANCH  18  19
ATOM     19  N   UNL     1      46.506   6.632  11.718  0.00  0.00    +0.000 N 
ATOM     20  C   UNL     1      45.147   6.488  11.602  0.00  0.00    +0.000 C 
ATOM     21  O   UNL     1      44.382   7.446  11.687  0.00  0.00    +0.000 OA
ATOM     22  H   UNL     1      47.081   5.807  11.862  0.00  0.00    +0.000 HD
BRANCH  20  23
ATOM     23  C   UNL     1      44.654   5.135  11.313  0.00  0.00    +0.000 A 
ATOM     24  C   UNL     1      43.875   4.469  12.250  0.00  0.00    +0.000 A 
ATOM     25  S   UNL     1      43.346   2.932  11.732  0.00  0.00    +0.000 S 
ATOM     26  C   UNL     1      44.180   3.082  10.257  0.00  0.00    +0.000 A 
ATOM     27  N   UNL     1      44.158   2.081   9.336  0.00  0.00    +0.000 NA
ATOM     28  C   UNL     1      44.859   2.316   8.276  0.00  0.00    +0.000 A 
ATOM     29  N   UNL     1      45.576   3.461   8.052  0.00  0.00    +0.000 N 
ATOM     30  C   UNL     1      45.606   4.508   8.942  0.00  0.00    +0.000 A 
ATOM     31  O   UNL     1      46.227   5.538   8.697  0.00  0.00    +0.000 OA
ATOM     32  C   UNL     1      44.841   4.292  10.156  0.00  0.00    +0.000 A 
ATOM     33  H   UNL     1      46.098   3.588   7.198  0.00  0.00    +0.000 HD
ENDBRANCH  20  23
ENDBRANCH  18  19
ENDBRANCH   4  18
TORSDOF 6
ENDMDL
MODEL 4
REMARK VINA RESULT:    -7.067      1.852      2.411
REMARK INTER + INTRA:         -10.562
REMARK INTER:                  -9.634
REMARK INTRA:                  -0.927
REMARK UNBOUND:                -1.016
REMARK  Name = 
REMARK  6 active torsions:
REMARK  status: ('A' for Active; 'I' for Inactive)
REMARK    1  A    between atoms: C_2  and  C_25
REMARK    2  A    between atoms: N_3  and  C_4
REMARK    3  A    between atoms: C_4  and  C_5
REMARK    4  A    between atoms: C_8  and  C_9
REMARK    5  A    between atoms: C_9  and  N_10
REMARK    6  A    between atoms: C_11  and  C_13
REMARK                            x       y       z     vdW  Elec       q    Type
REMARK                         _______ _______ _______ _____ _____    ______ ____
ROOT
ATOM      1  C   UNL     1      45.493   6.717  11.660  0.00  0.00    +0.000 A 
ATOM      2  C   UNL     1      46.644   6.042  12.063  0.00  0.00    +0.000 A 
ATOM      3  C   UNL     1      47.490   6.640  12.996  0.00  0.00    +0.000 A 
ATOM      4  C   UNL     1      47.162   7.887  13.531  0.00  0.00    +0.000 A 
ATOM      5  C   UNL     1      45.998   8.489  13.065  0.00  0.00    +0.000 A 
ATOM      6  N   UNL     1      45.158   7.936  12.157  0.00  0.00    +0.000 NA
ENDROOT
BRANCH   1   7
ATOM      7  C   UNL     1      44.562   6.099  10.640  0.00  0.00    +0.000 C 
BRANCH   7  10
ATOM      8  O   UNL     1      43.906   3.417  10.041  0.00  0.00    +0.000 OA
ATOM      9  C   UNL     1      44.845   3.941   9.448  0.00  0.00    +0.000 C 
ATOM     10  N   UNL     1      45.246   5.243   9.697  0.00  0.00    +0.000 N 
ATOM     11  H   UNL     1      45.962   5.638   9.096  0.00  0.00    +0.000 HD
BRANCH   9  12
ATOM     12  C   UNL     1      45.651   3.214   8.392  0.00  0.00    +0.000 A 
ATOM     13  N   UNL     1      46.067   3.925   7.324  0.00  0.00    +0.000 NA
ATOM     14  C   UNL     1      46.777   3.245   6.407  0.00  0.00    +0.000 A 
ATOM     15  C   UNL     1      47.074   1.906   6.517  0.00  0.00    +0.000 A 
ATOM     16  C   UNL     1      46.598   1.274   7.644  0.00  0.00    +0.000 A 
ATOM     17  N   UNL     1      45.887   1.896   8.604  0.00  0.00    +0.000 NA
ENDBRANCH   9  12
ENDBRANCH   7  10
ENDBRANCH   1   7
BRANCH   4  18
ATOM     18  C   UNL     1      48.037   8.573  14.540  0.00  0.00    +0.000 C 
BRANCH  18  19
ATOM     19  N   UNL     1      48.232   7.758  15.712  0.00  0.00    +0.000 N 
ATOM     20  C   UNL     1      49.486   7.358  16.102  0.00  0.00    +0.000 C 
ATOM     21  O   UNL     1      50.499   7.728  15.513  0.00  0.00    +0.000 OA
ATOM     22  H   UNL     1      47.421   7.267  16.075  0.00  0.00    +0.000 HD
BRANCH  20  23
ATOM     23  C   UNL     1      49.559   6.510  17.299  0.00  0.00    +0.000 A 
ATOM     24  C   UNL     1      50.348   5.367  17.288  0.00  0.00    +0.000 A 
ATOM     25  S   UNL     1      50.360   4.530  18.774  0.00  0.00    +0.000 S 
ATOM     26  C   UNL     1      49.271   5.637  19.469  0.00  0.00    +0.000 A 
ATOM     27  N   UNL     1      48.841   5.484  20.751  0.00  0.00    +0.000 NA
ATOM     28  C   UNL     1      47.994   6.379  21.139  0.00  0.00    +0.000 A 
ATOM     29  N   UNL     1      47.541   7.414  20.364  0.00  0.00    +0.000 N 
ATOM     30  C   UNL     1      47.968   7.622  19.074  0.00  0.00    +0.000 A 
ATOM     31  O   UNL     1      47.573   8.581  18.417  0.00  0.00    +0.000 OA
ATOM     32  C   UNL     1      48.915   6.639  18.585  0.00  0.00    +0.000 A 
ATOM     33  H   UNL     1      46.884   8.088  20.730  0.00  0.00    +0.000 HD
ENDBRANCH  20  23
ENDBRANCH  18  19
ENDBRANCH   4  18
TORSDOF 6
ENDMDL
MODEL 5
REMARK VINA RESULT:    -6.922      3.688      5.061
REMARK INTER + INTRA:         -10.366
REMARK INTER:                  -9.235
REMARK INTRA:                  -1.131
REMARK UNBOUND:                -1.016
REMARK  Name = 
REMARK  6 active torsions:
REMARK  status: ('A' for Active; 'I' for Inactive)
REMARK    1  A    between atoms: C_2  and  C_25
REMARK    2  A    between atoms: N_3  and  C_4
REMARK    3  A    between atoms: C_4  and  C_5
REMARK    4  A    between atoms: C_8  and  C_9
REMARK    5  A    between atoms: C_9  and  N_10
REMARK    6  A    between atoms: C_11  and  C_13
REMARK                            x       y       z     vdW  Elec       q    Type
REMARK                         _______ _______ _______ _____ _____    ______ ____
ROOT
ATOM      1  C   UNL     1      45.156   6.364  11.628  0.00  0.00    +0.000 A 
ATOM      2  C   UNL     1      46.326   5.854  12.187  0.00  0.00    +0.000 A 
ATOM      3  C   UNL     1      47.121   6.686  12.976  0.00  0.00    +0.000 A 
ATOM      4  C   UNL     1      46.723   8.002  13.215  0.00  0.00    +0.000 A 
ATOM      5  C   UNL     1      45.544   8.427  12.612  0.00  0.00    +0.000 A 
ATOM      6  N   UNL     1      44.753   7.645  11.837  0.00  0.00    +0.000 NA
ENDROOT
BRANCH   1   7
ATOM      7  C   UNL     1      44.279   5.490  10.759  0.00  0.00    +0.000 C 
BRANCH   7  10
ATOM      8  O   UNL     1      43.873   2.797  10.010  0.00  0.00    +0.000 OA
ATOM      9  C   UNL     1      44.746   3.442   9.438  0.00  0.00    +0.000 C 
ATOM     10  N   UNL     1      45.025   4.760   9.759  0.00  0.00    +0.000 N 
ATOM     11  H   UNL     1      45.689   5.257   9.173  0.00  0.00    +0.000 HD
BRANCH   9  12
ATOM     12  C   UNL     1      45.600   2.859   8.331  0.00  0.00    +0.000 A 
ATOM     13  N   UNL     1      46.054   1.599   8.491  0.00  0.00    +0.000 NA
ATOM     14  C   UNL     1      46.810   1.116   7.489  0.00  0.00    +0.000 A 
ATOM     15  C   UNL     1      47.125   1.837   6.360  0.00  0.00    +0.000 A 
ATOM     16  C   UNL     1      46.614   3.115   6.300  0.00  0.00    +0.000 A 
ATOM     17  N   UNL     1      45.845   3.658   7.264  0.00  0.00    +0.000 NA
ENDBRANCH   9  12
ENDBRANCH   7  10
ENDBRANCH   1   7
BRANCH   4  18
ATOM     18  C   UNL     1      47.541   8.938  14.058  0.00  0.00    +0.000 C 
BRANCH  18  19
ATOM     19  N   UNL     1      48.881   9.076  13.546  0.00  0.00    +0.000 N 
ATOM     20  C   UNL     1      49.219  10.101  12.699  0.00  0.00    +0.000 C 
ATOM     21  O   UNL     1      48.418  10.981  12.391  0.00  0.00    +0.000 OA
ATOM     22  H   UNL     1      49.485   8.261  13.602  0.00  0.00    +0.000 HD
BRANCH  20  23
ATOM     23  C   UNL     1      50.609  10.126  12.223  0.00  0.00    +0.000 A 
ATOM     24  C   UNL     1      51.368  11.279  12.368  0.00  0.00    +0.000 A 
ATOM     25  S   UNL     1      52.972  11.117  11.811  0.00  0.00    +0.000 S 
ATOM     26  C   UNL     1      52.694   9.515  11.309  0.00  0.00    +0.000 A 
ATOM     27  N   UNL     1      53.678   8.787  10.716  0.00  0.00    +0.000 NA
ATOM     28  C   UNL     1      53.320   7.598  10.359  0.00  0.00    +0.000 A 
ATOM     29  N   UNL     1      52.069   7.070  10.545  0.00  0.00    +0.000 N 
ATOM     30  C   UNL     1      51.053   7.759  11.163  0.00  0.00    +0.000 A 
ATOM     31  O   UNL     1      49.954   7.246  11.350  0.00  0.00    +0.000 OA
ATOM     32  C   UNL     1      51.400   9.105  11.576  0.00  0.00    +0.000 A 
ATOM     33  H   UNL     1      51.854   6.129  10.251  0.00  0.00    +0.000 HD
ENDBRANCH  20  23
ENDBRANCH  18  19
ENDBRANCH   4  18
TORSDOF 6
ENDMDL
MODEL 6
REMARK VINA RESULT:    -6.876      3.799      8.634
REMARK INTER + INTRA:         -10.303
REMARK INTER:                  -9.377
REMARK INTRA:                  -0.927
REMARK UNBOUND:                -1.016
REMARK  Name = 
REMARK  6 active torsions:
REMARK  status: ('A' for Active; 'I' for Inactive)
REMARK    1  A    between atoms: C_2  and  C_25
REMARK    2  A    between atoms: N_3  and  C_4
REMARK    3  A    between atoms: C_4  and  C_5
REMARK    4  A    between atoms: C_8  and  C_9
REMARK    5  A    between atoms: C_9  and  N_10
REMARK    6  A    between atoms: C_11  and  C_13
REMARK                            x       y       z     vdW  Elec       q    Type
REMARK                         _______ _______ _______ _____ _____    ______ ____
ROOT
ATOM      1  C   UNL     1      48.936   4.938  17.169  0.00  0.00    +0.000 A 
ATOM      2  C   UNL     1      49.641   6.097  16.847  0.00  0.00    +0.000 A 
ATOM      3  C   UNL     1      49.354   6.756  15.652  0.00  0.00    +0.000 A 
ATOM      4  C   UNL     1      48.353   6.266  14.812  0.00  0.00    +0.000 A 
ATOM      5  C   UNL     1      47.706   5.101  15.211  0.00  0.00    +0.000 A 
ATOM      6  N   UNL     1      47.965   4.435  16.363  0.00  0.00    +0.000 NA
ENDROOT
BRANCH   1   7
ATOM      7  C   UNL     1      49.232   4.195  18.452  0.00  0.00    +0.000 C 
BRANCH   7  10
ATOM      8  O   UNL     1      49.975   1.885  17.004  0.00  0.00    +0.000 OA
ATOM      9  C   UNL     1      50.821   2.445  17.695  0.00  0.00    +0.000 C 
ATOM     10  N   UNL     1      50.536   3.568  18.453  0.00  0.00    +0.000 N 
ATOM     11  H   UNL     1      51.310   4.033  18.916  0.00  0.00    +0.000 HD
BRANCH   9  12
ATOM     12  C   UNL     1      52.253   1.960  17.785  0.00  0.00    +0.000 A 
ATOM     13  N   UNL     1      53.232   2.884  17.704  0.00  0.00    +0.000 NA
ATOM     14  C   UNL     1      54.489   2.415  17.784  0.00  0.00    +0.000 A 
ATOM     15  C   UNL     1      54.794   1.081  17.934  0.00  0.00    +0.000 A 
ATOM     16  C   UNL     1      53.720   0.222  18.001  0.00  0.00    +0.000 A 
ATOM     17  N   UNL     1      52.436   0.624  17.934  0.00  0.00    +0.000 NA
ENDBRANCH   9  12
ENDBRANCH   7  10
ENDBRANCH   1   7
BRANCH   4  18
ATOM     18  C   UNL     1      48.004   6.939  13.516  0.00  0.00    +0.000 C 
BRANCH  18  19
ATOM     19  N   UNL     1      47.321   6.039  12.621  0.00  0.00    +0.000 N 
ATOM     20  C   UNL     1      46.305   6.476  11.808  0.00  0.00    +0.000 C 
ATOM     21  O   UNL     1      45.976   7.659  11.758  0.00  0.00    +0.000 OA
ATOM     22  H   UNL     1      47.418   5.044  12.800  0.00  0.00    +0.000 HD
BRANCH  20  23
ATOM     23  C   UNL     1      45.668   5.464  10.955  0.00  0.00    +0.000 A 
ATOM     24  C   UNL     1      45.745   5.578   9.573  0.00  0.00    +0.000 A 
ATOM     25  S   UNL     1      44.998   4.292   8.738  0.00  0.00    +0.000 S 
ATOM     26  C   UNL     1      44.501   3.563  10.193  0.00  0.00    +0.000 A 
ATOM     27  N   UNL     1      43.780   2.410  10.187  0.00  0.00    +0.000 NA
ATOM     28  C   UNL     1      43.445   1.985  11.361  0.00  0.00    +0.000 A 
ATOM     29  N   UNL     1      43.768   2.606  12.538  0.00  0.00    +0.000 N 
ATOM     30  C   UNL     1      44.515   3.758  12.593  0.00  0.00    +0.000 A 
ATOM     31  O   UNL     1      44.821   4.271  13.665  0.00  0.00    +0.000 OA
ATOM     32  C   UNL     1      44.912   4.283  11.300  0.00  0.00    +0.000 A 
ATOM     33  H   UNL     1      43.482   2.218  13.425  0.00  0.00    +0.000 HD
ENDBRANCH  20  23
ENDBRANCH  18  19
ENDBRANCH   4  18
TORSDOF 6
ENDMDL
MODEL 7
REMARK VINA RESULT:    -6.725      2.056      2.788
REMARK INTER + INTRA:         -10.100
REMARK INTER:                  -9.067
REMARK INTRA:                  -1.033
REMARK UNBOUND:                -1.016
REMARK  Name = 
REMARK  6 active torsions:
REMARK  status: ('A' for Active; 'I' for Inactive)
REMARK    1  A    between atoms: C_2  and  C_25
REMARK    2  A    between atoms: N_3  and  C_4
REMARK    3  A    between atoms: C_4  and  C_5
REMARK    4  A    between atoms: C_8  and  C_9
REMARK    5  A    between atoms: C_9  and  N_10
REMARK    6  A    between atoms: C_11  and  C_13
REMARK                            x       y       z     vdW  Elec       q    Type
REMARK                         _______ _______ _______ _____ _____    ______ ____
ROOT
ATOM      1  C   UNL     1      46.331   7.417  12.641  0.00  0.00    +0.000 A 
ATOM      2  C   UNL     1      47.182   6.377  13.010  0.00  0.00    +0.000 A 
ATOM      3  C   UNL     1      48.159   6.610  13.979  0.00  0.00    +0.000 A 
ATOM      4  C   UNL     1      48.252   7.866  14.581  0.00  0.00    +0.000 A 
ATOM      5  C   UNL     1      47.365   8.845  14.145  0.00  0.00    +0.000 A 
ATOM      6  N   UNL     1      46.410   8.651  13.204  0.00  0.00    +0.000 NA
ENDROOT
BRANCH   1   7
ATOM      7  C   UNL     1      45.270   7.199  11.585  0.00  0.00    +0.000 C 
BRANCH   7  10
ATOM      8  O   UNL     1      43.730   4.892  11.043  0.00  0.00    +0.000 OA
ATOM      9  C   UNL     1      44.784   5.054  10.434  0.00  0.00    +0.000 C 
ATOM     10  N   UNL     1      45.609   6.145  10.654  0.00  0.00    +0.000 N 
ATOM     11  H   UNL     1      46.409   6.262  10.041  0.00  0.00    +0.000 HD
BRANCH   9  12
ATOM     12  C   UNL     1      45.280   4.078   9.388  0.00  0.00    +0.000 A 
ATOM     13  N   UNL     1      45.887   4.587   8.296  0.00  0.00    +0.000 NA
ATOM     14  C   UNL     1      46.311   3.691   7.389  0.00  0.00    +0.000 A 
ATOM     15  C   UNL     1      46.147   2.331   7.530  0.00  0.00    +0.000 A 
ATOM     16  C   UNL     1      45.510   1.919   8.680  0.00  0.00    +0.000 A 
ATOM     17  N   UNL     1      45.067   2.761   9.632  0.00  0.00    +0.000 NA
ENDBRANCH   9  12
ENDBRANCH   7  10
ENDBRANCH   1   7
BRANCH   4  18
ATOM     18  C   UNL     1      49.283   8.168  15.629  0.00  0.00    +0.000 C 
BRANCH  18  19
ATOM     19  N   UNL     1      50.027   6.988  15.995  0.00  0.00    +0.000 N 
ATOM     20  C   UNL     1      50.657   6.890  17.210  0.00  0.00    +0.000 C 
ATOM     21  O   UNL     1      50.563   7.769  18.064  0.00  0.00    +0.000 OA
ATOM     22  H   UNL     1      50.300   6.362  15.244  0.00  0.00    +0.000 HD
BRANCH  20  23
ATOM     23  C   UNL     1      51.404   5.651  17.462  0.00  0.00    +0.000 A 
ATOM     24  C   UNL     1      52.740   5.713  17.833  0.00  0.00    +0.000 A 
ATOM     25  S   UNL     1      53.439   4.187  18.136  0.00  0.00    +0.000 S 
ATOM     26  C   UNL     1      51.993   3.385  17.733  0.00  0.00    +0.000 A 
ATOM     27  N   UNL     1      51.914   2.027  17.766  0.00  0.00    +0.000 NA
ATOM     28  C   UNL     1      50.767   1.551  17.407  0.00  0.00    +0.000 A 
ATOM     29  N   UNL     1      49.693   2.309  17.023  0.00  0.00    +0.000 N 
ATOM     30  C   UNL     1      49.719   3.683  17.000  0.00  0.00    +0.000 A 
ATOM     31  O   UNL     1      48.729   4.336  16.688  0.00  0.00    +0.000 OA
ATOM     32  C   UNL     1      50.988   4.270  17.386  0.00  0.00    +0.000 A 
ATOM     33  H   UNL     1      48.819   1.876  16.762  0.00  0.00    +0.000 HD
ENDBRANCH  20  23
ENDBRANCH  18  19
ENDBRANCH   4  18
TORSDOF 6
ENDMDL
MODEL 8
REMARK VINA RESULT:    -6.496      5.834      8.271
REMARK INTER + INTRA:          -9.790
REMARK INTER:                  -8.816
REMARK INTRA:                  -0.974
REMARK UNBOUND:                -1.016
REMARK  Name = 
REMARK  6 active torsions:
REMARK  status: ('A' for Active; 'I' for Inactive)
REMARK    1  A    between atoms: C_2  and  C_25
REMARK    2  A    between atoms: N_3  and  C_4
REMARK    3  A    between atoms: C_4  and  C_5
REMARK    4  A    between atoms: C_8  and  C_9
REMARK    5  A    between atoms: C_9  and  N_10
REMARK    6  A    between atoms: C_11  and  C_13
REMARK                            x       y       z     vdW  Elec       q    Type
REMARK                         _______ _______ _______ _____ _____    ______ ____
ROOT
ATOM      1  C   UNL     1      49.262   7.243  13.685  0.00  0.00    +0.000 A 
ATOM      2  C   UNL     1      49.041   7.277  12.309  0.00  0.00    +0.000 A 
ATOM      3  C   UNL     1      49.952   7.945  11.491  0.00  0.00    +0.000 A 
ATOM      4  C   UNL     1      51.079   8.546  12.055  0.00  0.00    +0.000 A 
ATOM      5  C   UNL     1      51.214   8.467  13.437  0.00  0.00    +0.000 A 
ATOM      6  N   UNL     1      50.345   7.830  14.258  0.00  0.00    +0.000 NA
ENDROOT
BRANCH   1   7
ATOM      7  C   UNL     1      48.286   6.536  14.599  0.00  0.00    +0.000 C 
BRANCH   7  10
ATOM      8  O   UNL     1      47.437   3.891  14.083  0.00  0.00    +0.000 OA
ATOM      9  C   UNL     1      46.716   4.821  13.733  0.00  0.00    +0.000 C 
ATOM     10  N   UNL     1      47.066   6.146  13.927  0.00  0.00    +0.000 N 
ATOM     11  H   UNL     1      46.373   6.854  13.705  0.00  0.00    +0.000 HD
BRANCH   9  12
ATOM     12  C   UNL     1      45.378   4.605  13.056  0.00  0.00    +0.000 A 
ATOM     13  N   UNL     1      44.578   5.679  12.896  0.00  0.00    +0.000 NA
ATOM     14  C   UNL     1      43.399   5.447  12.294  0.00  0.00    +0.000 A 
ATOM     15  C   UNL     1      42.998   4.204  11.860  0.00  0.00    +0.000 A 
ATOM     16  C   UNL     1      43.889   3.176  12.077  0.00  0.00    +0.000 A 
ATOM     17  N   UNL     1      45.088   3.338  12.667  0.00  0.00    +0.000 NA
ENDBRANCH   9  12
ENDBRANCH   7  10
ENDBRANCH   1   7
BRANCH   4  18
ATOM     18  C   UNL     1      52.091   9.276  11.219  0.00  0.00    +0.000 C 
BRANCH  18  19
ATOM     19  N   UNL     1      52.335   8.596   9.971  0.00  0.00    +0.000 N 
ATOM     20  C   UNL     1      53.458   8.855   9.226  0.00  0.00    +0.000 C 
ATOM     21  O   UNL     1      54.334   9.624   9.615  0.00  0.00    +0.000 OA
ATOM     22  H   UNL     1      51.543   8.138   9.531  0.00  0.00    +0.000 HD
BRANCH  20  23
ATOM     23  C   UNL     1      53.587   8.120   7.961  0.00  0.00    +0.000 A 
ATOM     24  C   UNL     1      53.634   8.815   6.760  0.00  0.00    +0.000 A 
ATOM     25  S   UNL     1      53.839   7.812   5.396  0.00  0.00    +0.000 S 
ATOM     26  C   UNL     1      53.822   6.408   6.358  0.00  0.00    +0.000 A 
ATOM     27  N   UNL     1      53.936   5.174   5.797  0.00  0.00    +0.000 NA
ATOM     28  C   UNL     1      53.877   4.197   6.641  0.00  0.00    +0.000 A 
ATOM     29  N   UNL     1      53.718   4.343   7.994  0.00  0.00    +0.000 N 
ATOM     30  C   UNL     1      53.624   5.569   8.606  0.00  0.00    +0.000 A 
ATOM     31  O   UNL     1      53.520   5.669   9.825  0.00  0.00    +0.000 OA
ATOM     32  C   UNL     1      53.676   6.702   7.701  0.00  0.00    +0.000 A 
ATOM     33  H   UNL     1      53.688   3.537   8.602  0.00  0.00    +0.000 HD
ENDBRANCH  20  23
ENDBRANCH  18  19
ENDBRANCH   4  18
TORSDOF 6
ENDMDL
MODEL 9
REMARK VINA RESULT:    -6.190      5.081      7.596
REMARK INTER + INTRA:          -9.377
REMARK INTER:                  -8.476
REMARK INTRA:                  -0.901
REMARK UNBOUND:                -1.016
REMARK  Name = 
REMARK  6 active torsions:
REMARK  status: ('A' for Active; 'I' for Inactive)
REMARK    1  A    between atoms: C_2  and  C_25
REMARK    2  A    between atoms: N_3  and  C_4
REMARK    3  A    between atoms: C_4  and  C_5
REMARK    4  A    between atoms: C_8  and  C_9
REMARK    5  A    between atoms: C_9  and  N_10
REMARK    6  A    between atoms: C_11  and  C_13
REMARK                            x       y       z     vdW  Elec       q    Type
REMARK                         _______ _______ _______ _____ _____    ______ ____
ROOT
ATOM      1  C   UNL     1      50.853   8.434  11.945  0.00  0.00    +0.000 A 
ATOM      2  C   UNL     1      49.990   7.728  11.108  0.00  0.00    +0.000 A 
ATOM      3  C   UNL     1      48.659   7.560  11.491  0.00  0.00    +0.000 A 
ATOM      4  C   UNL     1      48.206   8.119  12.687  0.00  0.00    +0.000 A 
ATOM      5  C   UNL     1      49.138   8.801  13.461  0.00  0.00    +0.000 A 
ATOM      6  N   UNL     1      50.438   8.977  13.120  0.00  0.00    +0.000 NA
ENDROOT
BRANCH   1   7
ATOM      7  C   UNL     1      52.304   8.623  11.564  0.00  0.00    +0.000 C 
BRANCH   7  10
ATOM      8  O   UNL     1      53.195   9.096   8.924  0.00  0.00    +0.000 OA
ATOM      9  C   UNL     1      53.215   7.946   9.357  0.00  0.00    +0.000 C 
ATOM     10  N   UNL     1      52.777   7.625  10.630  0.00  0.00    +0.000 N 
ATOM     11  H   UNL     1      52.921   6.673  10.951  0.00  0.00    +0.000 HD
BRANCH   9  12
ATOM     12  C   UNL     1      53.720   6.776   8.539  0.00  0.00    +0.000 A 
ATOM     13  N   UNL     1      52.824   6.109   7.782  0.00  0.00    +0.000 NA
ATOM     14  C   UNL     1      53.309   5.076   7.073  0.00  0.00    +0.000 A 
ATOM     15  C   UNL     1      54.629   4.690   7.098  0.00  0.00    +0.000 A 
ATOM     16  C   UNL     1      55.459   5.436   7.907  0.00  0.00    +0.000 A 
ATOM     17  N   UNL     1      55.041   6.486   8.638  0.00  0.00    +0.000 NA
ENDBRANCH   9  12
ENDBRANCH   7  10
ENDBRANCH   1   7
BRANCH   4  18
ATOM     18  C   UNL     1      46.783   7.969  13.143  0.00  0.00    +0.000 C 
BRANCH  18  19
ATOM     19  N   UNL     1      46.236   6.693  12.756  0.00  0.00    +0.000 N 
ATOM     20  C   UNL     1      45.204   6.602  11.856  0.00  0.00    +0.000 C 
ATOM     21  O   UNL     1      44.745   7.593  11.293  0.00  0.00    +0.000 OA
ATOM     22  H   UNL     1      46.439   5.900  13.358  0.00  0.00    +0.000 HD
BRANCH  20  23
ATOM     23  C   UNL     1      44.713   5.251  11.557  0.00  0.00    +0.000 A 
ATOM     24  C   UNL     1      43.961   4.564  12.501  0.00  0.00    +0.000 A 
ATOM     25  S   UNL     1      43.430   3.033  11.971  0.00  0.00    +0.000 S 
ATOM     26  C   UNL     1      44.228   3.212  10.479  0.00  0.00    +0.000 A 
ATOM     27  N   UNL     1      44.191   2.226   9.542  0.00  0.00    +0.000 NA
ATOM     28  C   UNL     1      44.865   2.483   8.471  0.00  0.00    +0.000 A 
ATOM     29  N   UNL     1      45.569   3.636   8.249  0.00  0.00    +0.000 N 
ATOM     30  C   UNL     1      45.614   4.669   9.155  0.00  0.00    +0.000 A 
ATOM     31  O   UNL     1      46.222   5.706   8.912  0.00  0.00    +0.000 OA
ATOM     32  C   UNL     1      44.879   4.428  10.382  0.00  0.00    +0.000 A 
ATOM     33  H   UNL     1      46.070   3.780   7.384  0.00  0.00    +0.000 HD
ENDBRANCH  20  23
ENDBRANCH  18  19
ENDBRANCH   4  18
TORSDOF 6
ENDMDL
