MODEL 1
REMARK VINA RESULT:    -7.490      0.000      0.000
REMARK INTER + INTRA:         -11.217
REMARK INTER:                 -10.117
REMARK INTRA:                  -1.100
REMARK UNBOUND:                -1.100
REMARK  Name = 
REMARK  7 active torsions:
REMARK  status: ('A' for Active; 'I' for Inactive)
REMARK    1  A    between atoms: C_1  and  C_2
REMARK    2  A    between atoms: C_2  and  N_3
REMARK    3  A    between atoms: C_2  and  C_16
REMARK    4  A    between atoms: C_4  and  C_6
REMARK    5  A    between atoms: C_19  and  O_20
REMARK    6  A    between atoms: O_20  and  C_21
REMARK    7  A    between atoms: C_24  and  C_25
REMARK                            x       y       z     vdW  Elec       q    Type
REMARK                         _______ _______ _______ _____ _____    ______ ____
ROOT
ATOM      1  C   UNL     1      49.449   7.835  12.636  0.00  0.00    +0.000 C 
ATOM      2  C   UNL     1      48.200   7.288  13.340  0.00  0.00    +0.000 C 
ENDROOT
BRANCH   2   3
ATOM      3  C   UNL     1      48.587   6.639  14.669  0.00  0.00    +0.000 A 
ATOM      4  C   UNL     1      49.681   7.115  15.395  0.00  0.00    +0.000 A 
ATOM      5  C   UNL     1      50.040   6.485  16.584  0.00  0.00    +0.000 A 
ATOM      6  C   UNL     1      49.345   5.349  16.991  0.00  0.00    +0.000 A 
ATOM      7  C   UNL     1      48.249   4.960  16.236  0.00  0.00    +0.000 A 
ATOM      8  N   UNL     1      47.858   5.574  15.089  0.00  0.00    +0.000 NA
BRANCH   6   9
ATOM      9  O   UNL     1      49.664   4.611  18.103  0.00  0.00    +0.000 OA
BRANCH   9  10
ATOM     10  C   UNL     1      50.651   3.652  18.000  0.00  0.00    +0.000 A 
ATOM     11  C   UNL     1      50.282   2.439  17.413  0.00  0.00    +0.000 A 
ATOM     12  C   UNL     1      51.216   1.402  17.298  0.00  0.00    +0.000 A 
ATOM     13  C   UNL     1      52.520   1.577  17.769  0.00  0.00    +0.000 A 
ATOM     14  C   UNL     1      52.899   2.805  18.321  0.00  0.00    +0.000 A 
ATOM     15  C   UNL     1      51.975   3.847  18.408  0.00  0.00    +0.000 A 
BRANCH  13  16
ATOM     16  C   UNL     1      53.473   0.508  17.688  0.00  0.00    +0.000 C 
ATOM     17  N   UNL     1      54.246  -0.352  17.612  0.00  0.00    +0.000 NA
ENDBRANCH  13  16
ENDBRANCH   9  10
ENDBRANCH   6   9
ENDBRANCH   2   3
BRANCH   2  18
ATOM     18  N   UNL     1      47.470   6.331  12.509  0.00  0.00    +0.000 N 
ATOM     19  C   UNL     1      46.369   6.688  11.772  0.00  0.00    +0.000 C 
ATOM     20  O   UNL     1      45.973   7.846  11.682  0.00  0.00    +0.000 OA
ATOM     21  H   UNL     1      47.532   5.361  12.806  0.00  0.00    +0.000 HD
BRANCH  19  22
ATOM     22  C   UNL     1      45.718   5.611  11.021  0.00  0.00    +0.000 A 
ATOM     23  C   UNL     1      45.783   5.599   9.635  0.00  0.00    +0.000 A 
ATOM     24  S   UNL     1      44.971   4.278   8.926  0.00  0.00    +0.000 S 
ATOM     25  C   UNL     1      44.468   3.701  10.446  0.00  0.00    +0.000 A 
ATOM     26  N   UNL     1      43.678   2.599  10.553  0.00  0.00    +0.000 NA
ATOM     27  C   UNL     1      43.335   2.306  11.763  0.00  0.00    +0.000 A 
ATOM     28  N   UNL     1      43.725   3.002  12.878  0.00  0.00    +0.000 N 
ATOM     29  C   UNL     1      44.577   4.079  12.823  0.00  0.00    +0.000 A 
ATOM     30  O   UNL     1      45.009   4.611  13.840  0.00  0.00    +0.000 OA
ATOM     31  C   UNL     1      44.947   4.484  11.481  0.00  0.00    +0.000 A 
ATOM     32  H   UNL     1      43.442   2.702  13.800  0.00  0.00    +0.000 HD
ENDBRANCH  19  22
ENDBRANCH   2  18
TORSDOF 6
ENDMDL
MODEL 2
REMARK VINA RESULT:    -7.391      3.959      8.757
REMARK INTER + INTRA:         -11.084
REMARK INTER:                 -10.134
REMARK INTRA:                  -0.950
REMARK UNBOUND:                -1.100
REMARK  Name = 
REMARK  7 active torsions:
REMARK  status: ('A' for Active; 'I' for Inactive)
REMARK    1  A    between atoms: C_1  and  C_2
REMARK    2  A    between atoms: C_2  and  N_3
REMARK    3  A    between atoms: C_2  and  C_16
REMARK    4  A    between atoms: C_4  and  C_6
REMARK    5  A    between atoms: C_19  and  O_20
REMARK    6  A    between atoms: O_20  and  C_21
REMARK    7  A    between atoms: C_24  and  C_25
REMARK                            x       y       z     vdW  Elec       q    Type
REMARK                         _______ _______ _______ _____ _____    ______ ____
ROOT
ATOM      1  C   UNL     1      47.553   3.600  16.006  0.00  0.00    +0.000 C 
ATOM      2  C   UNL     1      47.077   4.932  15.412  0.00  0.00    +0.000 C 
ENDROOT
BRANCH   2   3
ATOM      3  C   UNL     1      46.429   4.698  14.047  0.00  0.00    +0.000 A 
ATOM      4  C   UNL     1      45.952   5.776  13.297  0.00  0.00    +0.000 A 
ATOM      5  C   UNL     1      45.330   5.536  12.075  0.00  0.00    +0.000 A 
ATOM      6  C   UNL     1      45.133   4.224  11.655  0.00  0.00    +0.000 A 
ATOM      7  C   UNL     1      45.666   3.211  12.436  0.00  0.00    +0.000 A 
ATOM      8  N   UNL     1      46.304   3.416  13.618  0.00  0.00    +0.000 NA
BRANCH   6   9
ATOM      9  O   UNL     1      44.466   3.877  10.505  0.00  0.00    +0.000 OA
BRANCH   9  10
ATOM     10  C   UNL     1      45.204   3.509   9.399  0.00  0.00    +0.000 A 
ATOM     11  C   UNL     1      45.367   2.138   9.184  0.00  0.00    +0.000 A 
ATOM     12  C   UNL     1      46.127   1.683   8.101  0.00  0.00    +0.000 A 
ATOM     13  C   UNL     1      46.725   2.597   7.229  0.00  0.00    +0.000 A 
ATOM     14  C   UNL     1      46.529   3.968   7.421  0.00  0.00    +0.000 A 
ATOM     15  C   UNL     1      45.746   4.420   8.484  0.00  0.00    +0.000 A 
BRANCH  13  16
ATOM     16  C   UNL     1      47.535   2.139   6.138  0.00  0.00    +0.000 C 
ATOM     17  N   UNL     1      48.199   1.769   5.263  0.00  0.00    +0.000 NA
ENDBRANCH  13  16
ENDBRANCH   9  10
ENDBRANCH   6   9
ENDBRANCH   2   3
BRANCH   2  18
ATOM     18  N   UNL     1      48.163   5.904  15.291  0.00  0.00    +0.000 N 
ATOM     19  C   UNL     1      48.690   6.556  16.377  0.00  0.00    +0.000 C 
ATOM     20  O   UNL     1      48.356   6.307  17.531  0.00  0.00    +0.000 OA
ATOM     21  H   UNL     1      48.225   6.377  14.393  0.00  0.00    +0.000 HD
BRANCH  19  22
ATOM     22  C   UNL     1      49.745   7.533  16.093  0.00  0.00    +0.000 A 
ATOM     23  C   UNL     1      51.001   7.376  16.663  0.00  0.00    +0.000 A 
ATOM     24  S   UNL     1      52.104   8.601  16.229  0.00  0.00    +0.000 S 
ATOM     25  C   UNL     1      50.927   9.407  15.301  0.00  0.00    +0.000 A 
ATOM     26  N   UNL     1      51.207  10.585  14.680  0.00  0.00    +0.000 NA
ATOM     27  C   UNL     1      50.207  11.107  14.052  0.00  0.00    +0.000 A 
ATOM     28  N   UNL     1      48.955  10.551  13.973  0.00  0.00    +0.000 N 
ATOM     29  C   UNL     1      48.647   9.331  14.527  0.00  0.00    +0.000 A 
ATOM     30  O   UNL     1      47.559   8.796  14.341  0.00  0.00    +0.000 OA
ATOM     31  C   UNL     1      49.721   8.729  15.291  0.00  0.00    +0.000 A 
ATOM     32  H   UNL     1      48.223  10.999  13.442  0.00  0.00    +0.000 HD
ENDBRANCH  19  22
ENDBRANCH   2  18
TORSDOF 6
ENDMDL
MODEL 3
REMARK VINA RESULT:    -7.216      3.577      8.968
REMARK INTER + INTRA:         -10.847
REMARK INTER:                 -10.053
REMARK INTRA:                  -0.795
REMARK UNBOUND:                -1.100
REMARK  Name = 
REMARK  7 active torsions:
REMARK  status: ('A' for Active; 'I' for Inactive)
REMARK    1  A    between atoms: C_1  and  C_2
REMARK    2  A    between atoms: C_2  and  N_3
REMARK    3  A    between atoms: C_2  and  C_16
REMARK    4  A    between atoms: C_4  and  C_6
REMARK    5  A    between atoms: C_19  and  O_20
REMARK    6  A    between atoms: O_20  and  C_21
REMARK    7  A    between atoms: C_24  and  C_25
REMARK                            x       y       z     vdW  Elec       q    Type
REMARK                         _______ _______ _______ _____ _____    ______ ____
ROOT
ATOM      1  C   UNL     1      47.512   3.624  16.063  0.00  0.00    +0.000 C 
ATOM      2  C   UNL     1      47.117   4.965  15.430  0.00  0.00    +0.000 C 
ENDROOT
BRANCH   2   3
ATOM      3  C   UNL     1      46.468   4.732  14.067  0.00  0.00    +0.000 A 
ATOM      4  C   UNL     1      46.058   5.815  13.285  0.00  0.00    +0.000 A 
ATOM      5  C   UNL     1      45.433   5.578  12.063  0.00  0.00    +0.000 A 
ATOM      6  C   UNL     1      45.165   4.269  11.675  0.00  0.00    +0.000 A 
ATOM      7  C   UNL     1      45.635   3.248  12.487  0.00  0.00    +0.000 A 
ATOM      8  N   UNL     1      46.274   3.449  13.669  0.00  0.00    +0.000 NA
BRANCH   6   9
ATOM      9  O   UNL     1      44.489   3.930  10.529  0.00  0.00    +0.000 OA
BRANCH   9  10
ATOM     10  C   UNL     1      45.217   3.555   9.418  0.00  0.00    +0.000 A 
ATOM     11  C   UNL     1      45.374   2.183   9.210  0.00  0.00    +0.000 A 
ATOM     12  C   UNL     1      46.125   1.719   8.123  0.00  0.00    +0.000 A 
ATOM     13  C   UNL     1      46.718   2.627   7.242  0.00  0.00    +0.000 A 
ATOM     14  C   UNL     1      46.528   4.001   7.428  0.00  0.00    +0.000 A 
ATOM     15  C   UNL     1      45.754   4.460   8.496  0.00  0.00    +0.000 A 
BRANCH  13  16
ATOM     16  C   UNL     1      47.519   2.162   6.146  0.00  0.00    +0.000 C 
ATOM     17  N   UNL     1      48.163   1.775   5.264  0.00  0.00    +0.000 NA
ENDBRANCH  13  16
ENDBRANCH   9  10
ENDBRANCH   6   9
ENDBRANCH   2   3
BRANCH   2  18
ATOM     18  N   UNL     1      48.257   5.870  15.294  0.00  0.00    +0.000 N 
ATOM     19  C   UNL     1      48.724   6.627  16.340  0.00  0.00    +0.000 C 
ATOM     20  O   UNL     1      48.283   6.532  17.481  0.00  0.00    +0.000 OA
ATOM     21  H   UNL     1      48.418   6.229  14.357  0.00  0.00    +0.000 HD
BRANCH  19  22
ATOM     22  C   UNL     1      49.848   7.518  16.039  0.00  0.00    +0.000 A 
ATOM     23  C   UNL     1      49.605   8.789  15.536  0.00  0.00    +0.000 A 
ATOM     24  S   UNL     1      51.022   9.689  15.242  0.00  0.00    +0.000 S 
ATOM     25  C   UNL     1      52.011   8.394  15.736  0.00  0.00    +0.000 A 
ATOM     26  N   UNL     1      53.367   8.487  15.684  0.00  0.00    +0.000 NA
ATOM     27  C   UNL     1      53.988   7.413  16.043  0.00  0.00    +0.000 A 
ATOM     28  N   UNL     1      53.378   6.261  16.468  0.00  0.00    +0.000 N 
ATOM     29  C   UNL     1      52.014   6.146  16.600  0.00  0.00    +0.000 A 
ATOM     30  O   UNL     1      51.498   5.150  17.097  0.00  0.00    +0.000 OA
ATOM     31  C   UNL     1      51.268   7.306  16.156  0.00  0.00    +0.000 A 
ATOM     32  H   UNL     1      53.924   5.464  16.761  0.00  0.00    +0.000 HD
ENDBRANCH  19  22
ENDBRANCH   2  18
TORSDOF 6
ENDMDL
MODEL 4
REMARK VINA RESULT:    -7.066      1.286      2.173
REMARK INTER + INTRA:         -10.644
REMARK INTER:                  -9.771
REMARK INTRA:                  -0.873
REMARK UNBOUND:                -1.100
REMARK  Name = 
REMARK  7 active torsions:
REMARK  status: ('A' for Active; 'I' for Inactive)
REMARK    1  A    between atoms: C_1  and  C_2
REMARK    2  A    between atoms: C_2  and  N_3
REMARK    3  A    between atoms: C_2  and  C_16
REMARK    4  A    between atoms: C_4  and  C_6
REMARK    5  A    between atoms: C_19  and  O_20
REMARK    6  A    between atoms: O_20  and  C_21
REMARK    7  A    between atoms: C_24  and  C_25
REMARK                            x       y       z     vdW  Elec       q    Type
REMARK                         _______ _______ _______ _____ _____    ______ ____
ROOT
ATOM      1  C   UNL     1      48.845   7.457  12.446  0.00  0.00    +0.000 C 
ATOM      2  C   UNL     1      47.722   6.942  13.356  0.00  0.00    +0.000 C 
ENDROOT
BRANCH   2   3
ATOM      3  C   UNL     1      48.305   6.440  14.677  0.00  0.00    +0.000 A 
ATOM      4  C   UNL     1      49.457   7.026  15.209  0.00  0.00    +0.000 A 
ATOM      5  C   UNL     1      49.993   6.527  16.393  0.00  0.00    +0.000 A 
ATOM      6  C   UNL     1      49.413   5.412  16.989  0.00  0.00    +0.000 A 
ATOM      7  C   UNL     1      48.251   4.910  16.422  0.00  0.00    +0.000 A 
ATOM      8  N   UNL     1      47.689   5.394  15.284  0.00  0.00    +0.000 NA
BRANCH   6   9
ATOM      9  O   UNL     1      49.905   4.797  18.114  0.00  0.00    +0.000 OA
BRANCH   9  10
ATOM     10  C   UNL     1      50.752   3.718  17.961  0.00  0.00    +0.000 A 
ATOM     11  C   UNL     1      52.084   3.912  18.333  0.00  0.00    +0.000 A 
ATOM     12  C   UNL     1      53.014   2.877  18.181  0.00  0.00    +0.000 A 
ATOM     13  C   UNL     1      52.612   1.645  17.658  0.00  0.00    +0.000 A 
ATOM     14  C   UNL     1      51.270   1.437  17.323  0.00  0.00    +0.000 A 
ATOM     15  C   UNL     1      50.339   2.461  17.503  0.00  0.00    +0.000 A 
BRANCH  13  16
ATOM     16  C   UNL     1      53.565   0.590  17.465  0.00  0.00    +0.000 C 
ATOM     17  N   UNL     1      54.326  -0.269  17.304  0.00  0.00    +0.000 NA
ENDBRANCH  13  16
ENDBRANCH   9  10
ENDBRANCH   6   9
ENDBRANCH   2   3
BRANCH   2  18
ATOM     18  N   UNL     1      46.936   5.885  12.722  0.00  0.00    +0.000 N 
ATOM     19  C   UNL     1      45.619   6.056  12.376  0.00  0.00    +0.000 C 
ATOM     20  O   UNL     1      45.034   7.128  12.487  0.00  0.00    +0.000 OA
ATOM     21  H   UNL     1      47.242   4.936  12.921  0.00  0.00    +0.000 HD
BRANCH  19  22
ATOM     22  C   UNL     1      44.951   4.892  11.786  0.00  0.00    +0.000 A 
ATOM     23  C   UNL     1      44.155   4.078  12.580  0.00  0.00    +0.000 A 
ATOM     24  S   UNL     1      43.459   2.772  11.735  0.00  0.00    +0.000 S 
ATOM     25  C   UNL     1      44.233   3.225  10.288  0.00  0.00    +0.000 A 
ATOM     26  N   UNL     1      44.096   2.483   9.156  0.00  0.00    +0.000 NA
ATOM     27  C   UNL     1      44.778   2.918   8.150  0.00  0.00    +0.000 A 
ATOM     28  N   UNL     1      45.569   4.038   8.165  0.00  0.00    +0.000 N 
ATOM     29  C   UNL     1      45.682   4.854   9.265  0.00  0.00    +0.000 A 
ATOM     30  O   UNL     1      46.297   5.915   9.219  0.00  0.00    +0.000 OA
ATOM     31  C   UNL     1      44.980   4.379  10.441  0.00  0.00    +0.000 A 
ATOM     32  H   UNL     1      46.055   4.339   7.333  0.00  0.00    +0.000 HD
ENDBRANCH  19  22
ENDBRANCH   2  18
TORSDOF 6
ENDMDL
MODEL 5
REMARK VINA RESULT:    -6.496      4.053      8.619
REMARK INTER + INTRA:          -9.875
REMARK INTER:                  -9.291
REMARK INTRA:                  -0.584
REMARK UNBOUND:                -1.100
REMARK  Name = 
REMARK  7 active torsions:
REMARK  status: ('A' for Active; 'I' for Inactive)
REMARK    1  A    between atoms: C_1  and  C_2
REMARK    2  A    between atoms: C_2  and  N_3
REMARK    3  A    between atoms: C_2  and  C_16
REMARK    4  A    between atoms: C_4  and  C_6
REMARK    5  A    between atoms: C_19  and  O_20
REMARK    6  A    between atoms: O_20  and  C_21
REMARK    7  A    between atoms: C_24  and  C_25
REMARK                            x       y       z     vdW  Elec       q    Type
REMARK                         _______ _______ _______ _____ _____    ______ ____
ROOT
ATOM      1  C   UNL     1      47.882   4.606  15.598  0.00  0.00    +0.000 C 
ATOM      2  C   UNL     1      46.939   5.658  15.000  0.00  0.00    +0.000 C 
ENDROOT
BRANCH   2   3
ATOM      3  C   UNL     1      46.194   5.074  13.800  0.00  0.00    +0.000 A 
ATOM      4  C   UNL     1      46.313   3.718  13.486  0.00  0.00    +0.000 A 
ATOM      5  C   UNL     1      45.657   3.215  12.365  0.00  0.00    +0.000 A 
ATOM      6  C   UNL     1      44.952   4.085  11.540  0.00  0.00    +0.000 A 
ATOM      7  C   UNL     1      44.849   5.410  11.938  0.00  0.00    +0.000 A 
ATOM      8  N   UNL     1      45.453   5.921  13.041  0.00  0.00    +0.000 NA
BRANCH   6   9
ATOM      9  O   UNL     1      44.333   3.707  10.374  0.00  0.00    +0.000 OA
BRANCH   9  10
ATOM     10  C   UNL     1      45.116   3.385   9.284  0.00  0.00    +0.000 A 
ATOM     11  C   UNL     1      45.395   2.029   9.095  0.00  0.00    +0.000 A 
ATOM     12  C   UNL     1      46.207   1.620   8.031  0.00  0.00    +0.000 A 
ATOM     13  C   UNL     1      46.741   2.567   7.153  0.00  0.00    +0.000 A 
ATOM     14  C   UNL     1      46.429   3.920   7.318  0.00  0.00    +0.000 A 
ATOM     15  C   UNL     1      45.595   4.322   8.362  0.00  0.00    +0.000 A 
BRANCH  13  16
ATOM     16  C   UNL     1      47.603   2.161   6.081  0.00  0.00    +0.000 C 
ATOM     17  N   UNL     1      48.305   1.825   5.222  0.00  0.00    +0.000 NA
ENDBRANCH  13  16
ENDBRANCH   9  10
ENDBRANCH   6   9
ENDBRANCH   2   3
BRANCH   2  18
ATOM     18  N   UNL     1      47.645   6.875  14.608  0.00  0.00    +0.000 N 
ATOM     19  C   UNL     1      48.600   6.886  13.622  0.00  0.00    +0.000 C 
ATOM     20  O   UNL     1      48.864   5.902  12.939  0.00  0.00    +0.000 OA
ATOM     21  H   UNL     1      47.719   7.587  15.329  0.00  0.00    +0.000 HD
BRANCH  19  22
ATOM     22  C   UNL     1      49.252   8.174  13.369  0.00  0.00    +0.000 A 
ATOM     23  C   UNL     1      49.259   8.703  12.085  0.00  0.00    +0.000 A 
ATOM     24  S   UNL     1      50.060  10.203  11.970  0.00  0.00    +0.000 S 
ATOM     25  C   UNL     1      50.463  10.175  13.624  0.00  0.00    +0.000 A 
ATOM     26  N   UNL     1      51.209  11.168  14.182  0.00  0.00    +0.000 NA
ATOM     27  C   UNL     1      51.478  10.992  15.432  0.00  0.00    +0.000 A 
ATOM     28  N   UNL     1      51.055   9.924  16.182  0.00  0.00    +0.000 N 
ATOM     29  C   UNL     1      50.245   8.935  15.677  0.00  0.00    +0.000 A 
ATOM     30  O   UNL     1      49.779   8.056  16.395  0.00  0.00    +0.000 OA
ATOM     31  C   UNL     1      49.959   9.056  14.261  0.00  0.00    +0.000 A 
ATOM     32  H   UNL     1      51.279   9.861  17.164  0.00  0.00    +0.000 HD
ENDBRANCH  19  22
ENDBRANCH   2  18
TORSDOF 6
ENDMDL
MODEL 6
REMARK VINA RESULT:    -6.364      5.252      8.454
REMARK INTER + INTRA:          -9.697
REMARK INTER:                  -8.693
REMARK INTRA:                  -1.004
REMARK UNBOUND:                -1.100
REMARK  Name = 
REMARK  7 active torsions:
REMARK  status: ('A' for Active; 'I' for Inactive)
REMARK    1  A    between atoms: C_1  and  C_2
REMARK    2  A    between atoms: C_2  and  N_3
REMARK    3  A    between atoms: C_2  and  C_16
REMARK    4  A    between atoms: C_4  and  C_6
REMARK    5  A    between atoms: C_19  and  O_20
REMARK    6  A    between atoms: O_20  and  C_21
REMARK    7  A    between atoms: C_24  and  C_25
REMARK                            x       y       z     vdW  Elec       q    Type
REMARK                         _______ _______ _______ _____ _____    ______ ____
ROOT
ATOM      1  C   UNL     1      47.841   7.904  15.173  0.00  0.00    +0.000 C 
ATOM      2  C   UNL     1      47.468   8.503  13.810  0.00  0.00    +0.000 C 
ENDROOT
BRANCH   2   3
ATOM      3  C   UNL     1      46.570   7.535  13.039  0.00  0.00    +0.000 A 
ATOM      4  C   UNL     1      46.725   6.155  13.191  0.00  0.00    +0.000 A 
ATOM      5  C   UNL     1      45.923   5.291  12.449  0.00  0.00    +0.000 A 
ATOM      6  C   UNL     1      45.032   5.817  11.519  0.00  0.00    +0.000 A 
ATOM      7  C   UNL     1      44.910   7.197  11.452  0.00  0.00    +0.000 A 
ATOM      8  N   UNL     1      45.657   8.063  12.185  0.00  0.00    +0.000 NA
BRANCH   6   9
ATOM      9  O   UNL     1      44.251   5.054  10.686  0.00  0.00    +0.000 OA
BRANCH   9  10
ATOM     10  C   UNL     1      44.870   4.180   9.816  0.00  0.00    +0.000 A 
ATOM     11  C   UNL     1      45.652   4.752   8.809  0.00  0.00    +0.000 A 
ATOM     12  C   UNL     1      46.289   3.936   7.867  0.00  0.00    +0.000 A 
ATOM     13  C   UNL     1      46.146   2.547   7.930  0.00  0.00    +0.000 A 
ATOM     14  C   UNL     1      45.396   1.973   8.962  0.00  0.00    +0.000 A 
ATOM     15  C   UNL     1      44.786   2.787   9.918  0.00  0.00    +0.000 A 
BRANCH  13  16
ATOM     16  C   UNL     1      46.767   1.706   6.948  0.00  0.00    +0.000 C 
ATOM     17  N   UNL     1      47.267   1.017   6.163  0.00  0.00    +0.000 NA
ENDBRANCH  13  16
ENDBRANCH   9  10
ENDBRANCH   6   9
ENDBRANCH   2   3
BRANCH   2  18
ATOM     18  N   UNL     1      48.645   8.839  13.012  0.00  0.00    +0.000 N 
ATOM     19  C   UNL     1      48.670   9.911  12.155  0.00  0.00    +0.000 C 
ATOM     20  O   UNL     1      47.748  10.715  12.066  0.00  0.00    +0.000 OA
ATOM     21  H   UNL     1      49.260   8.060  12.794  0.00  0.00    +0.000 HD
BRANCH  19  22
ATOM     22  C   UNL     1      49.907  10.097  11.391  0.00  0.00    +0.000 A 
ATOM     23  C   UNL     1      50.289  11.372  10.997  0.00  0.00    +0.000 A 
ATOM     24  S   UNL     1      51.748  11.404  10.116  0.00  0.00    +0.000 S 
ATOM     25  C   UNL     1      51.895   9.710  10.192  0.00  0.00    +0.000 A 
ATOM     26  N   UNL     1      52.925   9.066   9.580  0.00  0.00    +0.000 NA
ATOM     27  C   UNL     1      52.882   7.779   9.680  0.00  0.00    +0.000 A 
ATOM     28  N   UNL     1      51.914   7.078  10.352  0.00  0.00    +0.000 N 
ATOM     29  C   UNL     1      50.895   7.690  11.042  0.00  0.00    +0.000 A 
ATOM     30  O   UNL     1      50.112   7.049  11.736  0.00  0.00    +0.000 OA
ATOM     31  C   UNL     1      50.865   9.134  10.914  0.00  0.00    +0.000 A 
ATOM     32  H   UNL     1      51.956   6.071  10.415  0.00  0.00    +0.000 HD
ENDBRANCH  19  22
ENDBRANCH   2  18
TORSDOF 6
ENDMDL
MODEL 7
REMARK VINA RESULT:    -6.316      4.238      8.605
REMARK INTER + INTRA:          -9.632
REMARK INTER:                  -8.333
REMARK INTRA:                  -1.299
REMARK UNBOUND:                -1.100
REMARK  Name = 
REMARK  7 active torsions:
REMARK  status: ('A' for Active; 'I' for Inactive)
REMARK    1  A    between atoms: C_1  and  C_2
REMARK    2  A    between atoms: C_2  and  N_3
REMARK    3  A    between atoms: C_2  and  C_16
REMARK    4  A    between atoms: C_4  and  C_6
REMARK    5  A    between atoms: C_19  and  O_20
REMARK    6  A    between atoms: O_20  and  C_21
REMARK    7  A    between atoms: C_24  and  C_25
REMARK                            x       y       z     vdW  Elec       q    Type
REMARK                         _______ _______ _______ _____ _____    ______ ____
ROOT
ATOM      1  C   UNL     1      47.986   5.120  16.092  0.00  0.00    +0.000 C 
ATOM      2  C   UNL     1      47.814   6.260  15.079  0.00  0.00    +0.000 C 
ENDROOT
BRANCH   2   3
ATOM      3  C   UNL     1      47.015   5.774  13.871  0.00  0.00    +0.000 A 
ATOM      4  C   UNL     1      46.522   6.688  12.936  0.00  0.00    +0.000 A 
ATOM      5  C   UNL     1      45.763   6.227  11.863  0.00  0.00    +0.000 A 
ATOM      6  C   UNL     1      45.451   4.874  11.779  0.00  0.00    +0.000 A 
ATOM      7  C   UNL     1      46.007   4.025  12.724  0.00  0.00    +0.000 A 
ATOM      8  N   UNL     1      46.775   4.442  13.764  0.00  0.00    +0.000 NA
BRANCH   6   9
ATOM      9  O   UNL     1      44.650   4.328  10.807  0.00  0.00    +0.000 OA
BRANCH   9  10
ATOM     10  C   UNL     1      45.242   3.835   9.662  0.00  0.00    +0.000 A 
ATOM     11  C   UNL     1      45.279   2.445   9.528  0.00  0.00    +0.000 A 
ATOM     12  C   UNL     1      45.889   1.863   8.411  0.00  0.00    +0.000 A 
ATOM     13  C   UNL     1      46.463   2.670   7.425  0.00  0.00    +0.000 A 
ATOM     14  C   UNL     1      46.390   4.062   7.539  0.00  0.00    +0.000 A 
ATOM     15  C   UNL     1      45.755   4.641   8.639  0.00  0.00    +0.000 A 
BRANCH  13  16
ATOM     16  C   UNL     1      47.121   2.082   6.294  0.00  0.00    +0.000 C 
ATOM     17  N   UNL     1      47.664   1.613   5.384  0.00  0.00    +0.000 NA
ENDBRANCH  13  16
ENDBRANCH   9  10
ENDBRANCH   6   9
ENDBRANCH   2   3
BRANCH   2  18
ATOM     18  N   UNL     1      49.096   6.811  14.644  0.00  0.00    +0.000 N 
ATOM     19  C   UNL     1      49.379   8.153  14.709  0.00  0.00    +0.000 C 
ATOM     20  O   UNL     1      48.620   8.971  15.218  0.00  0.00    +0.000 OA
ATOM     21  H   UNL     1      49.584   6.270  13.935  0.00  0.00    +0.000 HD
BRANCH  19  22
ATOM     22  C   UNL     1      50.690   8.561  14.196  0.00  0.00    +0.000 A 
ATOM     23  C   UNL     1      51.593   9.196  15.038  0.00  0.00    +0.000 A 
ATOM     24  S   UNL     1      53.064   9.601  14.279  0.00  0.00    +0.000 S 
ATOM     25  C   UNL     1      52.527   8.982  12.787  0.00  0.00    +0.000 A 
ATOM     26  N   UNL     1      53.305   9.060  11.673  0.00  0.00    +0.000 NA
ATOM     27  C   UNL     1      52.751   8.594  10.604  0.00  0.00    +0.000 A 
ATOM     28  N   UNL     1      51.498   8.041  10.549  0.00  0.00    +0.000 N 
ATOM     29  C   UNL     1      50.705   7.880  11.660  0.00  0.00    +0.000 A 
ATOM     30  O   UNL     1      49.640   7.273  11.610  0.00  0.00    +0.000 OA
ATOM     31  C   UNL     1      51.259   8.438  12.878  0.00  0.00    +0.000 A 
ATOM     32  H   UNL     1      51.134   7.669   9.683  0.00  0.00    +0.000 HD
ENDBRANCH  19  22
ENDBRANCH   2  18
TORSDOF 6
ENDMDL
MODEL 8
REMARK VINA RESULT:    -6.307      3.335      4.924
REMARK INTER + INTRA:          -9.620
REMARK INTER:                  -8.771
REMARK INTRA:                  -0.849
REMARK UNBOUND:                -1.100
REMARK  Name = 
REMARK  7 active torsions:
REMARK  status: ('A' for Active; 'I' for Inactive)
REMARK    1  A    between atoms: C_1  and  C_2
REMARK    2  A    between atoms: C_2  and  N_3
REMARK    3  A    between atoms: C_2  and  C_16
REMARK    4  A    between atoms: C_4  and  C_6
REMARK    5  A    between atoms: C_19  and  O_20
REMARK    6  A    between atoms: O_20  and  C_21
REMARK    7  A    between atoms: C_24  and  C_25
REMARK                            x       y       z     vdW  Elec       q    Type
REMARK                         _______ _______ _______ _____ _____    ______ ____
ROOT
ATOM      1  C   UNL     1      46.923   3.013  17.693  0.00  0.00    +0.000 C 
ATOM      2  C   UNL     1      47.734   3.373  16.441  0.00  0.00    +0.000 C 
ENDROOT
BRANCH   2   3
ATOM      3  C   UNL     1      49.081   3.973  16.841  0.00  0.00    +0.000 A 
ATOM      4  C   UNL     1      50.062   3.174  17.434  0.00  0.00    +0.000 A 
ATOM      5  C   UNL     1      51.268   3.749  17.827  0.00  0.00    +0.000 A 
ATOM      6  C   UNL     1      51.447   5.121  17.686  0.00  0.00    +0.000 A 
ATOM      7  C   UNL     1      50.443   5.841  17.056  0.00  0.00    +0.000 A 
ATOM      8  N   UNL     1      49.270   5.301  16.636  0.00  0.00    +0.000 NA
BRANCH   6   9
ATOM      9  O   UNL     1      52.565   5.798  18.109  0.00  0.00    +0.000 OA
BRANCH   9  10
ATOM     10  C   UNL     1      53.238   6.593  17.204  0.00  0.00    +0.000 A 
ATOM     11  C   UNL     1      53.241   7.966  17.461  0.00  0.00    +0.000 A 
ATOM     12  C   UNL     1      53.876   8.845  16.575  0.00  0.00    +0.000 A 
ATOM     13  C   UNL     1      54.510   8.352  15.432  0.00  0.00    +0.000 A 
ATOM     14  C   UNL     1      54.542   6.973  15.196  0.00  0.00    +0.000 A 
ATOM     15  C   UNL     1      53.934   6.097  16.096  0.00  0.00    +0.000 A 
BRANCH  13  16
ATOM     16  C   UNL     1      55.132   9.248  14.500  0.00  0.00    +0.000 C 
ATOM     17  N   UNL     1      55.630   9.965  13.739  0.00  0.00    +0.000 NA
ENDBRANCH  13  16
ENDBRANCH   9  10
ENDBRANCH   6   9
ENDBRANCH   2   3
BRANCH   2  18
ATOM     18  N   UNL     1      47.016   4.296  15.563  0.00  0.00    +0.000 N 
ATOM     19  C   UNL     1      46.858   4.059  14.220  0.00  0.00    +0.000 C 
ATOM     20  O   UNL     1      47.223   3.021  13.678  0.00  0.00    +0.000 OA
ATOM     21  H   UNL     1      47.008   5.266  15.865  0.00  0.00    +0.000 HD
BRANCH  19  22
ATOM     22  C   UNL     1      46.152   5.096  13.462  0.00  0.00    +0.000 A 
ATOM     23  C   UNL     1      46.700   6.367  13.355  0.00  0.00    +0.000 A 
ATOM     24  S   UNL     1      45.747   7.445  12.441  0.00  0.00    +0.000 S 
ATOM     25  C   UNL     1      44.548   6.263  12.195  0.00  0.00    +0.000 A 
ATOM     26  N   UNL     1      43.406   6.551  11.514  0.00  0.00    +0.000 NA
ATOM     27  C   UNL     1      42.566   5.573  11.446  0.00  0.00    +0.000 A 
ATOM     28  N   UNL     1      42.770   4.327  11.980  0.00  0.00    +0.000 N 
ATOM     29  C   UNL     1      43.935   3.971  12.616  0.00  0.00    +0.000 A 
ATOM     30  O   UNL     1      44.145   2.818  12.978  0.00  0.00    +0.000 OA
ATOM     31  C   UNL     1      44.890   5.051  12.769  0.00  0.00    +0.000 A 
ATOM     32  H   UNL     1      42.081   3.597  11.867  0.00  0.00    +0.000 HD
ENDBRANCH  19  22
ENDBRANCH   2  18
TORSDOF 6
ENDMDL
MODEL 9
REMARK VINA RESULT:    -6.249      4.436      6.406
REMARK INTER + INTRA:          -9.540
REMARK INTER:                  -9.321
REMARK INTRA:                  -0.219
REMARK UNBOUND:                -1.100
REMARK  Name = 
REMARK  7 active torsions:
REMARK  status: ('A' for Active; 'I' for Inactive)
REMARK    1  A    between atoms: C_1  and  C_2
REMARK    2  A    between atoms: C_2  and  N_3
REMARK    3  A    between atoms: C_2  and  C_16
REMARK    4  A    between atoms: C_4  and  C_6
REMARK    5  A    between atoms: C_19  and  O_20
REMARK    6  A    between atoms: O_20  and  C_21
REMARK    7  A    between atoms: C_24  and  C_25
REMARK                            x       y       z     vdW  Elec       q    Type
REMARK                         _______ _______ _______ _____ _____    ______ ____
ROOT
ATOM      1  C   UNL     1      48.467   8.992  15.598  0.00  0.00    +0.000 C 
ATOM      2  C   UNL     1      48.669   7.808  14.643  0.00  0.00    +0.000 C 
ENDROOT
BRANCH   2   3
ATOM      3  C   UNL     1      49.787   8.119  13.649  0.00  0.00    +0.000 A 
ATOM      4  C   UNL     1      49.520   8.169  12.278  0.00  0.00    +0.000 A 
ATOM      5  C   UNL     1      50.561   8.415  11.387  0.00  0.00    +0.000 A 
ATOM      6  C   UNL     1      51.860   8.539  11.871  0.00  0.00    +0.000 A 
ATOM      7  C   UNL     1      52.039   8.514  13.246  0.00  0.00    +0.000 A 
ATOM      8  N   UNL     1      51.038   8.305  14.140  0.00  0.00    +0.000 NA
BRANCH   6   9
ATOM      9  O   UNL     1      52.965   8.708  11.074  0.00  0.00    +0.000 OA
BRANCH   9  10
ATOM     10  C   UNL     1      53.180   7.817  10.043  0.00  0.00    +0.000 A 
ATOM     11  C   UNL     1      52.987   8.303   8.748  0.00  0.00    +0.000 A 
ATOM     12  C   UNL     1      53.155   7.455   7.647  0.00  0.00    +0.000 A 
ATOM     13  C   UNL     1      53.516   6.119   7.840  0.00  0.00    +0.000 A 
ATOM     14  C   UNL     1      53.748   5.642   9.134  0.00  0.00    +0.000 A 
ATOM     15  C   UNL     1      53.609   6.498  10.228  0.00  0.00    +0.000 A 
BRANCH  13  16
ATOM     16  C   UNL     1      53.656   5.233   6.720  0.00  0.00    +0.000 C 
ATOM     17  N   UNL     1      53.779   4.523   5.813  0.00  0.00    +0.000 NA
ENDBRANCH  13  16
ENDBRANCH   9  10
ENDBRANCH   6   9
ENDBRANCH   2   3
BRANCH   2  18
ATOM     18  N   UNL     1      47.444   7.458  13.926  0.00  0.00    +0.000 N 
ATOM     19  C   UNL     1      47.170   6.177  13.519  0.00  0.00    +0.000 C 
ATOM     20  O   UNL     1      47.883   5.220  13.805  0.00  0.00    +0.000 OA
ATOM     21  H   UNL     1      47.024   8.213  13.390  0.00  0.00    +0.000 HD
BRANCH  19  22
ATOM     22  C   UNL     1      45.922   5.989  12.774  0.00  0.00    +0.000 A 
ATOM     23  C   UNL     1      45.258   7.090  12.251  0.00  0.00    +0.000 A 
ATOM     24  S   UNL     1      43.826   6.691  11.418  0.00  0.00    +0.000 S 
ATOM     25  C   UNL     1      44.021   5.036  11.766  0.00  0.00    +0.000 A 
ATOM     26  N   UNL     1      43.094   4.122  11.372  0.00  0.00    +0.000 NA
ATOM     27  C   UNL     1      43.347   2.912  11.746  0.00  0.00    +0.000 A 
ATOM     28  N   UNL     1      44.453   2.529  12.462  0.00  0.00    +0.000 N 
ATOM     29  C   UNL     1      45.448   3.407  12.821  0.00  0.00    +0.000 A 
ATOM     30  O   UNL     1      46.484   3.023  13.354  0.00  0.00    +0.000 OA
ATOM     31  C   UNL     1      45.184   4.789  12.474  0.00  0.00    +0.000 A 
ATOM     32  H   UNL     1      44.605   1.560  12.699  0.00  0.00    +0.000 HD
ENDBRANCH  19  22
ENDBRANCH   2  18
TORSDOF 6
ENDMDL
