MODEL 1
REMARK VINA RESULT:    -7.169      0.000      0.000
REMARK INTER + INTRA:          -9.450
REMARK INTER:                  -9.055
REMARK INTRA:                  -0.394
REMARK UNBOUND:                -0.394
REMARK  Name = 
REMARK  5 active torsions:
REMARK  status: ('A' for Active; 'I' for Inactive)
REMARK    1  A    between atoms: N_1  and  C_2
REMARK    2  A    between atoms: C_2  and  C_3
REMARK    3  A    between atoms: C_6  and  O_7
REMARK    4  A    between atoms: O_7  and  C_8
REMARK    5  A    between atoms: C_8  and  C_9
REMARK                            x       y       z     vdW  Elec       q    Type
REMARK                         _______ _______ _______ _____ _____    ______ ____
ROOT
ATOM      1  C   UNL     1      46.557   2.277   7.549  0.00  0.00    +0.000 A 
ATOM      2  C   UNL     1      45.793   1.492   8.422  0.00  0.00    +0.000 A 
ATOM      3  C   UNL     1      44.821   2.068   9.250  0.00  0.00    +0.000 A 
ATOM      4  C   UNL     1      44.600   3.444   9.221  0.00  0.00    +0.000 A 
ATOM      5  C   UNL     1      45.351   4.231   8.344  0.00  0.00    +0.000 A 
ATOM      6  C   UNL     1      46.320   3.656   7.515  0.00  0.00    +0.000 A 
ENDROOT
BRANCH   1   7
ATOM      7  C   UNL     1      47.638   1.656   6.699  0.00  0.00    +0.000 C 
BRANCH   7   8
ATOM      8  N   UNL     1      48.665   2.622   6.324  0.00  0.00    +0.000 NA
ATOM      9  H   UNL     1      48.492   2.935   5.370  0.00  0.00    +0.000 HD
ATOM     10  H   UNL     1      49.568   2.149   6.311  0.00  0.00    +0.000 HD
ENDBRANCH   7   8
ENDBRANCH   1   7
BRANCH   4  11
ATOM     11  O   UNL     1      43.705   4.136   9.993  0.00  0.00    +0.000 OA
BRANCH  11  12
ATOM     12  C   UNL     1      43.449   3.625  11.309  0.00  0.00    +0.000 C 
BRANCH  12  13
ATOM     13  C   UNL     1      44.282   4.422  12.338  0.00  0.00    +0.000 C 
ATOM     14  C   UNL     1      44.678   5.793  11.766  0.00  0.00    +0.000 C 
ATOM     15  C   UNL     1      45.549   6.580  12.744  0.00  0.00    +0.000 C 
ATOM     16  C   UNL     1      46.733   5.738  13.211  0.00  0.00    +0.000 C 
ATOM     17  C   UNL     1      46.269   4.384  13.739  0.00  0.00    +0.000 C 
ATOM     18  N   UNL     1      45.492   3.670  12.727  0.00  0.00    +0.000 NA
ATOM     19  H   UNL     1      45.196   2.761  13.090  0.00  0.00    +0.000 HD
ENDBRANCH  12  13
ENDBRANCH  11  12
ENDBRANCH   4  11
TORSDOF 5
ENDMDL
MODEL 2
REMARK VINA RESULT:    -6.866      1.365      2.150
REMARK INTER + INTRA:          -9.067
REMARK INTER:                  -8.650
REMARK INTRA:                  -0.417
REMARK UNBOUND:                -0.394
REMARK  Name = 
REMARK  5 active torsions:
REMARK  status: ('A' for Active; 'I' for Inactive)
REMARK    1  A    between atoms: N_1  and  C_2
REMARK    2  A    between atoms: C_2  and  C_3
REMARK    3  A    between atoms: C_6  and  O_7
REMARK    4  A    between atoms: O_7  and  C_8
REMARK    5  A    between atoms: C_8  and  C_9
REMARK                            x       y       z     vdW  Elec       q    Type
REMARK                         _______ _______ _______ _____ _____    ______ ____
ROOT
ATOM      1  C   UNL     1      46.382   2.164   7.809  0.00  0.00    +0.000 A 
ATOM      2  C   UNL     1      46.430   3.539   7.546  0.00  0.00    +0.000 A 
ATOM      3  C   UNL     1      45.582   4.433   8.213  0.00  0.00    +0.000 A 
ATOM      4  C   UNL     1      44.667   3.963   9.154  0.00  0.00    +0.000 A 
ATOM      5  C   UNL     1      44.623   2.594   9.429  0.00  0.00    +0.000 A 
ATOM      6  C   UNL     1      45.471   1.701   8.765  0.00  0.00    +0.000 A 
ENDROOT
BRANCH   1   7
ATOM      7  C   UNL     1      47.261   1.203   7.048  0.00  0.00    +0.000 C 
BRANCH   7   8
ATOM      8  N   UNL     1      48.381   1.878   6.401  0.00  0.00    +0.000 NA
ATOM      9  H   UNL     1      48.548   1.447   5.493  0.00  0.00    +0.000 HD
ATOM     10  H   UNL     1      49.222   1.717   6.954  0.00  0.00    +0.000 HD
ENDBRANCH   7   8
ENDBRANCH   1   7
BRANCH   4  11
ATOM     11  O   UNL     1      43.766   4.720   9.856  0.00  0.00    +0.000 OA
BRANCH  11  12
ATOM     12  C   UNL     1      44.042   4.935  11.247  0.00  0.00    +0.000 C 
BRANCH  12  13
ATOM     13  C   UNL     1      44.942   6.182  11.403  0.00  0.00    +0.000 C 
ATOM     14  C   UNL     1      46.376   5.769  11.774  0.00  0.00    +0.000 C 
ATOM     15  C   UNL     1      47.274   6.986  11.988  0.00  0.00    +0.000 C 
ATOM     16  C   UNL     1      46.636   7.961  12.974  0.00  0.00    +0.000 C 
ATOM     17  C   UNL     1      45.208   8.305  12.559  0.00  0.00    +0.000 C 
ATOM     18  N   UNL     1      44.400   7.094  12.431  0.00  0.00    +0.000 NA
ATOM     19  H   UNL     1      43.443   7.338  12.163  0.00  0.00    +0.000 HD
ENDBRANCH  12  13
ENDBRANCH  11  12
ENDBRANCH   4  11
TORSDOF 5
ENDMDL
MODEL 3
REMARK VINA RESULT:    -6.648      1.732      5.532
REMARK INTER + INTRA:          -8.792
REMARK INTER:                  -8.397
REMARK INTRA:                  -0.394
REMARK UNBOUND:                -0.394
REMARK  Name = 
REMARK  5 active torsions:
REMARK  status: ('A' for Active; 'I' for Inactive)
REMARK    1  A    between atoms: N_1  and  C_2
REMARK    2  A    between atoms: C_2  and  C_3
REMARK    3  A    between atoms: C_6  and  O_7
REMARK    4  A    between atoms: O_7  and  C_8
REMARK    5  A    between atoms: C_8  and  C_9
REMARK                            x       y       z     vdW  Elec       q    Type
REMARK                         _______ _______ _______ _____ _____    ______ ____
ROOT
ATOM      1  C   UNL     1      46.591   5.373  12.914  0.00  0.00    +0.000 A 
ATOM      2  C   UNL     1      46.125   4.076  13.161  0.00  0.00    +0.000 A 
ATOM      3  C   UNL     1      45.278   3.427  12.254  0.00  0.00    +0.000 A 
ATOM      4  C   UNL     1      44.881   4.068  11.081  0.00  0.00    +0.000 A 
ATOM      5  C   UNL     1      45.353   5.358  10.823  0.00  0.00    +0.000 A 
ATOM      6  C   UNL     1      46.201   6.006  11.728  0.00  0.00    +0.000 A 
ENDROOT
BRANCH   1   7
ATOM      7  C   UNL     1      47.460   6.085  13.921  0.00  0.00    +0.000 C 
BRANCH   7   8
ATOM      8  N   UNL     1      48.790   6.372  13.395  0.00  0.00    +0.000 NA
ATOM      9  H   UNL     1      49.066   7.309  13.684  0.00  0.00    +0.000 HD
ATOM     10  H   UNL     1      48.741   6.388  12.377  0.00  0.00    +0.000 HD
ENDBRANCH   7   8
ENDBRANCH   1   7
BRANCH   4  11
ATOM     11  O   UNL     1      44.040   3.561  10.127  0.00  0.00    +0.000 OA
BRANCH  11  12
ATOM     12  C   UNL     1      44.368   2.272   9.589  0.00  0.00    +0.000 C 
BRANCH  12  13
ATOM     13  C   UNL     1      45.633   2.392   8.708  0.00  0.00    +0.000 C 
ATOM     14  C   UNL     1      45.374   3.328   7.516  0.00  0.00    +0.000 C 
ATOM     15  C   UNL     1      46.593   3.421   6.600  0.00  0.00    +0.000 C 
ATOM     16  C   UNL     1      47.077   2.030   6.201  0.00  0.00    +0.000 C 
ATOM     17  C   UNL     1      47.285   1.149   7.430  0.00  0.00    +0.000 C 
ATOM     18  N   UNL     1      46.061   1.065   8.223  0.00  0.00    +0.000 NA
ATOM     19  H   UNL     1      46.211   0.464   9.037  0.00  0.00    +0.000 HD
ENDBRANCH  12  13
ENDBRANCH  11  12
ENDBRANCH   4  11
TORSDOF 5
ENDMDL
MODEL 4
REMARK VINA RESULT:    -6.287      1.894      5.928
REMARK INTER + INTRA:          -8.335
REMARK INTER:                  -7.949
REMARK INTRA:                  -0.386
REMARK UNBOUND:                -0.394
REMARK  Name = 
REMARK  5 active torsions:
REMARK  status: ('A' for Active; 'I' for Inactive)
REMARK    1  A    between atoms: N_1  and  C_2
REMARK    2  A    between atoms: C_2  and  C_3
REMARK    3  A    between atoms: C_6  and  O_7
REMARK    4  A    between atoms: O_7  and  C_8
REMARK    5  A    between atoms: C_8  and  C_9
REMARK                            x       y       z     vdW  Elec       q    Type
REMARK                         _______ _______ _______ _____ _____    ______ ____
ROOT
ATOM      1  C   UNL     1      46.783   6.546  13.066  0.00  0.00    +0.000 A 
ATOM      2  C   UNL     1      46.583   5.246  13.546  0.00  0.00    +0.000 A 
ATOM      3  C   UNL     1      45.839   4.311  12.814  0.00  0.00    +0.000 A 
ATOM      4  C   UNL     1      45.279   4.665  11.588  0.00  0.00    +0.000 A 
ATOM      5  C   UNL     1      45.486   5.957  11.098  0.00  0.00    +0.000 A 
ATOM      6  C   UNL     1      46.230   6.891  11.827  0.00  0.00    +0.000 A 
ENDROOT
BRANCH   1   7
ATOM      7  C   UNL     1      47.541   7.562  13.885  0.00  0.00    +0.000 C 
BRANCH   7   8
ATOM      8  N   UNL     1      46.798   8.808  14.038  0.00  0.00    +0.000 NA
ATOM      9  H   UNL     1      45.835   8.592  14.289  0.00  0.00    +0.000 HD
ATOM     10  H   UNL     1      46.761   9.279  13.135  0.00  0.00    +0.000 HD
ENDBRANCH   7   8
ENDBRANCH   1   7
BRANCH   4  11
ATOM     11  O   UNL     1      44.511   3.862  10.787  0.00  0.00    +0.000 OA
BRANCH  11  12
ATOM     12  C   UNL     1      44.196   4.359   9.478  0.00  0.00    +0.000 C 
BRANCH  12  13
ATOM     13  C   UNL     1      44.869   3.462   8.415  0.00  0.00    +0.000 C 
ATOM     14  C   UNL     1      45.415   2.177   9.060  0.00  0.00    +0.000 C 
ATOM     15  C   UNL     1      46.133   1.297   8.038  0.00  0.00    +0.000 C 
ATOM     16  C   UNL     1      47.182   2.101   7.276  0.00  0.00    +0.000 C 
ATOM     17  C   UNL     1      46.578   3.372   6.688  0.00  0.00    +0.000 C 
ATOM     18  N   UNL     1      45.961   4.186   7.734  0.00  0.00    +0.000 NA
ATOM     19  H   UNL     1      45.569   5.039   7.329  0.00  0.00    +0.000 HD
ENDBRANCH  12  13
ENDBRANCH  11  12
ENDBRANCH   4  11
TORSDOF 5
ENDMDL
MODEL 5
REMARK VINA RESULT:    -6.110      1.878      5.899
REMARK INTER + INTRA:          -8.111
REMARK INTER:                  -7.804
REMARK INTRA:                  -0.307
REMARK UNBOUND:                -0.394
REMARK  Name = 
REMARK  5 active torsions:
REMARK  status: ('A' for Active; 'I' for Inactive)
REMARK    1  A    between atoms: N_1  and  C_2
REMARK    2  A    between atoms: C_2  and  C_3
REMARK    3  A    between atoms: C_6  and  O_7
REMARK    4  A    between atoms: O_7  and  C_8
REMARK    5  A    between atoms: C_8  and  C_9
REMARK                            x       y       z     vdW  Elec       q    Type
REMARK                         _______ _______ _______ _____ _____    ______ ____
ROOT
ATOM      1  C   UNL     1      46.278   6.481  12.694  0.00  0.00    +0.000 A 
ATOM      2  C   UNL     1      45.589   6.515  11.476  0.00  0.00    +0.000 A 
ATOM      3  C   UNL     1      45.050   5.349  10.917  0.00  0.00    +0.000 A 
ATOM      4  C   UNL     1      45.196   4.125  11.568  0.00  0.00    +0.000 A 
ATOM      5  C   UNL     1      45.874   4.088  12.791  0.00  0.00    +0.000 A 
ATOM      6  C   UNL     1      46.410   5.252  13.350  0.00  0.00    +0.000 A 
ENDROOT
BRANCH   1   7
ATOM      7  C   UNL     1      46.901   7.733  13.262  0.00  0.00    +0.000 C 
BRANCH   7   8
ATOM      8  N   UNL     1      47.748   7.450  14.416  0.00  0.00    +0.000 NA
ATOM      9  H   UNL     1      48.703   7.731  14.202  0.00  0.00    +0.000 HD
ATOM     10  H   UNL     1      47.771   6.442  14.564  0.00  0.00    +0.000 HD
ENDBRANCH   7   8
ENDBRANCH   1   7
BRANCH   4  11
ATOM     11  O   UNL     1      44.745   2.911  11.123  0.00  0.00    +0.000 OA
BRANCH  11  12
ATOM     12  C   UNL     1      44.385   2.820   9.737  0.00  0.00    +0.000 C 
BRANCH  12  13
ATOM     13  C   UNL     1      45.658   2.584   8.892  0.00  0.00    +0.000 C 
ATOM     14  C   UNL     1      45.680   3.526   7.677  0.00  0.00    +0.000 C 
ATOM     15  C   UNL     1      46.903   3.276   6.795  0.00  0.00    +0.000 C 
ATOM     16  C   UNL     1      47.015   1.798   6.435  0.00  0.00    +0.000 C 
ATOM     17  C   UNL     1      46.957   0.923   7.683  0.00  0.00    +0.000 C 
ATOM     18  N   UNL     1      45.735   1.180   8.442  0.00  0.00    +0.000 NA
ATOM     19  H   UNL     1      45.703   0.581   9.270  0.00  0.00    +0.000 HD
ENDBRANCH  12  13
ENDBRANCH  11  12
ENDBRANCH   4  11
TORSDOF 5
ENDMDL
MODEL 6
REMARK VINA RESULT:    -5.498      3.987      6.182
REMARK INTER + INTRA:          -7.339
REMARK INTER:                  -7.051
REMARK INTRA:                  -0.288
REMARK UNBOUND:                -0.394
REMARK  Name = 
REMARK  5 active torsions:
REMARK  status: ('A' for Active; 'I' for Inactive)
REMARK    1  A    between atoms: N_1  and  C_2
REMARK    2  A    between atoms: C_2  and  C_3
REMARK    3  A    between atoms: C_6  and  O_7
REMARK    4  A    between atoms: O_7  and  C_8
REMARK    5  A    between atoms: C_8  and  C_9
REMARK                            x       y       z     vdW  Elec       q    Type
REMARK                         _______ _______ _______ _____ _____    ______ ____
ROOT
ATOM      1  C   UNL     1      45.202   5.304  12.012  0.00  0.00    +0.000 A 
ATOM      2  C   UNL     1      45.201   3.904  11.982  0.00  0.00    +0.000 A 
ATOM      3  C   UNL     1      45.980   3.161  12.879  0.00  0.00    +0.000 A 
ATOM      4  C   UNL     1      46.778   3.809  13.820  0.00  0.00    +0.000 A 
ATOM      5  C   UNL     1      46.774   5.206  13.862  0.00  0.00    +0.000 A 
ATOM      6  C   UNL     1      45.995   5.948  12.968  0.00  0.00    +0.000 A 
ENDROOT
BRANCH   1   7
ATOM      7  C   UNL     1      44.401   6.096  11.008  0.00  0.00    +0.000 C 
BRANCH   7   8
ATOM      8  N   UNL     1      43.413   5.272  10.320  0.00  0.00    +0.000 NA
ATOM      9  H   UNL     1      42.823   4.814  11.013  0.00  0.00    +0.000 HD
ATOM     10  H   UNL     1      43.900   4.529   9.821  0.00  0.00    +0.000 HD
ENDBRANCH   7   8
ENDBRANCH   1   7
BRANCH   4  11
ATOM     11  O   UNL     1      47.604   3.209  14.733  0.00  0.00    +0.000 OA
BRANCH  11  12
ATOM     12  C   UNL     1      47.330   3.456  16.119  0.00  0.00    +0.000 C 
BRANCH  12  13
ATOM     13  C   UNL     1      48.551   3.027  16.966  0.00  0.00    +0.000 C 
ATOM     14  C   UNL     1      49.352   4.259  17.418  0.00  0.00    +0.000 C 
ATOM     15  C   UNL     1      50.595   3.859  18.213  0.00  0.00    +0.000 C 
ATOM     16  C   UNL     1      51.421   2.832  17.443  0.00  0.00    +0.000 C 
ATOM     17  C   UNL     1      50.557   1.654  17.001  0.00  0.00    +0.000 C 
ATOM     18  N   UNL     1      49.423   2.112  16.202  0.00  0.00    +0.000 NA
ATOM     19  H   UNL     1      48.858   1.313  15.904  0.00  0.00    +0.000 HD
ENDBRANCH  12  13
ENDBRANCH  11  12
ENDBRANCH   4  11
TORSDOF 5
ENDMDL
MODEL 7
REMARK VINA RESULT:    -5.181      3.931      5.966
REMARK INTER + INTRA:          -6.938
REMARK INTER:                  -6.745
REMARK INTRA:                  -0.194
REMARK UNBOUND:                -0.394
REMARK  Name = 
REMARK  5 active torsions:
REMARK  status: ('A' for Active; 'I' for Inactive)
REMARK    1  A    between atoms: N_1  and  C_2
REMARK    2  A    between atoms: C_2  and  C_3
REMARK    3  A    between atoms: C_6  and  O_7
REMARK    4  A    between atoms: O_7  and  C_8
REMARK    5  A    between atoms: C_8  and  C_9
REMARK                            x       y       z     vdW  Elec       q    Type
REMARK                         _______ _______ _______ _____ _____    ______ ____
ROOT
ATOM      1  C   UNL     1      44.773   4.673  11.615  0.00  0.00    +0.000 A 
ATOM      2  C   UNL     1      45.282   5.869  12.137  0.00  0.00    +0.000 A 
ATOM      3  C   UNL     1      46.258   5.862  13.142  0.00  0.00    +0.000 A 
ATOM      4  C   UNL     1      46.740   4.655  13.644  0.00  0.00    +0.000 A 
ATOM      5  C   UNL     1      46.245   3.458  13.118  0.00  0.00    +0.000 A 
ATOM      6  C   UNL     1      45.272   3.464  12.113  0.00  0.00    +0.000 A 
ENDROOT
BRANCH   1   7
ATOM      7  C   UNL     1      43.684   4.689  10.570  0.00  0.00    +0.000 C 
BRANCH   7   8
ATOM      8  N   UNL     1      44.221   4.630   9.216  0.00  0.00    +0.000 NA
ATOM      9  H   UNL     1      45.100   5.144   9.184  0.00  0.00    +0.000 HD
ATOM     10  H   UNL     1      43.581   5.116   8.589  0.00  0.00    +0.000 HD
ENDBRANCH   7   8
ENDBRANCH   1   7
BRANCH   4  11
ATOM     11  O   UNL     1      47.669   4.505  14.639  0.00  0.00    +0.000 OA
BRANCH  11  12
ATOM     12  C   UNL     1      47.213   3.934  15.874  0.00  0.00    +0.000 C 
BRANCH  12  13
ATOM     13  C   UNL     1      47.825   4.718  17.057  0.00  0.00    +0.000 C 
ATOM     14  C   UNL     1      49.027   3.959  17.643  0.00  0.00    +0.000 C 
ATOM     15  C   UNL     1      49.618   4.688  18.849  0.00  0.00    +0.000 C 
ATOM     16  C   UNL     1      48.531   5.008  19.871  0.00  0.00    +0.000 C 
ATOM     17  C   UNL     1      47.360   5.734  19.217  0.00  0.00    +0.000 C 
ATOM     18  N   UNL     1      46.816   4.950  18.110  0.00  0.00    +0.000 NA
ATOM     19  H   UNL     1      46.025   5.442  17.687  0.00  0.00    +0.000 HD
ENDBRANCH  12  13
ENDBRANCH  11  12
ENDBRANCH   4  11
TORSDOF 5
ENDMDL
MODEL 8
REMARK VINA RESULT:    -5.019      4.132      7.676
REMARK INTER + INTRA:          -6.733
REMARK INTER:                  -6.495
REMARK INTRA:                  -0.238
REMARK UNBOUND:                -0.394
REMARK  Name = 
REMARK  5 active torsions:
REMARK  status: ('A' for Active; 'I' for Inactive)
REMARK    1  A    between atoms: N_1  and  C_2
REMARK    2  A    between atoms: C_2  and  C_3
REMARK    3  A    between atoms: C_6  and  O_7
REMARK    4  A    between atoms: O_7  and  C_8
REMARK    5  A    between atoms: C_8  and  C_9
REMARK                            x       y       z     vdW  Elec       q    Type
REMARK                         _______ _______ _______ _____ _____    ______ ____
ROOT
ATOM      1  C   UNL     1      49.694   4.324  17.846  0.00  0.00    +0.000 A 
ATOM      2  C   UNL     1      49.276   3.017  17.566  0.00  0.00    +0.000 A 
ATOM      3  C   UNL     1      48.272   2.765  16.622  0.00  0.00    +0.000 A 
ATOM      4  C   UNL     1      47.664   3.821  15.945  0.00  0.00    +0.000 A 
ATOM      5  C   UNL     1      48.086   5.127  16.212  0.00  0.00    +0.000 A 
ATOM      6  C   UNL     1      49.091   5.378  17.152  0.00  0.00    +0.000 A 
ENDROOT
BRANCH   1   7
ATOM      7  C   UNL     1      50.740   4.588  18.902  0.00  0.00    +0.000 C 
BRANCH   7   8
ATOM      8  N   UNL     1      51.796   3.582  18.893  0.00  0.00    +0.000 NA
ATOM      9  H   UNL     1      52.093   3.421  17.933  0.00  0.00    +0.000 HD
ATOM     10  H   UNL     1      51.408   2.700  19.226  0.00  0.00    +0.000 HD
ENDBRANCH   7   8
ENDBRANCH   1   7
BRANCH   4  11
ATOM     11  O   UNL     1      46.657   3.719  15.023  0.00  0.00    +0.000 OA
BRANCH  11  12
ATOM     12  C   UNL     1      46.529   4.792  14.079  0.00  0.00    +0.000 C 
BRANCH  12  13
ATOM     13  C   UNL     1      45.690   4.313  12.871  0.00  0.00    +0.000 C 
ATOM     14  C   UNL     1      45.595   5.419  11.808  0.00  0.00    +0.000 C 
ATOM     15  C   UNL     1      44.726   4.990  10.627  0.00  0.00    +0.000 C 
ATOM     16  C   UNL     1      43.372   4.478  11.111  0.00  0.00    +0.000 C 
ATOM     17  C   UNL     1      43.543   3.405  12.182  0.00  0.00    +0.000 C 
ATOM     18  N   UNL     1      44.337   3.910  13.301  0.00  0.00    +0.000 NA
ATOM     19  H   UNL     1      44.434   3.185  14.016  0.00  0.00    +0.000 HD
ENDBRANCH  12  13
ENDBRANCH  11  12
ENDBRANCH   4  11
TORSDOF 5
ENDMDL
MODEL 9
REMARK VINA RESULT:    -4.872      3.677      5.838
REMARK INTER + INTRA:          -6.548
REMARK INTER:                  -6.193
REMARK INTRA:                  -0.356
REMARK UNBOUND:                -0.394
REMARK  Name = 
REMARK  5 active torsions:
REMARK  status: ('A' for Active; 'I' for Inactive)
REMARK    1  A    between atoms: N_1  and  C_2
REMARK    2  A    between atoms: C_2  and  C_3
REMARK    3  A    between atoms: C_6  and  O_7
REMARK    4  A    between atoms: O_7  and  C_8
REMARK    5  A    between atoms: C_8  and  C_9
REMARK                            x       y       z     vdW  Elec       q    Type
REMARK                         _______ _______ _______ _____ _____    ______ ____
ROOT
ATOM      1  C   UNL     1      44.935   4.457  11.660  0.00  0.00    +0.000 A 
ATOM      2  C   UNL     1      45.488   3.616  12.634  0.00  0.00    +0.000 A 
ATOM      3  C   UNL     1      46.542   4.049  13.449  0.00  0.00    +0.000 A 
ATOM      4  C   UNL     1      47.064   5.333  13.300  0.00  0.00    +0.000 A 
ATOM      5  C   UNL     1      46.508   6.181  12.338  0.00  0.00    +0.000 A 
ATOM      6  C   UNL     1      45.454   5.750  11.525  0.00  0.00    +0.000 A 
ENDROOT
BRANCH   1   7
ATOM      7  C   UNL     1      43.836   3.965  10.751  0.00  0.00    +0.000 C 
BRANCH   7   8
ATOM      8  N   UNL     1      42.974   2.990  11.410  0.00  0.00    +0.000 NA
ATOM      9  H   UNL     1      42.032   3.069  11.029  0.00  0.00    +0.000 HD
ATOM     10  H   UNL     1      42.905   3.231  12.398  0.00  0.00    +0.000 HD
ENDBRANCH   7   8
ENDBRANCH   1   7
BRANCH   4  11
ATOM     11  O   UNL     1      48.105   5.871  14.008  0.00  0.00    +0.000 OA
BRANCH  11  12
ATOM     12  C   UNL     1      48.381   7.264  13.801  0.00  0.00    +0.000 C 
BRANCH  12  13
ATOM     13  C   UNL     1      48.737   7.921  15.154  0.00  0.00    +0.000 C 
ATOM     14  C   UNL     1      48.917   6.850  16.243  0.00  0.00    +0.000 C 
ATOM     15  C   UNL     1      49.217   7.478  17.604  0.00  0.00    +0.000 C 
ATOM     16  C   UNL     1      48.178   8.542  17.948  0.00  0.00    +0.000 C 
ATOM     17  C   UNL     1      48.031   9.552  16.814  0.00  0.00    +0.000 C 
ATOM     18  N   UNL     1      47.691   8.880  15.561  0.00  0.00    +0.000 NA
ATOM     19  H   UNL     1      47.585   9.569  14.812  0.00  0.00    +0.000 HD
ENDBRANCH  12  13
ENDBRANCH  11  12
ENDBRANCH   4  11
TORSDOF 5
ENDMDL
