MODEL 1
REMARK VINA RESULT:    -9.348      0.000      0.000
REMARK INTER + INTRA:         -12.188
REMARK INTER:                 -11.534
REMARK INTRA:                  -0.654
REMARK UNBOUND:                -0.654
REMARK  Name = 
REMARK  4 active torsions:
REMARK  status: ('A' for Active; 'I' for Inactive)
REMARK    1  A    between atoms: C_2  and  C_4
REMARK    2  A    between atoms: N_8  and  C_9
REMARK    3  A    between atoms: C_9  and  C_10
REMARK    4  A    between atoms: C_14  and  C_15
REMARK                            x       y       z     vdW  Elec       q    Type
REMARK                         _______ _______ _______ _____ _____    ______ ____
ROOT
ATOM      1  C   UNL     1      43.417   4.858  11.000  0.00  0.00    +0.000 C 
ENDROOT
BRANCH   1   6
ATOM      2  C   UNL     1      46.411   2.306   7.697  0.00  0.00    +0.000 A 
ATOM      3  C   UNL     1      45.662   1.812   8.759  0.00  0.00    +0.000 A 
ATOM      4  C   UNL     1      44.798   2.672   9.440  0.00  0.00    +0.000 A 
ATOM      5  C   UNL     1      44.709   4.005   9.061  0.00  0.00    +0.000 A 
ATOM      6  N   UNL     1      43.805   4.891   9.604  0.00  0.00    +0.000 N 
ATOM      7  N   UNL     1      45.455   4.499   8.053  0.00  0.00    +0.000 NA
ATOM      8  C   UNL     1      46.295   3.653   7.400  0.00  0.00    +0.000 A 
ATOM      9  H   UNL     1      44.002   5.809   9.217  0.00  0.00    +0.000 HD
BRANCH   2  11
ATOM     10  N   UNL     1      48.400   2.048   6.335  0.00  0.00    +0.000 N 
ATOM     11  C   UNL     1      47.300   1.451   6.886  0.00  0.00    +0.000 C 
ATOM     12  O   UNL     1      47.088   0.254   6.748  0.00  0.00    +0.000 OA
ATOM     13  H   UNL     1      49.063   1.436   5.877  0.00  0.00    +0.000 HD
ATOM     14  H   UNL     1      48.739   2.950   6.644  0.00  0.00    +0.000 HD
ENDBRANCH   2  11
ENDBRANCH   1   6
BRANCH   1  15
ATOM     15  C   UNL     1      44.585   5.016  11.931  0.00  0.00    +0.000 A 
ATOM     16  C   UNL     1      44.707   4.233  13.069  0.00  0.00    +0.000 A 
ATOM     17  N   UNL     1      45.687   4.382  13.986  0.00  0.00    +0.000 NA
ATOM     18  C   UNL     1      46.601   5.356  13.746  0.00  0.00    +0.000 A 
ATOM     19  C   UNL     1      46.607   6.201  12.635  0.00  0.00    +0.000 A 
ATOM     20  C   UNL     1      45.557   6.006  11.725  0.00  0.00    +0.000 A 
BRANCH  19  21
ATOM     21  C   UNL     1      47.645   7.233  12.421  0.00  0.00    +0.000 A 
ATOM     22  C   UNL     1      49.016   6.908  12.433  0.00  0.00    +0.000 A 
ATOM     23  C   UNL     1      50.003   7.878  12.213  0.00  0.00    +0.000 A 
ATOM     24  C   UNL     1      49.638   9.196  11.964  0.00  0.00    +0.000 A 
ATOM     25  C   UNL     1      48.292   9.533  11.947  0.00  0.00    +0.000 A 
ATOM     26  F   UNL     1      47.932  10.799  11.702  0.00  0.00    +0.000 F 
ATOM     27  C   UNL     1      47.307   8.575  12.177  0.00  0.00    +0.000 A 
ENDBRANCH  19  21
ENDBRANCH   1  15
TORSDOF 4
ENDMDL
MODEL 2
REMARK VINA RESULT:    -8.590      4.038      6.967
REMARK INTER + INTRA:         -11.252
REMARK INTER:                 -10.837
REMARK INTRA:                  -0.415
REMARK UNBOUND:                -0.654
REMARK  Name = 
REMARK  4 active torsions:
REMARK  status: ('A' for Active; 'I' for Inactive)
REMARK    1  A    between atoms: C_2  and  C_4
REMARK    2  A    between atoms: N_8  and  C_9
REMARK    3  A    between atoms: C_9  and  C_10
REMARK    4  A    between atoms: C_14  and  C_15
REMARK                            x       y       z     vdW  Elec       q    Type
REMARK                         _______ _______ _______ _____ _____    ______ ____
ROOT
ATOM      1  C   UNL     1      43.562   6.482  11.295  0.00  0.00    +0.000 C 
ENDROOT
BRANCH   1   6
ATOM      2  C   UNL     1      48.142   7.011  13.559  0.00  0.00    +0.000 A 
ATOM      3  C   UNL     1      47.346   5.876  13.451  0.00  0.00    +0.000 A 
ATOM      4  C   UNL     1      46.198   5.924  12.660  0.00  0.00    +0.000 A 
ATOM      5  C   UNL     1      45.858   7.102  12.005  0.00  0.00    +0.000 A 
ATOM      6  N   UNL     1      44.808   7.202  11.120  0.00  0.00    +0.000 N 
ATOM      7  N   UNL     1      46.606   8.215  12.129  0.00  0.00    +0.000 NA
ATOM      8  C   UNL     1      47.720   8.156  12.906  0.00  0.00    +0.000 A 
ATOM      9  H   UNL     1      44.725   8.178  10.850  0.00  0.00    +0.000 HD
BRANCH   2  11
ATOM     10  N   UNL     1      50.489   7.597  13.718  0.00  0.00    +0.000 N 
ATOM     11  C   UNL     1      49.404   7.027  14.325  0.00  0.00    +0.000 C 
ATOM     12  O   UNL     1      49.469   6.589  15.465  0.00  0.00    +0.000 OA
ATOM     13  H   UNL     1      51.319   7.708  14.287  0.00  0.00    +0.000 HD
ATOM     14  H   UNL     1      50.404   8.193  12.905  0.00  0.00    +0.000 HD
ENDBRANCH   2  11
ENDBRANCH   1   6
BRANCH   1  15
ATOM     15  C   UNL     1      43.679   5.026  10.944  0.00  0.00    +0.000 A 
ATOM     16  C   UNL     1      43.033   4.052  11.690  0.00  0.00    +0.000 A 
ATOM     17  N   UNL     1      43.164   2.726  11.476  0.00  0.00    +0.000 NA
ATOM     18  C   UNL     1      43.975   2.352  10.454  0.00  0.00    +0.000 A 
ATOM     19  C   UNL     1      44.669   3.225   9.615  0.00  0.00    +0.000 A 
ATOM     20  C   UNL     1      44.502   4.590   9.895  0.00  0.00    +0.000 A 
BRANCH  19  21
ATOM     21  C   UNL     1      45.523   2.754   8.503  0.00  0.00    +0.000 A 
ATOM     22  C   UNL     1      45.977   3.636   7.502  0.00  0.00    +0.000 A 
ATOM     23  C   UNL     1      46.801   3.199   6.456  0.00  0.00    +0.000 A 
ATOM     24  C   UNL     1      47.198   1.868   6.395  0.00  0.00    +0.000 A 
ATOM     25  C   UNL     1      46.761   0.986   7.373  0.00  0.00    +0.000 A 
ATOM     26  F   UNL     1      47.144  -0.296   7.324  0.00  0.00    +0.000 F 
ATOM     27  C   UNL     1      45.932   1.412   8.408  0.00  0.00    +0.000 A 
ENDBRANCH  19  21
ENDBRANCH   1  15
TORSDOF 4
ENDMDL
MODEL 3
REMARK VINA RESULT:    -8.471      3.988      6.930
REMARK INTER + INTRA:         -11.106
REMARK INTER:                 -10.284
REMARK INTRA:                  -0.822
REMARK UNBOUND:                -0.654
REMARK  Name = 
REMARK  4 active torsions:
REMARK  status: ('A' for Active; 'I' for Inactive)
REMARK    1  A    between atoms: C_2  and  C_4
REMARK    2  A    between atoms: N_8  and  C_9
REMARK    3  A    between atoms: C_9  and  C_10
REMARK    4  A    between atoms: C_14  and  C_15
REMARK                            x       y       z     vdW  Elec       q    Type
REMARK                         _______ _______ _______ _____ _____    ______ ____
ROOT
ATOM      1  C   UNL     1      43.803   6.367  11.722  0.00  0.00    +0.000 C 
ENDROOT
BRANCH   1   6
ATOM      2  C   UNL     1      48.729   7.377  12.771  0.00  0.00    +0.000 A 
ATOM      3  C   UNL     1      47.948   7.836  11.716  0.00  0.00    +0.000 A 
ATOM      4  C   UNL     1      46.582   7.550  11.707  0.00  0.00    +0.000 A 
ATOM      5  C   UNL     1      46.025   6.802  12.737  0.00  0.00    +0.000 A 
ATOM      6  N   UNL     1      44.673   6.570  12.863  0.00  0.00    +0.000 N 
ATOM      7  N   UNL     1      46.780   6.327  13.747  0.00  0.00    +0.000 NA
ATOM      8  C   UNL     1      48.110   6.609  13.743  0.00  0.00    +0.000 A 
ATOM      9  H   UNL     1      44.541   5.935  13.644  0.00  0.00    +0.000 HD
BRANCH   2  11
ATOM     10  N   UNL     1      50.950   7.423  11.800  0.00  0.00    +0.000 N 
ATOM     11  C   UNL     1      50.167   7.688  12.889  0.00  0.00    +0.000 C 
ATOM     12  O   UNL     1      50.633   8.199  13.899  0.00  0.00    +0.000 OA
ATOM     13  H   UNL     1      51.909   7.741  11.844  0.00  0.00    +0.000 HD
ATOM     14  H   UNL     1      50.560   7.255  10.881  0.00  0.00    +0.000 HD
ENDBRANCH   2  11
ENDBRANCH   1   6
BRANCH   1  15
ATOM     15  C   UNL     1      43.825   4.950  11.221  0.00  0.00    +0.000 A 
ATOM     16  C   UNL     1      43.101   3.952  11.856  0.00  0.00    +0.000 A 
ATOM     17  N   UNL     1      43.142   2.650  11.505  0.00  0.00    +0.000 NA
ATOM     18  C   UNL     1      43.941   2.328  10.456  0.00  0.00    +0.000 A 
ATOM     19  C   UNL     1      44.707   3.232   9.718  0.00  0.00    +0.000 A 
ATOM     20  C   UNL     1      44.631   4.569  10.138  0.00  0.00    +0.000 A 
BRANCH  19  21
ATOM     21  C   UNL     1      45.543   2.820   8.570  0.00  0.00    +0.000 A 
ATOM     22  C   UNL     1      45.961   3.749   7.596  0.00  0.00    +0.000 A 
ATOM     23  C   UNL     1      46.768   3.368   6.515  0.00  0.00    +0.000 A 
ATOM     24  C   UNL     1      47.184   2.048   6.392  0.00  0.00    +0.000 A 
ATOM     25  C   UNL     1      46.784   1.120   7.343  0.00  0.00    +0.000 A 
ATOM     26  F   UNL     1      47.186  -0.152   7.233  0.00  0.00    +0.000 F 
ATOM     27  C   UNL     1      45.971   1.491   8.412  0.00  0.00    +0.000 A 
ENDBRANCH  19  21
ENDBRANCH   1  15
TORSDOF 4
ENDMDL
MODEL 4
REMARK VINA RESULT:    -8.165      3.909      7.203
REMARK INTER + INTRA:         -10.728
REMARK INTER:                 -10.159
REMARK INTRA:                  -0.569
REMARK UNBOUND:                -0.654
REMARK  Name = 
REMARK  4 active torsions:
REMARK  status: ('A' for Active; 'I' for Inactive)
REMARK    1  A    between atoms: C_2  and  C_4
REMARK    2  A    between atoms: N_8  and  C_9
REMARK    3  A    between atoms: C_9  and  C_10
REMARK    4  A    between atoms: C_14  and  C_15
REMARK                            x       y       z     vdW  Elec       q    Type
REMARK                         _______ _______ _______ _____ _____    ______ ____
ROOT
ATOM      1  C   UNL     1      44.521   6.407  11.393  0.00  0.00    +0.000 C 
ENDROOT
BRANCH   1   6
ATOM      2  C   UNL     1      48.010   5.899  15.128  0.00  0.00    +0.000 A 
ATOM      3  C   UNL     1      47.001   5.020  14.748  0.00  0.00    +0.000 A 
ATOM      4  C   UNL     1      46.255   5.296  13.602  0.00  0.00    +0.000 A 
ATOM      5  C   UNL     1      46.516   6.446  12.867  0.00  0.00    +0.000 A 
ATOM      6  N   UNL     1      45.905   6.737  11.668  0.00  0.00    +0.000 N 
ATOM      7  N   UNL     1      47.471   7.319  13.246  0.00  0.00    +0.000 NA
ATOM      8  C   UNL     1      48.188   7.040  14.366  0.00  0.00    +0.000 A 
ATOM      9  H   UNL     1      46.208   7.664  11.384  0.00  0.00    +0.000 HD
BRANCH   2  11
ATOM     10  N   UNL     1      48.294   5.141  17.414  0.00  0.00    +0.000 N 
ATOM     11  C   UNL     1      48.886   5.649  16.290  0.00  0.00    +0.000 C 
ATOM     12  O   UNL     1      50.092   5.846  16.238  0.00  0.00    +0.000 OA
ATOM     13  H   UNL     1      48.914   4.865  18.165  0.00  0.00    +0.000 HD
ATOM     14  H   UNL     1      47.372   4.726  17.399  0.00  0.00    +0.000 HD
ENDBRANCH   2  11
ENDBRANCH   1   6
BRANCH   1  15
ATOM     15  C   UNL     1      44.349   5.007  10.877  0.00  0.00    +0.000 A 
ATOM     16  C   UNL     1      43.474   4.119  11.484  0.00  0.00    +0.000 A 
ATOM     17  N   UNL     1      43.335   2.827  11.119  0.00  0.00    +0.000 NA
ATOM     18  C   UNL     1      44.103   2.402  10.084  0.00  0.00    +0.000 A 
ATOM     19  C   UNL     1      45.008   3.191   9.374  0.00  0.00    +0.000 A 
ATOM     20  C   UNL     1      45.117   4.522   9.807  0.00  0.00    +0.000 A 
BRANCH  19  21
ATOM     21  C   UNL     1      45.802   2.673   8.239  0.00  0.00    +0.000 A 
ATOM     22  C   UNL     1      46.317   1.361   8.241  0.00  0.00    +0.000 A 
ATOM     23  C   UNL     1      47.054   0.858   7.161  0.00  0.00    +0.000 A 
ATOM     24  C   UNL     1      47.285   1.657   6.047  0.00  0.00    +0.000 A 
ATOM     25  C   UNL     1      46.784   2.951   6.027  0.00  0.00    +0.000 A 
ATOM     26  F   UNL     1      46.997   3.724   4.954  0.00  0.00    +0.000 F 
ATOM     27  C   UNL     1      46.061   3.460   7.103  0.00  0.00    +0.000 A 
ENDBRANCH  19  21
ENDBRANCH   1  15
TORSDOF 4
ENDMDL
MODEL 5
REMARK VINA RESULT:    -8.045      1.749      2.293
REMARK INTER + INTRA:         -10.581
REMARK INTER:                 -10.321
REMARK INTRA:                  -0.259
REMARK UNBOUND:                -0.654
REMARK  Name = 
REMARK  4 active torsions:
REMARK  status: ('A' for Active; 'I' for Inactive)
REMARK    1  A    between atoms: C_2  and  C_4
REMARK    2  A    between atoms: N_8  and  C_9
REMARK    3  A    between atoms: C_9  and  C_10
REMARK    4  A    between atoms: C_14  and  C_15
REMARK                            x       y       z     vdW  Elec       q    Type
REMARK                         _______ _______ _______ _____ _____    ______ ____
ROOT
ATOM      1  C   UNL     1      43.434   3.394  11.039  0.00  0.00    +0.000 C 
ENDROOT
BRANCH   1   6
ATOM      2  C   UNL     1      46.662   2.502   7.144  0.00  0.00    +0.000 A 
ATOM      3  C   UNL     1      46.113   3.708   7.566  0.00  0.00    +0.000 A 
ATOM      4  C   UNL     1      45.370   3.741   8.747  0.00  0.00    +0.000 A 
ATOM      5  C   UNL     1      45.176   2.573   9.474  0.00  0.00    +0.000 A 
ATOM      6  N   UNL     1      44.553   2.537  10.702  0.00  0.00    +0.000 N 
ATOM      7  N   UNL     1      45.677   1.394   9.056  0.00  0.00    +0.000 NA
ATOM      8  C   UNL     1      46.396   1.375   7.902  0.00  0.00    +0.000 A 
ATOM      9  H   UNL     1      44.467   1.563  10.976  0.00  0.00    +0.000 HD
BRANCH   2  11
ATOM     10  N   UNL     1      47.375   3.372   4.996  0.00  0.00    +0.000 N 
ATOM     11  C   UNL     1      47.511   2.394   5.942  0.00  0.00    +0.000 C 
ATOM     12  O   UNL     1      48.331   1.495   5.815  0.00  0.00    +0.000 OA
ATOM     13  H   UNL     1      48.037   3.356   4.230  0.00  0.00    +0.000 HD
ATOM     14  H   UNL     1      46.912   4.251   5.189  0.00  0.00    +0.000 HD
ENDBRANCH   2  11
ENDBRANCH   1   6
BRANCH   1  15
ATOM     15  C   UNL     1      43.853   4.809  11.327  0.00  0.00    +0.000 A 
ATOM     16  C   UNL     1      42.989   5.872  11.111  0.00  0.00    +0.000 A 
ATOM     17  N   UNL     1      43.332   7.167  11.273  0.00  0.00    +0.000 NA
ATOM     18  C   UNL     1      44.601   7.414  11.684  0.00  0.00    +0.000 A 
ATOM     19  C   UNL     1      45.565   6.441  11.955  0.00  0.00    +0.000 A 
ATOM     20  C   UNL     1      45.153   5.114  11.757  0.00  0.00    +0.000 A 
BRANCH  19  21
ATOM     21  C   UNL     1      46.928   6.774  12.421  0.00  0.00    +0.000 A 
ATOM     22  C   UNL     1      47.366   6.430  13.715  0.00  0.00    +0.000 A 
ATOM     23  C   UNL     1      48.662   6.727  14.156  0.00  0.00    +0.000 A 
ATOM     24  C   UNL     1      49.555   7.368  13.304  0.00  0.00    +0.000 A 
ATOM     25  C   UNL     1      49.141   7.712  12.025  0.00  0.00    +0.000 A 
ATOM     26  F   UNL     1      49.998   8.323  11.197  0.00  0.00    +0.000 F 
ATOM     27  C   UNL     1      47.850   7.430  11.586  0.00  0.00    +0.000 A 
ENDBRANCH  19  21
ENDBRANCH   1  15
TORSDOF 4
ENDMDL
MODEL 6
REMARK VINA RESULT:    -7.908      4.441      7.897
REMARK INTER + INTRA:         -10.411
REMARK INTER:                  -9.926
REMARK INTRA:                  -0.485
REMARK UNBOUND:                -0.654
REMARK  Name = 
REMARK  4 active torsions:
REMARK  status: ('A' for Active; 'I' for Inactive)
REMARK    1  A    between atoms: C_2  and  C_4
REMARK    2  A    between atoms: N_8  and  C_9
REMARK    3  A    between atoms: C_9  and  C_10
REMARK    4  A    between atoms: C_14  and  C_15
REMARK                            x       y       z     vdW  Elec       q    Type
REMARK                         _______ _______ _______ _____ _____    ______ ____
ROOT
ATOM      1  C   UNL     1      45.931   5.594  13.261  0.00  0.00    +0.000 C 
ENDROOT
BRANCH   1   6
ATOM      2  C   UNL     1      49.011   3.976  17.040  0.00  0.00    +0.000 A 
ATOM      3  C   UNL     1      48.642   5.275  16.708  0.00  0.00    +0.000 A 
ATOM      4  C   UNL     1      47.670   5.476  15.727  0.00  0.00    +0.000 A 
ATOM      5  C   UNL     1      47.098   4.384  15.086  0.00  0.00    +0.000 A 
ATOM      6  N   UNL     1      46.058   4.489  14.190  0.00  0.00    +0.000 N 
ATOM      7  N   UNL     1      47.473   3.124  15.379  0.00  0.00    +0.000 NA
ATOM      8  C   UNL     1      48.423   2.941  16.334  0.00  0.00    +0.000 A 
ATOM      9  H   UNL     1      45.885   3.563  13.809  0.00  0.00    +0.000 HD
BRANCH   2  11
ATOM     10  N   UNL     1      49.656   4.072  19.375  0.00  0.00    +0.000 N 
ATOM     11  C   UNL     1      49.984   3.675  18.108  0.00  0.00    +0.000 C 
ATOM     12  O   UNL     1      51.017   3.059  17.881  0.00  0.00    +0.000 OA
ATOM     13  H   UNL     1      50.270   3.764  20.118  0.00  0.00    +0.000 HD
ATOM     14  H   UNL     1      48.714   4.336  19.632  0.00  0.00    +0.000 HD
ENDBRANCH   2  11
ENDBRANCH   1   6
BRANCH   1  15
ATOM     15  C   UNL     1      45.169   5.224  12.019  0.00  0.00    +0.000 A 
ATOM     16  C   UNL     1      43.826   5.539  11.879  0.00  0.00    +0.000 A 
ATOM     17  N   UNL     1      43.069   5.164  10.827  0.00  0.00    +0.000 NA
ATOM     18  C   UNL     1      43.688   4.446   9.857  0.00  0.00    +0.000 A 
ATOM     19  C   UNL     1      45.034   4.076   9.862  0.00  0.00    +0.000 A 
ATOM     20  C   UNL     1      45.767   4.485  10.988  0.00  0.00    +0.000 A 
BRANCH  19  21
ATOM     21  C   UNL     1      45.657   3.308   8.762  0.00  0.00    +0.000 A 
ATOM     22  C   UNL     1      46.182   3.952   7.623  0.00  0.00    +0.000 A 
ATOM     23  C   UNL     1      46.788   3.231   6.586  0.00  0.00    +0.000 A 
ATOM     24  C   UNL     1      46.893   1.847   6.671  0.00  0.00    +0.000 A 
ATOM     25  C   UNL     1      46.383   1.198   7.786  0.00  0.00    +0.000 A 
ATOM     26  F   UNL     1      46.486  -0.134   7.878  0.00  0.00    +0.000 F 
ATOM     27  C   UNL     1      45.768   1.908   8.814  0.00  0.00    +0.000 A 
ENDBRANCH  19  21
ENDBRANCH   1  15
TORSDOF 4
ENDMDL
MODEL 7
REMARK VINA RESULT:    -7.851      2.826      3.523
REMARK INTER + INTRA:         -10.340
REMARK INTER:                  -9.761
REMARK INTRA:                  -0.579
REMARK UNBOUND:                -0.654
REMARK  Name = 
REMARK  4 active torsions:
REMARK  status: ('A' for Active; 'I' for Inactive)
REMARK    1  A    between atoms: C_2  and  C_4
REMARK    2  A    between atoms: N_8  and  C_9
REMARK    3  A    between atoms: C_9  and  C_10
REMARK    4  A    between atoms: C_14  and  C_15
REMARK                            x       y       z     vdW  Elec       q    Type
REMARK                         _______ _______ _______ _____ _____    ______ ____
ROOT
ATOM      1  C   UNL     1      43.588   3.830  11.184  0.00  0.00    +0.000 C 
ENDROOT
BRANCH   1   6
ATOM      2  C   UNL     1      46.633   2.482   7.273  0.00  0.00    +0.000 A 
ATOM      3  C   UNL     1      46.397   3.746   7.802  0.00  0.00    +0.000 A 
ATOM      4  C   UNL     1      45.640   3.865   8.968  0.00  0.00    +0.000 A 
ATOM      5  C   UNL     1      45.122   2.727   9.575  0.00  0.00    +0.000 A 
ATOM      6  N   UNL     1      44.461   2.745  10.783  0.00  0.00    +0.000 N 
ATOM      7  N   UNL     1      45.320   1.501   9.053  0.00  0.00    +0.000 NA
ATOM      8  C   UNL     1      46.056   1.400   7.914  0.00  0.00    +0.000 A 
ATOM      9  H   UNL     1      44.117   1.806  10.960  0.00  0.00    +0.000 HD
BRANCH   2  11
ATOM     10  N   UNL     1      47.268   3.098   5.016  0.00  0.00    +0.000 N 
ATOM     11  C   UNL     1      47.475   2.264   6.080  0.00  0.00    +0.000 C 
ATOM     12  O   UNL     1      48.347   1.406   6.058  0.00  0.00    +0.000 OA
ATOM     13  H   UNL     1      47.921   3.019   4.247  0.00  0.00    +0.000 HD
ATOM     14  H   UNL     1      46.755   3.966   5.100  0.00  0.00    +0.000 HD
ENDBRANCH   2  11
ENDBRANCH   1   6
BRANCH   1  15
ATOM     15  C   UNL     1      44.333   4.971  11.818  0.00  0.00    +0.000 A 
ATOM     16  C   UNL     1      44.158   6.274  11.381  0.00  0.00    +0.000 A 
ATOM     17  N   UNL     1      44.856   7.329  11.853  0.00  0.00    +0.000 NA
ATOM     18  C   UNL     1      45.769   7.069  12.823  0.00  0.00    +0.000 A 
ATOM     19  C   UNL     1      46.032   5.811  13.366  0.00  0.00    +0.000 A 
ATOM     20  C   UNL     1      45.284   4.753  12.826  0.00  0.00    +0.000 A 
BRANCH  19  21
ATOM     21  C   UNL     1      47.027   5.595  14.439  0.00  0.00    +0.000 A 
ATOM     22  C   UNL     1      48.019   6.555  14.723  0.00  0.00    +0.000 A 
ATOM     23  C   UNL     1      48.953   6.364  15.750  0.00  0.00    +0.000 A 
ATOM     24  C   UNL     1      48.908   5.210  16.524  0.00  0.00    +0.000 A 
ATOM     25  C   UNL     1      47.937   4.256  16.259  0.00  0.00    +0.000 A 
ATOM     26  F   UNL     1      47.884   3.144  17.004  0.00  0.00    +0.000 F 
ATOM     27  C   UNL     1      47.014   4.434  15.231  0.00  0.00    +0.000 A 
ENDBRANCH  19  21
ENDBRANCH   1  15
TORSDOF 4
ENDMDL
MODEL 8
REMARK VINA RESULT:    -7.572      2.181      2.626
REMARK INTER + INTRA:          -9.996
REMARK INTER:                  -9.383
REMARK INTRA:                  -0.614
REMARK UNBOUND:                -0.654
REMARK  Name = 
REMARK  4 active torsions:
REMARK  status: ('A' for Active; 'I' for Inactive)
REMARK    1  A    between atoms: C_2  and  C_4
REMARK    2  A    between atoms: N_8  and  C_9
REMARK    3  A    between atoms: C_9  and  C_10
REMARK    4  A    between atoms: C_14  and  C_15
REMARK                            x       y       z     vdW  Elec       q    Type
REMARK                         _______ _______ _______ _____ _____    ______ ____
ROOT
ATOM      1  C   UNL     1      43.976   5.434  10.968  0.00  0.00    +0.000 C 
ENDROOT
BRANCH   1   6
ATOM      2  C   UNL     1      46.353   2.022   7.952  0.00  0.00    +0.000 A 
ATOM      3  C   UNL     1      45.624   1.802   9.116  0.00  0.00    +0.000 A 
ATOM      4  C   UNL     1      44.935   2.867   9.698  0.00  0.00    +0.000 A 
ATOM      5  C   UNL     1      44.999   4.130   9.121  0.00  0.00    +0.000 A 
ATOM      6  N   UNL     1      44.263   5.206   9.566  0.00  0.00    +0.000 N 
ATOM      7  N   UNL     1      45.728   4.359   8.012  0.00  0.00    +0.000 NA
ATOM      8  C   UNL     1      46.397   3.314   7.456  0.00  0.00    +0.000 A 
ATOM      9  H   UNL     1      44.553   6.019   9.032  0.00  0.00    +0.000 HD
BRANCH   2  11
ATOM     10  N   UNL     1      46.757  -0.343   7.608  0.00  0.00    +0.000 N 
ATOM     11  C   UNL     1      47.058   0.939   7.239  0.00  0.00    +0.000 C 
ATOM     12  O   UNL     1      47.843   1.173   6.331  0.00  0.00    +0.000 OA
ATOM     13  H   UNL     1      47.156  -1.081   7.041  0.00  0.00    +0.000 HD
ATOM     14  H   UNL     1      45.937  -0.571   8.154  0.00  0.00    +0.000 HD
ENDBRANCH   2  11
ENDBRANCH   1   6
BRANCH   1  15
ATOM     15  C   UNL     1      44.675   6.647  11.514  0.00  0.00    +0.000 A 
ATOM     16  C   UNL     1      44.152   7.918  11.337  0.00  0.00    +0.000 A 
ATOM     17  N   UNL     1      44.771   9.051  11.732  0.00  0.00    +0.000 NA
ATOM     18  C   UNL     1      45.973   8.905  12.346  0.00  0.00    +0.000 A 
ATOM     19  C   UNL     1      46.605   7.687  12.603  0.00  0.00    +0.000 A 
ATOM     20  C   UNL     1      45.917   6.547  12.159  0.00  0.00    +0.000 A 
BRANCH  19  21
ATOM     21  C   UNL     1      47.907   7.594  13.296  0.00  0.00    +0.000 A 
ATOM     22  C   UNL     1      49.074   8.165  12.749  0.00  0.00    +0.000 A 
ATOM     23  C   UNL     1      50.307   8.094  13.410  0.00  0.00    +0.000 A 
ATOM     24  C   UNL     1      50.398   7.458  14.643  0.00  0.00    +0.000 A 
ATOM     25  C   UNL     1      49.259   6.892  15.198  0.00  0.00    +0.000 A 
ATOM     26  F   UNL     1      49.338   6.283  16.388  0.00  0.00    +0.000 F 
ATOM     27  C   UNL     1      48.033   6.948  14.539  0.00  0.00    +0.000 A 
ENDBRANCH  19  21
ENDBRANCH   1  15
TORSDOF 4
ENDMDL
MODEL 9
REMARK VINA RESULT:    -6.871      4.820      8.202
REMARK INTER + INTRA:          -9.132
REMARK INTER:                  -8.654
REMARK INTRA:                  -0.478
REMARK UNBOUND:                -0.654
REMARK  Name = 
REMARK  4 active torsions:
REMARK  status: ('A' for Active; 'I' for Inactive)
REMARK    1  A    between atoms: C_2  and  C_4
REMARK    2  A    between atoms: N_8  and  C_9
REMARK    3  A    between atoms: C_9  and  C_10
REMARK    4  A    between atoms: C_14  and  C_15
REMARK                            x       y       z     vdW  Elec       q    Type
REMARK                         _______ _______ _______ _____ _____    ______ ____
ROOT
ATOM      1  C   UNL     1      48.174   7.454  13.808  0.00  0.00    +0.000 C 
ENDROOT
BRANCH   1   6
ATOM      2  C   UNL     1      50.727   5.044  17.558  0.00  0.00    +0.000 A 
ATOM      3  C   UNL     1      51.114   6.147  16.806  0.00  0.00    +0.000 A 
ATOM      4  C   UNL     1      50.195   6.732  15.933  0.00  0.00    +0.000 A 
ATOM      5  C   UNL     1      48.917   6.198  15.815  0.00  0.00    +0.000 A 
ATOM      6  N   UNL     1      47.919   6.778  15.064  0.00  0.00    +0.000 N 
ATOM      7  N   UNL     1      48.544   5.111  16.517  0.00  0.00    +0.000 NA
ATOM      8  C   UNL     1      49.449   4.548  17.361  0.00  0.00    +0.000 A 
ATOM      9  H   UNL     1      47.119   6.152  15.080  0.00  0.00    +0.000 HD
BRANCH   2  11
ATOM     10  N   UNL     1      51.751   3.047  18.474  0.00  0.00    +0.000 N 
ATOM     11  C   UNL     1      51.615   4.405  18.548  0.00  0.00    +0.000 C 
ATOM     12  O   UNL     1      52.237   5.064  19.371  0.00  0.00    +0.000 OA
ATOM     13  H   UNL     1      52.446   2.628  19.079  0.00  0.00    +0.000 HD
ATOM     14  H   UNL     1      51.469   2.518  17.659  0.00  0.00    +0.000 HD
ENDBRANCH   2  11
ENDBRANCH   1   6
BRANCH   1  15
ATOM     15  C   UNL     1      46.993   7.418  12.879  0.00  0.00    +0.000 A 
ATOM     16  C   UNL     1      46.109   8.482  12.798  0.00  0.00    +0.000 A 
ATOM     17  N   UNL     1      44.989   8.478  12.045  0.00  0.00    +0.000 NA
ATOM     18  C   UNL     1      44.744   7.353  11.327  0.00  0.00    +0.000 A 
ATOM     19  C   UNL     1      45.557   6.218  11.302  0.00  0.00    +0.000 A 
ATOM     20  C   UNL     1      46.700   6.279  12.114  0.00  0.00    +0.000 A 
BRANCH  19  21
ATOM     21  C   UNL     1      45.245   5.029  10.480  0.00  0.00    +0.000 A 
ATOM     22  C   UNL     1      44.498   3.953  10.999  0.00  0.00    +0.000 A 
ATOM     23  C   UNL     1      44.185   2.832  10.219  0.00  0.00    +0.000 A 
ATOM     24  C   UNL     1      44.604   2.768   8.895  0.00  0.00    +0.000 A 
ATOM     25  C   UNL     1      45.338   3.821   8.367  0.00  0.00    +0.000 A 
ATOM     26  F   UNL     1      45.740   3.769   7.091  0.00  0.00    +0.000 F 
ATOM     27  C   UNL     1      45.663   4.932   9.141  0.00  0.00    +0.000 A 
ENDBRANCH  19  21
ENDBRANCH   1  15
TORSDOF 4
ENDMDL
