MODEL 1
REMARK VINA RESULT:    -7.520      0.000      0.000
REMARK INTER + INTRA:         -10.396
REMARK INTER:                 -10.158
REMARK INTRA:                  -0.239
REMARK UNBOUND:                -0.239
REMARK  Name = 
REMARK  9 active torsions:
REMARK  status: ('A' for Active; 'I' for Inactive)
REMARK    1  A    between atoms: C_1  and  O_2
REMARK    2  A    between atoms: O_2  and  C_3
REMARK    3  A    between atoms: C_3  and  C_5
REMARK    4  A    between atoms: C_8  and  O_9
REMARK    5  A    between atoms: O_9  and  C_10
REMARK    6  A    between atoms: C_10  and  C_11
REMARK    7  A    between atoms: C_11  and  C_12
REMARK    8  A    between atoms: C_11  and  C_13
REMARK    9  A    between atoms: C_11  and  C_14
REMARK                            x       y       z     vdW  Elec       q    Type
REMARK                         _______ _______ _______ _____ _____    ______ ____
ROOT
ATOM      1  O   UNL     1      43.830   4.683   9.690  0.00  0.00    +0.000 OA
ENDROOT
BRANCH   1   5
ATOM      2  C   UNL     1      46.405   2.002   7.799  0.00  0.00    +0.000 A 
ATOM      3  C   UNL     1      46.538   3.368   7.513  0.00  0.00    +0.000 A 
ATOM      4  C   UNL     1      45.696   4.303   8.129  0.00  0.00    +0.000 A 
ATOM      5  C   UNL     1      44.718   3.879   9.030  0.00  0.00    +0.000 A 
ATOM      6  C   UNL     1      44.594   2.517   9.318  0.00  0.00    +0.000 A 
ATOM      7  C   UNL     1      45.435   1.580   8.714  0.00  0.00    +0.000 A 
BRANCH   2   8
ATOM      8  C   UNL     1      47.273   0.980   7.167  0.00  0.00    +0.000 C 
ATOM      9  O   UNL     1      47.052  -0.219   7.210  0.00  0.00    +0.000 OA
BRANCH   8  11
ATOM     10  C   UNL     1      47.914   2.172   5.262  0.00  0.00    +0.000 C 
ATOM     11  O   UNL     1      48.295   1.586   6.510  0.00  0.00    +0.000 OA
ENDBRANCH   8  11
ENDBRANCH   2   8
ENDBRANCH   1   5
BRANCH   1  12
ATOM     12  C   UNL     1      43.413   4.272  10.997  0.00  0.00    +0.000 C 
BRANCH  12  13
ATOM     13  C   UNL     1      43.550   5.453  12.005  0.00  0.00    +0.000 C 
ATOM     14  C   UNL     1      42.875   6.718  11.425  0.00  0.00    +0.000 C 
ATOM     15  C   UNL     1      42.770   5.088  13.291  0.00  0.00    +0.000 C 
BRANCH  13  16
ATOM     16  C   UNL     1      45.045   5.742  12.253  0.00  0.00    +0.000 A 
ATOM     17  C   UNL     1      45.745   5.054  13.264  0.00  0.00    +0.000 A 
ATOM     18  C   UNL     1      47.108   5.271  13.489  0.00  0.00    +0.000 A 
ATOM     19  C   UNL     1      47.805   6.185  12.704  0.00  0.00    +0.000 A 
ATOM     20  C   UNL     1      47.136   6.887  11.710  0.00  0.00    +0.000 A 
ATOM     21  C   UNL     1      45.773   6.673  11.489  0.00  0.00    +0.000 A 
ENDBRANCH  13  16
ENDBRANCH  12  13
ENDBRANCH   1  12
TORSDOF 6
ENDMDL
MODEL 2
REMARK VINA RESULT:    -6.860      3.099      6.507
REMARK INTER + INTRA:          -9.505
REMARK INTER:                  -8.525
REMARK INTRA:                  -0.980
REMARK UNBOUND:                -0.239
REMARK  Name = 
REMARK  9 active torsions:
REMARK  status: ('A' for Active; 'I' for Inactive)
REMARK    1  A    between atoms: C_1  and  O_2
REMARK    2  A    between atoms: O_2  and  C_3
REMARK    3  A    between atoms: C_3  and  C_5
REMARK    4  A    between atoms: C_8  and  O_9
REMARK    5  A    between atoms: O_9  and  C_10
REMARK    6  A    between atoms: C_10  and  C_11
REMARK    7  A    between atoms: C_11  and  C_12
REMARK    8  A    between atoms: C_11  and  C_13
REMARK    9  A    between atoms: C_11  and  C_14
REMARK                            x       y       z     vdW  Elec       q    Type
REMARK                         _______ _______ _______ _____ _____    ______ ____
ROOT
ATOM      1  O   UNL     1      44.857   5.955  12.799  0.00  0.00    +0.000 OA
ENDROOT
BRANCH   1   5
ATOM      2  C   UNL     1      47.868   8.728  12.005  0.00  0.00    +0.000 A 
ATOM      3  C   UNL     1      46.671   9.188  12.570  0.00  0.00    +0.000 A 
ATOM      4  C   UNL     1      45.635   8.290  12.856  0.00  0.00    +0.000 A 
ATOM      5  C   UNL     1      45.788   6.931  12.578  0.00  0.00    +0.000 A 
ATOM      6  C   UNL     1      46.987   6.475  12.023  0.00  0.00    +0.000 A 
ATOM      7  C   UNL     1      48.028   7.364  11.743  0.00  0.00    +0.000 A 
BRANCH   2   8
ATOM      8  C   UNL     1      48.989   9.645  11.685  0.00  0.00    +0.000 C 
ATOM      9  O   UNL     1      48.894  10.590  10.918  0.00  0.00    +0.000 OA
BRANCH   8  11
ATOM     10  C   UNL     1      51.273   9.161  11.616  0.00  0.00    +0.000 C 
ATOM     11  O   UNL     1      50.087   9.299  12.403  0.00  0.00    +0.000 OA
ENDBRANCH   8  11
ENDBRANCH   2   8
ENDBRANCH   1   5
BRANCH   1  12
ATOM     12  C   UNL     1      45.184   4.623  12.384  0.00  0.00    +0.000 C 
BRANCH  12  13
ATOM     13  C   UNL     1      44.119   4.092  11.380  0.00  0.00    +0.000 C 
ATOM     14  C   UNL     1      43.405   2.856  11.976  0.00  0.00    +0.000 C 
ATOM     15  C   UNL     1      43.034   5.182  11.199  0.00  0.00    +0.000 C 
BRANCH  13  16
ATOM     16  C   UNL     1      44.813   3.692  10.062  0.00  0.00    +0.000 A 
ATOM     17  C   UNL     1      45.361   4.677   9.217  0.00  0.00    +0.000 A 
ATOM     18  C   UNL     1      46.026   4.340   8.034  0.00  0.00    +0.000 A 
ATOM     19  C   UNL     1      46.159   3.003   7.667  0.00  0.00    +0.000 A 
ATOM     20  C   UNL     1      45.616   2.014   8.474  0.00  0.00    +0.000 A 
ATOM     21  C   UNL     1      44.947   2.351   9.655  0.00  0.00    +0.000 A 
ENDBRANCH  13  16
ENDBRANCH  12  13
ENDBRANCH   1  12
TORSDOF 6
ENDMDL
MODEL 3
REMARK VINA RESULT:    -6.539      4.026      6.437
REMARK INTER + INTRA:          -9.071
REMARK INTER:                  -8.371
REMARK INTRA:                  -0.700
REMARK UNBOUND:                -0.239
REMARK  Name = 
REMARK  9 active torsions:
REMARK  status: ('A' for Active; 'I' for Inactive)
REMARK    1  A    between atoms: C_1  and  O_2
REMARK    2  A    between atoms: O_2  and  C_3
REMARK    3  A    between atoms: C_3  and  C_5
REMARK    4  A    between atoms: C_8  and  O_9
REMARK    5  A    between atoms: O_9  and  C_10
REMARK    6  A    between atoms: C_10  and  C_11
REMARK    7  A    between atoms: C_11  and  C_12
REMARK    8  A    between atoms: C_11  and  C_13
REMARK    9  A    between atoms: C_11  and  C_14
REMARK                            x       y       z     vdW  Elec       q    Type
REMARK                         _______ _______ _______ _____ _____    ______ ____
ROOT
ATOM      1  O   UNL     1      47.764   5.083  14.782  0.00  0.00    +0.000 OA
ENDROOT
BRANCH   1   5
ATOM      2  C   UNL     1      44.864   4.245  11.905  0.00  0.00    +0.000 A 
ATOM      3  C   UNL     1      45.095   5.583  12.248  0.00  0.00    +0.000 A 
ATOM      4  C   UNL     1      46.063   5.910  13.206  0.00  0.00    +0.000 A 
ATOM      5  C   UNL     1      46.802   4.902  13.828  0.00  0.00    +0.000 A 
ATOM      6  C   UNL     1      46.574   3.569  13.478  0.00  0.00    +0.000 A 
ATOM      7  C   UNL     1      45.617   3.237  12.517  0.00  0.00    +0.000 A 
BRANCH   2   8
ATOM      8  C   UNL     1      43.848   3.856  10.898  0.00  0.00    +0.000 C 
ATOM      9  O   UNL     1      43.003   2.996  11.083  0.00  0.00    +0.000 OA
BRANCH   8  11
ATOM     10  C   UNL     1      44.685   3.991   8.721  0.00  0.00    +0.000 C 
ATOM     11  O   UNL     1      43.980   4.628   9.789  0.00  0.00    +0.000 OA
ENDBRANCH   8  11
ENDBRANCH   2   8
ENDBRANCH   1   5
BRANCH   1  12
ATOM     12  C   UNL     1      47.616   4.367  16.014  0.00  0.00    +0.000 C 
BRANCH  12  13
ATOM     13  C   UNL     1      48.542   4.975  17.109  0.00  0.00    +0.000 C 
ATOM     14  C   UNL     1      49.062   6.357  16.648  0.00  0.00    +0.000 C 
ATOM     15  C   UNL     1      47.695   5.224  18.380  0.00  0.00    +0.000 C 
BRANCH  13  16
ATOM     16  C   UNL     1      49.741   4.034  17.344  0.00  0.00    +0.000 A 
ATOM     17  C   UNL     1      49.617   2.650  17.113  0.00  0.00    +0.000 A 
ATOM     18  C   UNL     1      50.697   1.778  17.285  0.00  0.00    +0.000 A 
ATOM     19  C   UNL     1      51.932   2.273  17.695  0.00  0.00    +0.000 A 
ATOM     20  C   UNL     1      52.078   3.631  17.944  0.00  0.00    +0.000 A 
ATOM     21  C   UNL     1      50.997   4.501  17.776  0.00  0.00    +0.000 A 
ENDBRANCH  13  16
ENDBRANCH  12  13
ENDBRANCH   1  12
TORSDOF 6
ENDMDL
MODEL 4
REMARK VINA RESULT:    -6.477      3.948      7.606
REMARK INTER + INTRA:          -8.987
REMARK INTER:                  -8.253
REMARK INTRA:                  -0.734
REMARK UNBOUND:                -0.239
REMARK  Name = 
REMARK  9 active torsions:
REMARK  status: ('A' for Active; 'I' for Inactive)
REMARK    1  A    between atoms: C_1  and  O_2
REMARK    2  A    between atoms: O_2  and  C_3
REMARK    3  A    between atoms: C_3  and  C_5
REMARK    4  A    between atoms: C_8  and  O_9
REMARK    5  A    between atoms: O_9  and  C_10
REMARK    6  A    between atoms: C_10  and  C_11
REMARK    7  A    between atoms: C_11  and  C_12
REMARK    8  A    between atoms: C_11  and  C_13
REMARK    9  A    between atoms: C_11  and  C_14
REMARK                            x       y       z     vdW  Elec       q    Type
REMARK                         _______ _______ _______ _____ _____    ______ ____
ROOT
ATOM      1  O   UNL     1      46.571   5.406  12.722  0.00  0.00    +0.000 OA
ENDROOT
BRANCH   1   5
ATOM      2  C   UNL     1      48.354   5.289  16.490  0.00  0.00    +0.000 A 
ATOM      3  C   UNL     1      48.671   6.353  15.636  0.00  0.00    +0.000 A 
ATOM      4  C   UNL     1      48.092   6.433  14.363  0.00  0.00    +0.000 A 
ATOM      5  C   UNL     1      47.196   5.451  13.937  0.00  0.00    +0.000 A 
ATOM      6  C   UNL     1      46.876   4.396  14.796  0.00  0.00    +0.000 A 
ATOM      7  C   UNL     1      47.444   4.315  16.070  0.00  0.00    +0.000 A 
BRANCH   2   8
ATOM      8  C   UNL     1      48.946   5.166  17.844  0.00  0.00    +0.000 C 
ATOM      9  O   UNL     1      50.146   5.084  18.056  0.00  0.00    +0.000 OA
BRANCH   8  11
ATOM     10  C   UNL     1      47.788   6.499  19.374  0.00  0.00    +0.000 C 
ATOM     11  O   UNL     1      47.966   5.210  18.782  0.00  0.00    +0.000 OA
ENDBRANCH   8  11
ENDBRANCH   2   8
ENDBRANCH   1   5
BRANCH   1  12
ATOM     12  C   UNL     1      45.334   4.688  12.643  0.00  0.00    +0.000 C 
BRANCH  12  13
ATOM     13  C   UNL     1      44.523   5.144  11.394  0.00  0.00    +0.000 C 
ATOM     14  C   UNL     1      43.008   5.001  11.671  0.00  0.00    +0.000 C 
ATOM     15  C   UNL     1      44.788   6.652  11.166  0.00  0.00    +0.000 C 
BRANCH  13  16
ATOM     16  C   UNL     1      44.905   4.264  10.187  0.00  0.00    +0.000 A 
ATOM     17  C   UNL     1      45.572   4.823   9.079  0.00  0.00    +0.000 A 
ATOM     18  C   UNL     1      45.961   4.041   7.986  0.00  0.00    +0.000 A 
ATOM     19  C   UNL     1      45.690   2.676   7.977  0.00  0.00    +0.000 A 
ATOM     20  C   UNL     1      45.022   2.102   9.049  0.00  0.00    +0.000 A 
ATOM     21  C   UNL     1      44.629   2.884  10.139  0.00  0.00    +0.000 A 
ENDBRANCH  13  16
ENDBRANCH  12  13
ENDBRANCH   1  12
TORSDOF 6
ENDMDL
MODEL 5
REMARK VINA RESULT:    -6.339      3.788      7.460
REMARK INTER + INTRA:          -8.801
REMARK INTER:                  -8.056
REMARK INTRA:                  -0.746
REMARK UNBOUND:                -0.239
REMARK  Name = 
REMARK  9 active torsions:
REMARK  status: ('A' for Active; 'I' for Inactive)
REMARK    1  A    between atoms: C_1  and  O_2
REMARK    2  A    between atoms: O_2  and  C_3
REMARK    3  A    between atoms: C_3  and  C_5
REMARK    4  A    between atoms: C_8  and  O_9
REMARK    5  A    between atoms: O_9  and  C_10
REMARK    6  A    between atoms: C_10  and  C_11
REMARK    7  A    between atoms: C_11  and  C_12
REMARK    8  A    between atoms: C_11  and  C_13
REMARK    9  A    between atoms: C_11  and  C_14
REMARK                            x       y       z     vdW  Elec       q    Type
REMARK                         _______ _______ _______ _____ _____    ______ ____
ROOT
ATOM      1  O   UNL     1      46.045   4.334  13.070  0.00  0.00    +0.000 OA
ENDROOT
BRANCH   1   5
ATOM      2  C   UNL     1      48.617   6.126  15.820  0.00  0.00    +0.000 A 
ATOM      3  C   UNL     1      47.965   4.943  16.191  0.00  0.00    +0.000 A 
ATOM      4  C   UNL     1      47.096   4.306  15.296  0.00  0.00    +0.000 A 
ATOM      5  C   UNL     1      46.871   4.848  14.030  0.00  0.00    +0.000 A 
ATOM      6  C   UNL     1      47.531   6.024  13.661  0.00  0.00    +0.000 A 
ATOM      7  C   UNL     1      48.405   6.659  14.544  0.00  0.00    +0.000 A 
BRANCH   2   8
ATOM      8  C   UNL     1      49.543   6.833  16.737  0.00  0.00    +0.000 C 
ATOM      9  O   UNL     1      50.688   7.138  16.443  0.00  0.00    +0.000 OA
BRANCH   8  11
ATOM     10  C   UNL     1      48.335   8.429  17.941  0.00  0.00    +0.000 C 
ATOM     11  O   UNL     1      48.909   7.120  17.902  0.00  0.00    +0.000 OA
ENDBRANCH   8  11
ENDBRANCH   2   8
ENDBRANCH   1   5
BRANCH   1  12
ATOM     12  C   UNL     1      45.038   5.200  12.533  0.00  0.00    +0.000 C 
BRANCH  12  13
ATOM     13  C   UNL     1      44.007   4.381  11.701  0.00  0.00    +0.000 C 
ATOM     14  C   UNL     1      43.568   3.128  12.494  0.00  0.00    +0.000 C 
ATOM     15  C   UNL     1      42.739   5.247  11.507  0.00  0.00    +0.000 C 
BRANCH  13  16
ATOM     16  C   UNL     1      44.657   3.940  10.373  0.00  0.00    +0.000 A 
ATOM     17  C   UNL     1      44.620   2.589   9.975  0.00  0.00    +0.000 A 
ATOM     18  C   UNL     1      45.171   2.168   8.760  0.00  0.00    +0.000 A 
ATOM     19  C   UNL     1      45.776   3.092   7.913  0.00  0.00    +0.000 A 
ATOM     20  C   UNL     1      45.839   4.427   8.288  0.00  0.00    +0.000 A 
ATOM     21  C   UNL     1      45.292   4.847   9.504  0.00  0.00    +0.000 A 
ENDBRANCH  13  16
ENDBRANCH  12  13
ENDBRANCH   1  12
TORSDOF 6
ENDMDL
MODEL 6
REMARK VINA RESULT:    -6.137      2.909      7.041
REMARK INTER + INTRA:          -8.528
REMARK INTER:                  -8.102
REMARK INTRA:                  -0.426
REMARK UNBOUND:                -0.239
REMARK  Name = 
REMARK  9 active torsions:
REMARK  status: ('A' for Active; 'I' for Inactive)
REMARK    1  A    between atoms: C_1  and  O_2
REMARK    2  A    between atoms: O_2  and  C_3
REMARK    3  A    between atoms: C_3  and  C_5
REMARK    4  A    between atoms: C_8  and  O_9
REMARK    5  A    between atoms: O_9  and  C_10
REMARK    6  A    between atoms: C_10  and  C_11
REMARK    7  A    between atoms: C_11  and  C_12
REMARK    8  A    between atoms: C_11  and  C_13
REMARK    9  A    between atoms: C_11  and  C_14
REMARK                            x       y       z     vdW  Elec       q    Type
REMARK                         _______ _______ _______ _____ _____    ______ ____
ROOT
ATOM      1  O   UNL     1      45.313   5.639  10.871  0.00  0.00    +0.000 OA
ENDROOT
BRANCH   1   5
ATOM      2  C   UNL     1      47.590   5.683  14.364  0.00  0.00    +0.000 A 
ATOM      3  C   UNL     1      46.507   4.797  14.286  0.00  0.00    +0.000 A 
ATOM      4  C   UNL     1      45.719   4.747  13.130  0.00  0.00    +0.000 A 
ATOM      5  C   UNL     1      46.005   5.581  12.048  0.00  0.00    +0.000 A 
ATOM      6  C   UNL     1      47.092   6.458  12.127  0.00  0.00    +0.000 A 
ATOM      7  C   UNL     1      47.887   6.507  13.274  0.00  0.00    +0.000 A 
BRANCH   2   8
ATOM      8  C   UNL     1      48.448   5.769  15.570  0.00  0.00    +0.000 C 
ATOM      9  O   UNL     1      49.503   6.382  15.610  0.00  0.00    +0.000 OA
BRANCH   8  11
ATOM     10  C   UNL     1      48.662   4.074  17.163  0.00  0.00    +0.000 C 
ATOM     11  O   UNL     1      47.859   5.116  16.603  0.00  0.00    +0.000 OA
ENDBRANCH   8  11
ENDBRANCH   2   8
ENDBRANCH   1   5
BRANCH   1  12
ATOM     12  C   UNL     1      45.922   5.045   9.717  0.00  0.00    +0.000 C 
BRANCH  12  13
ATOM     13  C   UNL     1      45.098   3.810   9.246  0.00  0.00    +0.000 C 
ATOM     14  C   UNL     1      44.732   2.928  10.463  0.00  0.00    +0.000 C 
ATOM     15  C   UNL     1      43.761   4.314   8.651  0.00  0.00    +0.000 C 
BRANCH  13  16
ATOM     16  C   UNL     1      45.940   2.983   8.253  0.00  0.00    +0.000 A 
ATOM     17  C   UNL     1      46.601   3.613   7.181  0.00  0.00    +0.000 A 
ATOM     18  C   UNL     1      47.398   2.893   6.286  0.00  0.00    +0.000 A 
ATOM     19  C   UNL     1      47.553   1.518   6.444  0.00  0.00    +0.000 A 
ATOM     20  C   UNL     1      46.901   0.870   7.483  0.00  0.00    +0.000 A 
ATOM     21  C   UNL     1      46.101   1.590   8.375  0.00  0.00    +0.000 A 
ENDBRANCH  13  16
ENDBRANCH  12  13
ENDBRANCH   1  12
TORSDOF 6
ENDMDL
MODEL 7
REMARK VINA RESULT:    -6.119      3.360      6.374
REMARK INTER + INTRA:          -8.504
REMARK INTER:                  -7.671
REMARK INTRA:                  -0.833
REMARK UNBOUND:                -0.239
REMARK  Name = 
REMARK  9 active torsions:
REMARK  status: ('A' for Active; 'I' for Inactive)
REMARK    1  A    between atoms: C_1  and  O_2
REMARK    2  A    between atoms: O_2  and  C_3
REMARK    3  A    between atoms: C_3  and  C_5
REMARK    4  A    between atoms: C_8  and  O_9
REMARK    5  A    between atoms: O_9  and  C_10
REMARK    6  A    between atoms: C_10  and  C_11
REMARK    7  A    between atoms: C_11  and  C_12
REMARK    8  A    between atoms: C_11  and  C_13
REMARK    9  A    between atoms: C_11  and  C_14
REMARK                            x       y       z     vdW  Elec       q    Type
REMARK                         _______ _______ _______ _____ _____    ______ ____
ROOT
ATOM      1  O   UNL     1      48.496   5.972  14.023  0.00  0.00    +0.000 OA
ENDROOT
BRANCH   1   5
ATOM      2  C   UNL     1      45.268   4.848  11.633  0.00  0.00    +0.000 A 
ATOM      3  C   UNL     1      45.941   6.038  11.327  0.00  0.00    +0.000 A 
ATOM      4  C   UNL     1      47.032   6.451  12.101  0.00  0.00    +0.000 A 
ATOM      5  C   UNL     1      47.456   5.680  13.185  0.00  0.00    +0.000 A 
ATOM      6  C   UNL     1      46.787   4.489  13.481  0.00  0.00    +0.000 A 
ATOM      7  C   UNL     1      45.703   4.067  12.709  0.00  0.00    +0.000 A 
BRANCH   2   8
ATOM      8  C   UNL     1      44.107   4.376  10.841  0.00  0.00    +0.000 C 
ATOM      9  O   UNL     1      44.169   4.073   9.660  0.00  0.00    +0.000 OA
BRANCH   8  11
ATOM     10  C   UNL     1      42.328   5.538  11.813  0.00  0.00    +0.000 C 
ATOM     11  O   UNL     1      43.010   4.293  11.635  0.00  0.00    +0.000 OA
ENDBRANCH   8  11
ENDBRANCH   2   8
ENDBRANCH   1   5
BRANCH   1  12
ATOM     12  C   UNL     1      48.309   7.040  14.959  0.00  0.00    +0.000 C 
BRANCH  12  13
ATOM     13  C   UNL     1      49.132   6.774  16.254  0.00  0.00    +0.000 C 
ATOM     14  C   UNL     1      50.644   6.870  15.944  0.00  0.00    +0.000 C 
ATOM     15  C   UNL     1      48.818   7.899  17.270  0.00  0.00    +0.000 C 
BRANCH  13  16
ATOM     16  C   UNL     1      48.810   5.362  16.783  0.00  0.00    +0.000 A 
ATOM     17  C   UNL     1      49.846   4.504  17.203  0.00  0.00    +0.000 A 
ATOM     18  C   UNL     1      49.580   3.231  17.719  0.00  0.00    +0.000 A 
ATOM     19  C   UNL     1      48.266   2.786  17.827  0.00  0.00    +0.000 A 
ATOM     20  C   UNL     1      47.227   3.605  17.408  0.00  0.00    +0.000 A 
ATOM     21  C   UNL     1      47.493   4.875  16.888  0.00  0.00    +0.000 A 
ENDBRANCH  13  16
ENDBRANCH  12  13
ENDBRANCH   1  12
TORSDOF 6
ENDMDL
MODEL 8
REMARK VINA RESULT:    -6.085      3.492      7.382
REMARK INTER + INTRA:          -8.458
REMARK INTER:                  -7.959
REMARK INTRA:                  -0.498
REMARK UNBOUND:                -0.239
REMARK  Name = 
REMARK  9 active torsions:
REMARK  status: ('A' for Active; 'I' for Inactive)
REMARK    1  A    between atoms: C_1  and  O_2
REMARK    2  A    between atoms: O_2  and  C_3
REMARK    3  A    between atoms: C_3  and  C_5
REMARK    4  A    between atoms: C_8  and  O_9
REMARK    5  A    between atoms: O_9  and  C_10
REMARK    6  A    between atoms: C_10  and  C_11
REMARK    7  A    between atoms: C_11  and  C_12
REMARK    8  A    between atoms: C_11  and  C_13
REMARK    9  A    between atoms: C_11  and  C_14
REMARK                            x       y       z     vdW  Elec       q    Type
REMARK                         _______ _______ _______ _____ _____    ______ ____
ROOT
ATOM      1  O   UNL     1      45.963   5.752  11.502  0.00  0.00    +0.000 OA
ENDROOT
BRANCH   1   5
ATOM      2  C   UNL     1      48.066   7.919  14.378  0.00  0.00    +0.000 A 
ATOM      3  C   UNL     1      47.089   8.585  13.624  0.00  0.00    +0.000 A 
ATOM      4  C   UNL     1      46.357   7.893  12.651  0.00  0.00    +0.000 A 
ATOM      5  C   UNL     1      46.597   6.537  12.423  0.00  0.00    +0.000 A 
ATOM      6  C   UNL     1      47.566   5.876  13.183  0.00  0.00    +0.000 A 
ATOM      7  C   UNL     1      48.294   6.557  14.161  0.00  0.00    +0.000 A 
BRANCH   2   8
ATOM      8  C   UNL     1      48.864   8.614  15.416  0.00  0.00    +0.000 C 
ATOM      9  O   UNL     1      49.379   8.050  16.368  0.00  0.00    +0.000 OA
BRANCH   8  11
ATOM     10  C   UNL     1      48.981  10.791  16.258  0.00  0.00    +0.000 C 
ATOM     11  O   UNL     1      48.966   9.934  15.113  0.00  0.00    +0.000 OA
ENDBRANCH   8  11
ENDBRANCH   2   8
ENDBRANCH   1   5
BRANCH   1  12
ATOM     12  C   UNL     1      45.353   4.544  11.973  0.00  0.00    +0.000 C 
BRANCH  12  13
ATOM     13  C   UNL     1      44.281   4.048  10.957  0.00  0.00    +0.000 C 
ATOM     14  C   UNL     1      43.448   2.908  11.587  0.00  0.00    +0.000 C 
ATOM     15  C   UNL     1      43.298   5.211  10.679  0.00  0.00    +0.000 C 
BRANCH  13  16
ATOM     16  C   UNL     1      44.985   3.522   9.688  0.00  0.00    +0.000 A 
ATOM     17  C   UNL     1      45.457   4.419   8.711  0.00  0.00    +0.000 A 
ATOM     18  C   UNL     1      46.129   3.972   7.568  0.00  0.00    +0.000 A 
ATOM     19  C   UNL     1      46.344   2.610   7.377  0.00  0.00    +0.000 A 
ATOM     20  C   UNL     1      45.875   1.703   8.317  0.00  0.00    +0.000 A 
ATOM     21  C   UNL     1      45.200   2.150   9.457  0.00  0.00    +0.000 A 
ENDBRANCH  13  16
ENDBRANCH  12  13
ENDBRANCH   1  12
TORSDOF 6
ENDMDL
MODEL 9
REMARK VINA RESULT:    -5.936      3.381      6.191
REMARK INTER + INTRA:          -8.257
REMARK INTER:                  -7.271
REMARK INTRA:                  -0.986
REMARK UNBOUND:                -0.239
REMARK  Name = 
REMARK  9 active torsions:
REMARK  status: ('A' for Active; 'I' for Inactive)
REMARK    1  A    between atoms: C_1  and  O_2
REMARK    2  A    between atoms: O_2  and  C_3
REMARK    3  A    between atoms: C_3  and  C_5
REMARK    4  A    between atoms: C_8  and  O_9
REMARK    5  A    between atoms: O_9  and  C_10
REMARK    6  A    between atoms: C_10  and  C_11
REMARK    7  A    between atoms: C_11  and  C_12
REMARK    8  A    between atoms: C_11  and  C_13
REMARK    9  A    between atoms: C_11  and  C_14
REMARK                            x       y       z     vdW  Elec       q    Type
REMARK                         _______ _______ _______ _____ _____    ______ ____
ROOT
ATOM      1  O   UNL     1      48.383   6.236  13.553  0.00  0.00    +0.000 OA
ENDROOT
BRANCH   1   5
ATOM      2  C   UNL     1      45.065   4.705  11.544  0.00  0.00    +0.000 A 
ATOM      3  C   UNL     1      45.506   4.046  12.699  0.00  0.00    +0.000 A 
ATOM      4  C   UNL     1      46.615   4.529  13.406  0.00  0.00    +0.000 A 
ATOM      5  C   UNL     1      47.288   5.669  12.963  0.00  0.00    +0.000 A 
ATOM      6  C   UNL     1      46.839   6.327  11.815  0.00  0.00    +0.000 A 
ATOM      7  C   UNL     1      45.729   5.856  11.110  0.00  0.00    +0.000 A 
BRANCH   2   8
ATOM      8  C   UNL     1      43.897   4.226  10.765  0.00  0.00    +0.000 C 
ATOM      9  O   UNL     1      43.753   3.070  10.401  0.00  0.00    +0.000 OA
BRANCH   8  11
ATOM     10  C   UNL     1      42.275   5.592  11.744  0.00  0.00    +0.000 C 
ATOM     11  O   UNL     1      43.021   5.244  10.575  0.00  0.00    +0.000 OA
ENDBRANCH   8  11
ENDBRANCH   2   8
ENDBRANCH   1   5
BRANCH   1  12
ATOM     12  C   UNL     1      49.239   7.033  12.726  0.00  0.00    +0.000 C 
BRANCH  12  13
ATOM     13  C   UNL     1      49.470   8.430  13.374  0.00  0.00    +0.000 C 
ATOM     14  C   UNL     1      48.805   8.477  14.770  0.00  0.00    +0.000 C 
ATOM     15  C   UNL     1      50.989   8.616  13.603  0.00  0.00    +0.000 C 
BRANCH  13  16
ATOM     16  C   UNL     1      48.847   9.519  12.477  0.00  0.00    +0.000 A 
ATOM     17  C   UNL     1      49.620  10.155  11.486  0.00  0.00    +0.000 A 
ATOM     18  C   UNL     1      49.072  11.121  10.636  0.00  0.00    +0.000 A 
ATOM     19  C   UNL     1      47.731  11.474  10.758  0.00  0.00    +0.000 A 
ATOM     20  C   UNL     1      46.950  10.874  11.736  0.00  0.00    +0.000 A 
ATOM     21  C   UNL     1      47.500   9.911  12.588  0.00  0.00    +0.000 A 
ENDBRANCH  13  16
ENDBRANCH  12  13
ENDBRANCH   1  12
TORSDOF 6
ENDMDL
