MODEL 1
REMARK VINA RESULT:    -6.839      0.000      0.000
REMARK INTER + INTRA:          -8.528
REMARK INTER:                  -8.038
REMARK INTRA:                  -0.491
REMARK UNBOUND:                -0.491
REMARK  Name = 
REMARK  4 active torsions:
REMARK  status: ('A' for Active; 'I' for Inactive)
REMARK    1  A    between atoms: C_1  and  C_2
REMARK    2  A    between atoms: C_2  and  N_3
REMARK    3  A    between atoms: C_2  and  C_13
REMARK    4  A    between atoms: C_6  and  C_7
REMARK                            x       y       z     vdW  Elec       q    Type
REMARK                         _______ _______ _______ _____ _____    ______ ____
ROOT
ATOM      1  N   UNL     1      44.998   4.372  12.271  0.00  0.00    +0.000 N 
ATOM      2  C   UNL     1      46.036   5.017  12.958  0.00  0.00    +0.000 A 
ATOM      3  C   UNL     1      46.417   4.510  14.195  0.00  0.00    +0.000 A 
ATOM      4  C   UNL     1      47.434   5.141  14.921  0.00  0.00    +0.000 A 
ATOM      5  C   UNL     1      48.063   6.254  14.374  0.00  0.00    +0.000 A 
ATOM      6  C   UNL     1      47.623   6.694  13.142  0.00  0.00    +0.000 A 
ATOM      7  N   UNL     1      46.627   6.111  12.443  0.00  0.00    +0.000 NA
ATOM      8  H   UNL     1      45.240   3.391  12.158  0.00  0.00    +0.000 HD
ENDROOT
BRANCH   4   9
ATOM      9  C   UNL     1      47.779   4.585  16.257  0.00  0.00    +0.000 C 
ATOM     10  N   UNL     1      47.134   5.072  17.361  0.00  0.00    +0.000 N 
ATOM     11  O   UNL     1      48.616   3.700  16.386  0.00  0.00    +0.000 OA
ATOM     12  H   UNL     1      46.413   5.775  17.363  0.00  0.00    +0.000 HD
ATOM     13  H   UNL     1      47.373   4.643  18.248  0.00  0.00    +0.000 HD
ENDBRANCH   4   9
BRANCH   1  15
ATOM     14  C   UNL     1      43.050   5.122  10.985  0.00  0.00    +0.000 C 
ATOM     15  C   UNL     1      44.574   4.976  11.003  0.00  0.00    +0.000 C 
BRANCH  15  16
ATOM     16  C   UNL     1      45.065   4.105   9.851  0.00  0.00    +0.000 A 
ATOM     17  C   UNL     1      45.709   4.706   8.756  0.00  0.00    +0.000 A 
ATOM     18  C   UNL     1      46.188   3.933   7.697  0.00  0.00    +0.000 A 
ATOM     19  C   UNL     1      46.032   2.549   7.719  0.00  0.00    +0.000 A 
ATOM     20  C   UNL     1      45.396   1.937   8.797  0.00  0.00    +0.000 A 
ATOM     21  C   UNL     1      44.915   2.709   9.858  0.00  0.00    +0.000 A 
ENDBRANCH  15  16
ENDBRANCH   1  15
TORSDOF 3
ENDMDL
MODEL 2
REMARK VINA RESULT:    -6.661      2.186      2.520
REMARK INTER + INTRA:          -8.320
REMARK INTER:                  -7.828
REMARK INTRA:                  -0.492
REMARK UNBOUND:                -0.491
REMARK  Name = 
REMARK  4 active torsions:
REMARK  status: ('A' for Active; 'I' for Inactive)
REMARK    1  A    between atoms: C_1  and  C_2
REMARK    2  A    between atoms: C_2  and  N_3
REMARK    3  A    between atoms: C_2  and  C_13
REMARK    4  A    between atoms: C_6  and  C_7
REMARK                            x       y       z     vdW  Elec       q    Type
REMARK                         _______ _______ _______ _____ _____    ______ ____
ROOT
ATOM      1  N   UNL     1      45.470   4.820  11.769  0.00  0.00    +0.000 N 
ATOM      2  C   UNL     1      45.624   6.189  12.035  0.00  0.00    +0.000 A 
ATOM      3  C   UNL     1      46.565   6.570  12.984  0.00  0.00    +0.000 A 
ATOM      4  C   UNL     1      46.730   7.925  13.294  0.00  0.00    +0.000 A 
ATOM      5  C   UNL     1      45.961   8.869  12.622  0.00  0.00    +0.000 A 
ATOM      6  C   UNL     1      45.049   8.407  11.694  0.00  0.00    +0.000 A 
ATOM      7  N   UNL     1      44.862   7.102  11.406  0.00  0.00    +0.000 NA
ATOM      8  H   UNL     1      46.373   4.436  11.503  0.00  0.00    +0.000 HD
ENDROOT
BRANCH   4   9
ATOM      9  C   UNL     1      47.720   8.281  14.345  0.00  0.00    +0.000 C 
ATOM     10  N   UNL     1      47.385   9.225  15.276  0.00  0.00    +0.000 N 
ATOM     11  O   UNL     1      48.819   7.740  14.398  0.00  0.00    +0.000 OA
ATOM     12  H   UNL     1      46.503   9.706  15.339  0.00  0.00    +0.000 HD
ATOM     13  H   UNL     1      48.074   9.413  15.995  0.00  0.00    +0.000 HD
ENDBRANCH   4   9
BRANCH   1  15
ATOM     14  C   UNL     1      43.384   3.560  11.507  0.00  0.00    +0.000 C 
ATOM     15  C   UNL     1      44.419   4.450  10.815  0.00  0.00    +0.000 C 
BRANCH  15  16
ATOM     16  C   UNL     1      45.059   3.741   9.625  0.00  0.00    +0.000 A 
ATOM     17  C   UNL     1      45.642   4.502   8.598  0.00  0.00    +0.000 A 
ATOM     18  C   UNL     1      46.253   3.881   7.508  0.00  0.00    +0.000 A 
ATOM     19  C   UNL     1      46.292   2.491   7.430  0.00  0.00    +0.000 A 
ATOM     20  C   UNL     1      45.719   1.721   8.440  0.00  0.00    +0.000 A 
ATOM     21  C   UNL     1      45.106   2.340   9.532  0.00  0.00    +0.000 A 
ENDBRANCH  15  16
ENDBRANCH   1  15
TORSDOF 3
ENDMDL
MODEL 3
REMARK VINA RESULT:    -6.650      3.547      6.710
REMARK INTER + INTRA:          -8.307
REMARK INTER:                  -7.858
REMARK INTRA:                  -0.449
REMARK UNBOUND:                -0.491
REMARK  Name = 
REMARK  4 active torsions:
REMARK  status: ('A' for Active; 'I' for Inactive)
REMARK    1  A    between atoms: C_1  and  C_2
REMARK    2  A    between atoms: C_2  and  N_3
REMARK    3  A    between atoms: C_2  and  C_13
REMARK    4  A    between atoms: C_6  and  C_7
REMARK                            x       y       z     vdW  Elec       q    Type
REMARK                         _______ _______ _______ _____ _____    ______ ____
ROOT
ATOM      1  N   UNL     1      45.509   5.486   9.718  0.00  0.00    +0.000 N 
ATOM      2  C   UNL     1      45.644   4.209   9.154  0.00  0.00    +0.000 A 
ATOM      3  C   UNL     1      46.322   4.095   7.946  0.00  0.00    +0.000 A 
ATOM      4  C   UNL     1      46.456   2.840   7.340  0.00  0.00    +0.000 A 
ATOM      5  C   UNL     1      45.927   1.723   7.978  0.00  0.00    +0.000 A 
ATOM      6  C   UNL     1      45.268   1.923   9.175  0.00  0.00    +0.000 A 
ATOM      7  N   UNL     1      45.109   3.131   9.756  0.00  0.00    +0.000 NA
ATOM      8  H   UNL     1      46.433   5.896   9.825  0.00  0.00    +0.000 HD
ENDROOT
BRANCH   4   9
ATOM      9  C   UNL     1      47.153   2.774   6.028  0.00  0.00    +0.000 C 
ATOM     10  N   UNL     1      48.498   2.520   6.006  0.00  0.00    +0.000 N 
ATOM     11  O   UNL     1      46.549   2.932   4.974  0.00  0.00    +0.000 OA
ATOM     12  H   UNL     1      49.079   2.348   6.809  0.00  0.00    +0.000 HD
ATOM     13  H   UNL     1      48.927   2.450   5.091  0.00  0.00    +0.000 HD
ENDBRANCH   4   9
BRANCH   1  15
ATOM     14  C   UNL     1      43.912   6.875  10.955  0.00  0.00    +0.000 C 
ATOM     15  C   UNL     1      44.727   5.579  10.956  0.00  0.00    +0.000 C 
BRANCH  15  16
ATOM     16  C   UNL     1      45.678   5.518  12.147  0.00  0.00    +0.000 A 
ATOM     17  C   UNL     1      46.652   6.519  12.305  0.00  0.00    +0.000 A 
ATOM     18  C   UNL     1      47.523   6.502  13.396  0.00  0.00    +0.000 A 
ATOM     19  C   UNL     1      47.429   5.488  14.345  0.00  0.00    +0.000 A 
ATOM     20  C   UNL     1      46.469   4.488  14.204  0.00  0.00    +0.000 A 
ATOM     21  C   UNL     1      45.598   4.502  13.113  0.00  0.00    +0.000 A 
ENDBRANCH  15  16
ENDBRANCH   1  15
TORSDOF 3
ENDMDL
MODEL 4
REMARK VINA RESULT:    -6.329      2.314      3.037
REMARK INTER + INTRA:          -7.929
REMARK INTER:                  -8.852
REMARK INTRA:                   0.923
REMARK UNBOUND:                -0.491
REMARK  Name = 
REMARK  4 active torsions:
REMARK  status: ('A' for Active; 'I' for Inactive)
REMARK    1  A    between atoms: C_1  and  C_2
REMARK    2  A    between atoms: C_2  and  N_3
REMARK    3  A    between atoms: C_2  and  C_13
REMARK    4  A    between atoms: C_6  and  C_7
REMARK                            x       y       z     vdW  Elec       q    Type
REMARK                         _______ _______ _______ _____ _____    ______ ____
ROOT
ATOM      1  N   UNL     1      44.292   5.514  10.339  0.00  0.00    +0.000 N 
ATOM      2  C   UNL     1      45.180   5.585  11.422  0.00  0.00    +0.000 A 
ATOM      3  C   UNL     1      45.693   6.830  11.768  0.00  0.00    +0.000 A 
ATOM      4  C   UNL     1      46.601   6.936  12.828  0.00  0.00    +0.000 A 
ATOM      5  C   UNL     1      46.953   5.790  13.533  0.00  0.00    +0.000 A 
ATOM      6  C   UNL     1      46.399   4.594  13.124  0.00  0.00    +0.000 A 
ATOM      7  N   UNL     1      45.543   4.474  12.088  0.00  0.00    +0.000 NA
ATOM      8  H   UNL     1      43.516   6.148  10.511  0.00  0.00    +0.000 HD
ENDROOT
BRANCH   4   9
ATOM      9  C   UNL     1      47.154   8.283  13.135  0.00  0.00    +0.000 C 
ATOM     10  N   UNL     1      47.080   8.751  14.418  0.00  0.00    +0.000 N 
ATOM     11  O   UNL     1      47.678   8.972  12.268  0.00  0.00    +0.000 OA
ATOM     12  H   UNL     1      46.697   8.256  15.207  0.00  0.00    +0.000 HD
ATOM     13  H   UNL     1      47.499   9.657  14.592  0.00  0.00    +0.000 HD
ENDBRANCH   4   9
BRANCH   1  15
ATOM     14  C   UNL     1      43.568   3.342  11.214  0.00  0.00    +0.000 C 
ATOM     15  C   UNL     1      43.826   4.177   9.957  0.00  0.00    +0.000 C 
BRANCH  15  16
ATOM     16  C   UNL     1      44.875   3.526   9.061  0.00  0.00    +0.000 A 
ATOM     17  C   UNL     1      45.090   2.139   9.143  0.00  0.00    +0.000 A 
ATOM     18  C   UNL     1      46.028   1.512   8.322  0.00  0.00    +0.000 A 
ATOM     19  C   UNL     1      46.761   2.260   7.404  0.00  0.00    +0.000 A 
ATOM     20  C   UNL     1      46.560   3.635   7.309  0.00  0.00    +0.000 A 
ATOM     21  C   UNL     1      45.623   4.266   8.131  0.00  0.00    +0.000 A 
ENDBRANCH  15  16
ENDBRANCH   1  15
TORSDOF 3
ENDMDL
MODEL 5
REMARK VINA RESULT:    -6.009      2.861      4.242
REMARK INTER + INTRA:          -7.553
REMARK INTER:                  -7.061
REMARK INTRA:                  -0.492
REMARK UNBOUND:                -0.491
REMARK  Name = 
REMARK  4 active torsions:
REMARK  status: ('A' for Active; 'I' for Inactive)
REMARK    1  A    between atoms: C_1  and  C_2
REMARK    2  A    between atoms: C_2  and  N_3
REMARK    3  A    between atoms: C_2  and  C_13
REMARK    4  A    between atoms: C_6  and  C_7
REMARK                            x       y       z     vdW  Elec       q    Type
REMARK                         _______ _______ _______ _____ _____    ______ ____
ROOT
ATOM      1  N   UNL     1      47.135   5.588  14.815  0.00  0.00    +0.000 N 
ATOM      2  C   UNL     1      47.577   4.663  15.772  0.00  0.00    +0.000 A 
ATOM      3  C   UNL     1      47.638   5.072  17.099  0.00  0.00    +0.000 A 
ATOM      4  C   UNL     1      48.096   4.184  18.079  0.00  0.00    +0.000 A 
ATOM      5  C   UNL     1      48.460   2.895  17.705  0.00  0.00    +0.000 A 
ATOM      6  C   UNL     1      48.371   2.569  16.367  0.00  0.00    +0.000 A 
ATOM      7  N   UNL     1      47.955   3.424  15.409  0.00  0.00    +0.000 NA
ATOM      8  H   UNL     1      46.218   5.930  15.091  0.00  0.00    +0.000 HD
ENDROOT
BRANCH   4   9
ATOM      9  C   UNL     1      48.182   4.681  19.479  0.00  0.00    +0.000 C 
ATOM     10  N   UNL     1      48.572   3.815  20.464  0.00  0.00    +0.000 N 
ATOM     11  O   UNL     1      47.922   5.844  19.762  0.00  0.00    +0.000 OA
ATOM     12  H   UNL     1      48.835   2.852  20.335  0.00  0.00    +0.000 HD
ATOM     13  H   UNL     1      48.651   4.202  21.397  0.00  0.00    +0.000 HD
ENDBRANCH   4   9
BRANCH   1  15
ATOM     14  C   UNL     1      47.722   6.255  12.530  0.00  0.00    +0.000 C 
ATOM     15  C   UNL     1      47.151   5.145  13.416  0.00  0.00    +0.000 C 
BRANCH  15  16
ATOM     16  C   UNL     1      45.732   4.772  12.999  0.00  0.00    +0.000 A 
ATOM     17  C   UNL     1      45.464   3.467  12.551  0.00  0.00    +0.000 A 
ATOM     18  C   UNL     1      44.172   3.089  12.182  0.00  0.00    +0.000 A 
ATOM     19  C   UNL     1      43.130   4.010  12.259  0.00  0.00    +0.000 A 
ATOM     20  C   UNL     1      43.378   5.308  12.701  0.00  0.00    +0.000 A 
ATOM     21  C   UNL     1      44.670   5.688  13.069  0.00  0.00    +0.000 A 
ENDBRANCH  15  16
ENDBRANCH   1  15
TORSDOF 3
ENDMDL
MODEL 6
REMARK VINA RESULT:    -5.955      3.750      6.939
REMARK INTER + INTRA:          -7.490
REMARK INTER:                  -7.439
REMARK INTRA:                  -0.051
REMARK UNBOUND:                -0.491
REMARK  Name = 
REMARK  4 active torsions:
REMARK  status: ('A' for Active; 'I' for Inactive)
REMARK    1  A    between atoms: C_1  and  C_2
REMARK    2  A    between atoms: C_2  and  N_3
REMARK    3  A    between atoms: C_2  and  C_13
REMARK    4  A    between atoms: C_6  and  C_7
REMARK                            x       y       z     vdW  Elec       q    Type
REMARK                         _______ _______ _______ _____ _____    ______ ____
ROOT
ATOM      1  N   UNL     1      45.474   5.532   9.808  0.00  0.00    +0.000 N 
ATOM      2  C   UNL     1      45.553   4.224   9.308  0.00  0.00    +0.000 A 
ATOM      3  C   UNL     1      46.230   4.019   8.111  0.00  0.00    +0.000 A 
ATOM      4  C   UNL     1      46.309   2.731   7.569  0.00  0.00    +0.000 A 
ATOM      5  C   UNL     1      45.724   1.673   8.256  0.00  0.00    +0.000 A 
ATOM      6  C   UNL     1      45.069   1.962   9.436  0.00  0.00    +0.000 A 
ATOM      7  N   UNL     1      44.964   3.202   9.957  0.00  0.00    +0.000 NA
ATOM      8  H   UNL     1      46.417   5.902   9.902  0.00  0.00    +0.000 HD
ENDROOT
BRANCH   4   9
ATOM      9  C   UNL     1      47.010   2.569   6.267  0.00  0.00    +0.000 C 
ATOM     10  N   UNL     1      46.919   3.569   5.338  0.00  0.00    +0.000 N 
ATOM     11  O   UNL     1      47.669   1.567   6.016  0.00  0.00    +0.000 OA
ATOM     12  H   UNL     1      46.429   4.441   5.455  0.00  0.00    +0.000 HD
ATOM     13  H   UNL     1      47.439   3.434   4.479  0.00  0.00    +0.000 HD
ENDBRANCH   4   9
BRANCH   1  15
ATOM     14  C   UNL     1      43.199   5.580  10.719  0.00  0.00    +0.000 C 
ATOM     15  C   UNL     1      44.691   5.721  11.033  0.00  0.00    +0.000 C 
BRANCH  15  16
ATOM     16  C   UNL     1      45.011   7.093  11.618  0.00  0.00    +0.000 A 
ATOM     17  C   UNL     1      45.985   7.206  12.624  0.00  0.00    +0.000 A 
ATOM     18  C   UNL     1      46.314   8.450  13.164  0.00  0.00    +0.000 A 
ATOM     19  C   UNL     1      45.676   9.599  12.703  0.00  0.00    +0.000 A 
ATOM     20  C   UNL     1      44.708   9.506  11.705  0.00  0.00    +0.000 A 
ATOM     21  C   UNL     1      44.376   8.261  11.165  0.00  0.00    +0.000 A 
ENDBRANCH  15  16
ENDBRANCH   1  15
TORSDOF 3
ENDMDL
MODEL 7
REMARK VINA RESULT:    -5.721      1.473      2.110
REMARK INTER + INTRA:          -7.215
REMARK INTER:                  -6.785
REMARK INTRA:                  -0.430
REMARK UNBOUND:                -0.491
REMARK  Name = 
REMARK  4 active torsions:
REMARK  status: ('A' for Active; 'I' for Inactive)
REMARK    1  A    between atoms: C_1  and  C_2
REMARK    2  A    between atoms: C_2  and  N_3
REMARK    3  A    between atoms: C_2  and  C_13
REMARK    4  A    between atoms: C_6  and  C_7
REMARK                            x       y       z     vdW  Elec       q    Type
REMARK                         _______ _______ _______ _____ _____    ______ ____
ROOT
ATOM      1  N   UNL     1      46.108   5.756  12.527  0.00  0.00    +0.000 N 
ATOM      2  C   UNL     1      47.262   6.357  13.049  0.00  0.00    +0.000 A 
ATOM      3  C   UNL     1      47.660   6.006  14.334  0.00  0.00    +0.000 A 
ATOM      4  C   UNL     1      48.794   6.603  14.898  0.00  0.00    +0.000 A 
ATOM      5  C   UNL     1      49.518   7.522  14.146  0.00  0.00    +0.000 A 
ATOM      6  C   UNL     1      49.055   7.815  12.879  0.00  0.00    +0.000 A 
ATOM      7  N   UNL     1      47.949   7.267  12.333  0.00  0.00    +0.000 NA
ATOM      8  H   UNL     1      46.219   4.746  12.568  0.00  0.00    +0.000 HD
ENDROOT
BRANCH   4   9
ATOM      9  C   UNL     1      49.156   6.226  16.291  0.00  0.00    +0.000 C 
ATOM     10  N   UNL     1      48.351   6.637  17.317  0.00  0.00    +0.000 N 
ATOM     11  O   UNL     1      50.149   5.551  16.533  0.00  0.00    +0.000 OA
ATOM     12  H   UNL     1      47.500   7.168  17.225  0.00  0.00    +0.000 HD
ATOM     13  H   UNL     1      48.614   6.330  18.246  0.00  0.00    +0.000 HD
ENDBRANCH   4   9
BRANCH   1  15
ATOM     14  C   UNL     1      44.489   7.158  11.334  0.00  0.00    +0.000 C 
ATOM     15  C   UNL     1      45.678   6.203  11.198  0.00  0.00    +0.000 C 
BRANCH  15  16
ATOM     16  C   UNL     1      45.319   4.981  10.358  0.00  0.00    +0.000 A 
ATOM     17  C   UNL     1      44.623   3.915  10.951  0.00  0.00    +0.000 A 
ATOM     18  C   UNL     1      44.262   2.793  10.203  0.00  0.00    +0.000 A 
ATOM     19  C   UNL     1      44.590   2.723   8.851  0.00  0.00    +0.000 A 
ATOM     20  C   UNL     1      45.280   3.772   8.247  0.00  0.00    +0.000 A 
ATOM     21  C   UNL     1      45.643   4.895   8.994  0.00  0.00    +0.000 A 
ENDBRANCH  15  16
ENDBRANCH   1  15
TORSDOF 3
ENDMDL
MODEL 8
REMARK VINA RESULT:    -5.663      3.092      7.220
REMARK INTER + INTRA:          -7.147
REMARK INTER:                  -6.723
REMARK INTRA:                  -0.425
REMARK UNBOUND:                -0.491
REMARK  Name = 
REMARK  4 active torsions:
REMARK  status: ('A' for Active; 'I' for Inactive)
REMARK    1  A    between atoms: C_1  and  C_2
REMARK    2  A    between atoms: C_2  and  N_3
REMARK    3  A    between atoms: C_2  and  C_13
REMARK    4  A    between atoms: C_6  and  C_7
REMARK                            x       y       z     vdW  Elec       q    Type
REMARK                         _______ _______ _______ _____ _____    ______ ____
ROOT
ATOM      1  N   UNL     1      46.747   4.065  15.323  0.00  0.00    +0.000 N 
ATOM      2  C   UNL     1      46.709   4.831  14.149  0.00  0.00    +0.000 A 
ATOM      3  C   UNL     1      45.536   4.828  13.403  0.00  0.00    +0.000 A 
ATOM      4  C   UNL     1      45.467   5.561  12.212  0.00  0.00    +0.000 A 
ATOM      5  C   UNL     1      46.574   6.301  11.811  0.00  0.00    +0.000 A 
ATOM      6  C   UNL     1      47.700   6.249  12.608  0.00  0.00    +0.000 A 
ATOM      7  N   UNL     1      47.788   5.526  13.744  0.00  0.00    +0.000 NA
ATOM      8  H   UNL     1      45.980   4.352  15.925  0.00  0.00    +0.000 HD
ENDROOT
BRANCH   4   9
ATOM      9  C   UNL     1      44.205   5.494  11.428  0.00  0.00    +0.000 C 
ATOM     10  N   UNL     1      43.423   6.613  11.338  0.00  0.00    +0.000 N 
ATOM     11  O   UNL     1      43.860   4.466  10.858  0.00  0.00    +0.000 OA
ATOM     12  H   UNL     1      43.629   7.512  11.742  0.00  0.00    +0.000 HD
ATOM     13  H   UNL     1      42.590   6.535  10.767  0.00  0.00    +0.000 HD
ENDBRANCH   4   9
BRANCH   1  15
ATOM     14  C   UNL     1      48.236   2.648  16.658  0.00  0.00    +0.000 C 
ATOM     15  C   UNL     1      48.023   4.035  16.046  0.00  0.00    +0.000 C 
BRANCH  15  16
ATOM     16  C   UNL     1      48.012   5.121  17.116  0.00  0.00    +0.000 A 
ATOM     17  C   UNL     1      47.119   5.018  18.197  0.00  0.00    +0.000 A 
ATOM     18  C   UNL     1      47.099   5.985  19.203  0.00  0.00    +0.000 A 
ATOM     19  C   UNL     1      47.973   7.068  19.145  0.00  0.00    +0.000 A 
ATOM     20  C   UNL     1      48.865   7.186  18.081  0.00  0.00    +0.000 A 
ATOM     21  C   UNL     1      48.886   6.220  17.072  0.00  0.00    +0.000 A 
ENDBRANCH  15  16
ENDBRANCH   1  15
TORSDOF 3
ENDMDL
MODEL 9
REMARK VINA RESULT:    -5.538      3.097      6.371
REMARK INTER + INTRA:          -7.000
REMARK INTER:                  -6.517
REMARK INTRA:                  -0.483
REMARK UNBOUND:                -0.491
REMARK  Name = 
REMARK  4 active torsions:
REMARK  status: ('A' for Active; 'I' for Inactive)
REMARK    1  A    between atoms: C_1  and  C_2
REMARK    2  A    between atoms: C_2  and  N_3
REMARK    3  A    between atoms: C_2  and  C_13
REMARK    4  A    between atoms: C_6  and  C_7
REMARK                            x       y       z     vdW  Elec       q    Type
REMARK                         _______ _______ _______ _____ _____    ______ ____
ROOT
ATOM      1  N   UNL     1      45.860   7.148  11.419  0.00  0.00    +0.000 N 
ATOM      2  C   UNL     1      45.417   5.824  11.555  0.00  0.00    +0.000 A 
ATOM      3  C   UNL     1      45.221   5.076  10.400  0.00  0.00    +0.000 A 
ATOM      4  C   UNL     1      44.757   3.759  10.495  0.00  0.00    +0.000 A 
ATOM      5  C   UNL     1      44.525   3.214  11.753  0.00  0.00    +0.000 A 
ATOM      6  C   UNL     1      44.743   4.024  12.850  0.00  0.00    +0.000 A 
ATOM      7  N   UNL     1      45.165   5.304  12.771  0.00  0.00    +0.000 NA
ATOM      8  H   UNL     1      46.722   7.150  10.881  0.00  0.00    +0.000 HD
ENDROOT
BRANCH   4   9
ATOM      9  C   UNL     1      44.524   3.013   9.229  0.00  0.00    +0.000 C 
ATOM     10  N   UNL     1      44.221   3.714   8.095  0.00  0.00    +0.000 N 
ATOM     11  O   UNL     1      44.608   1.791   9.182  0.00  0.00    +0.000 OA
ATOM     12  H   UNL     1      44.157   4.716   8.019  0.00  0.00    +0.000 HD
ATOM     13  H   UNL     1      44.104   3.171   7.248  0.00  0.00    +0.000 HD
ENDBRANCH   4   9
BRANCH   1  15
ATOM     14  C   UNL     1      45.272   9.273  12.490  0.00  0.00    +0.000 C 
ATOM     15  C   UNL     1      45.986   7.929  12.654  0.00  0.00    +0.000 C 
BRANCH  15  16
ATOM     16  C   UNL     1      47.467   8.119  12.969  0.00  0.00    +0.000 A 
ATOM     17  C   UNL     1      47.842   8.790  14.145  0.00  0.00    +0.000 A 
ATOM     18  C   UNL     1      49.189   8.961  14.471  0.00  0.00    +0.000 A 
ATOM     19  C   UNL     1      50.178   8.461  13.629  0.00  0.00    +0.000 A 
ATOM     20  C   UNL     1      49.823   7.791  12.459  0.00  0.00    +0.000 A 
ATOM     21  C   UNL     1      48.476   7.620  12.130  0.00  0.00    +0.000 A 
ENDBRANCH  15  16
ENDBRANCH   1  15
TORSDOF 3
ENDMDL
