MODEL 1
REMARK VINA RESULT:    -8.997      0.000      0.000
REMARK INTER + INTRA:         -12.733
REMARK INTER:                 -11.626
REMARK INTRA:                  -1.107
REMARK UNBOUND:                -1.107
REMARK  Name = 
REMARK  6 active torsions:
REMARK  status: ('A' for Active; 'I' for Inactive)
REMARK    1  A    between atoms: C_1  and  C_2
REMARK    2  A    between atoms: O_7  and  C_8
REMARK    3  A    between atoms: C_12  and  C_13
REMARK    4  A    between atoms: C_13  and  N_14
REMARK    5  A    between atoms: N_14  and  C_15
REMARK    6  A    between atoms: C_18  and  C_19
REMARK                            x       y       z     vdW  Elec       q    Type
REMARK                         _______ _______ _______ _____ _____    ______ ____
ROOT
ATOM      1  C   UNL     1      43.777   5.023  11.256  0.00  0.00    +0.000 C 
ATOM      2  C   UNL     1      43.185   6.401  11.033  0.00  0.00    +0.000 C 
ATOM      3  C   UNL     1      42.484   5.452  11.943  0.00  0.00    +0.000 C 
ENDROOT
BRANCH   1   8
ATOM      4  C   UNL     1      47.134   5.794  13.024  0.00  0.00    +0.000 A 
ATOM      5  C   UNL     1      47.249   4.597  13.734  0.00  0.00    +0.000 A 
ATOM      6  N   UNL     1      46.374   3.578  13.656  0.00  0.00    +0.000 NA
ATOM      7  C   UNL     1      45.299   3.749  12.855  0.00  0.00    +0.000 A 
ATOM      8  C   UNL     1      45.024   4.907  12.126  0.00  0.00    +0.000 A 
ATOM      9  C   UNL     1      45.982   5.937  12.228  0.00  0.00    +0.000 A 
BRANCH   4  16
ATOM     10  C   UNL     1      49.689   7.738  11.534  0.00  0.00    +0.000 C 
ATOM     11  C   UNL     1      48.250   7.714  12.064  0.00  0.00    +0.000 C 
ATOM     12  C   UNL     1      47.859   9.103  12.583  0.00  0.00    +0.000 C 
ATOM     13  O   UNL     1      48.578   9.415  13.772  0.00  0.00    +0.000 OA
ATOM     14  C   UNL     1      48.278   8.490  14.814  0.00  0.00    +0.000 C 
ATOM     15  C   UNL     1      48.691   7.088  14.384  0.00  0.00    +0.000 C 
ATOM     16  O   UNL     1      48.131   6.760  13.124  0.00  0.00    +0.000 OA
ENDBRANCH   4  16
ENDBRANCH   1   8
BRANCH   1  17
ATOM     17  N   UNL     1      43.629   3.919  10.296  0.00  0.00    +0.000 N 
ATOM     18  H   UNL     1      42.915   3.224  10.498  0.00  0.00    +0.000 HD
BRANCH  17  19
ATOM     19  C   UNL     1      44.609   3.474   9.389  0.00  0.00    +0.000 A 
ATOM     20  C   UNL     1      45.256   4.423   8.578  0.00  0.00    +0.000 A 
ATOM     21  C   UNL     1      46.256   4.049   7.671  0.00  0.00    +0.000 A 
ATOM     22  C   UNL     1      46.637   2.709   7.574  0.00  0.00    +0.000 A 
ATOM     23  C   UNL     1      45.994   1.755   8.368  0.00  0.00    +0.000 A 
ATOM     24  C   UNL     1      44.983   2.136   9.257  0.00  0.00    +0.000 A 
BRANCH  22  25
ATOM     25  C   UNL     1      47.684   2.247   6.628  0.00  0.00    +0.000 C 
ATOM     26  N   UNL     1      47.883   2.981   5.494  0.00  0.00    +0.000 N 
ATOM     27  O   UNL     1      48.356   1.252   6.870  0.00  0.00    +0.000 OA
ATOM     28  H   UNL     1      47.535   3.923   5.382  0.00  0.00    +0.000 HD
ATOM     29  H   UNL     1      48.676   2.713   4.922  0.00  0.00    +0.000 HD
ENDBRANCH  22  25
ENDBRANCH  17  19
ENDBRANCH   1  17
TORSDOF 5
ENDMDL
MODEL 2
REMARK VINA RESULT:    -7.949      1.499      2.238
REMARK INTER + INTRA:         -11.380
REMARK INTER:                 -10.931
REMARK INTRA:                  -0.449
REMARK UNBOUND:                -1.107
REMARK  Name = 
REMARK  6 active torsions:
REMARK  status: ('A' for Active; 'I' for Inactive)
REMARK    1  A    between atoms: C_1  and  C_2
REMARK    2  A    between atoms: O_7  and  C_8
REMARK    3  A    between atoms: C_12  and  C_13
REMARK    4  A    between atoms: C_13  and  N_14
REMARK    5  A    between atoms: N_14  and  C_15
REMARK    6  A    between atoms: C_18  and  C_19
REMARK                            x       y       z     vdW  Elec       q    Type
REMARK                         _______ _______ _______ _____ _____    ______ ____
ROOT
ATOM      1  C   UNL     1      43.953   5.223  11.532  0.00  0.00    +0.000 C 
ATOM      2  C   UNL     1      42.941   4.950  12.627  0.00  0.00    +0.000 C 
ATOM      3  C   UNL     1      44.145   4.078  12.523  0.00  0.00    +0.000 C 
ENDROOT
BRANCH   1   8
ATOM      4  C   UNL     1      47.056   7.460  12.126  0.00  0.00    +0.000 A 
ATOM      5  C   UNL     1      46.436   8.694  11.929  0.00  0.00    +0.000 A 
ATOM      6  N   UNL     1      45.126   8.856  11.666  0.00  0.00    +0.000 NA
ATOM      7  C   UNL     1      44.377   7.736  11.561  0.00  0.00    +0.000 A 
ATOM      8  C   UNL     1      44.867   6.435  11.681  0.00  0.00    +0.000 A 
ATOM      9  C   UNL     1      46.242   6.322  11.974  0.00  0.00    +0.000 A 
BRANCH   4  16
ATOM     10  C   UNL     1      50.462   7.764  11.209  0.00  0.00    +0.000 C 
ATOM     11  C   UNL     1      49.271   8.415  11.925  0.00  0.00    +0.000 C 
ATOM     12  C   UNL     1      49.769   9.314  13.063  0.00  0.00    +0.000 C 
ATOM     13  O   UNL     1      50.321   8.531  14.116  0.00  0.00    +0.000 OA
ATOM     14  C   UNL     1      49.342   7.663  14.680  0.00  0.00    +0.000 C 
ATOM     15  C   UNL     1      48.837   6.702  13.611  0.00  0.00    +0.000 C 
ATOM     16  O   UNL     1      48.407   7.406  12.460  0.00  0.00    +0.000 OA
ENDBRANCH   4  16
ENDBRANCH   1   8
BRANCH   1  17
ATOM     17  N   UNL     1      43.761   4.804  10.135  0.00  0.00    +0.000 N 
ATOM     18  H   UNL     1      42.803   4.741   9.801  0.00  0.00    +0.000 HD
BRANCH  17  19
ATOM     19  C   UNL     1      44.681   4.083   9.353  0.00  0.00    +0.000 A 
ATOM     20  C   UNL     1      44.669   2.679   9.423  0.00  0.00    +0.000 A 
ATOM     21  C   UNL     1      45.543   1.901   8.653  0.00  0.00    +0.000 A 
ATOM     22  C   UNL     1      46.439   2.522   7.781  0.00  0.00    +0.000 A 
ATOM     23  C   UNL     1      46.466   3.919   7.710  0.00  0.00    +0.000 A 
ATOM     24  C   UNL     1      45.603   4.688   8.497  0.00  0.00    +0.000 A 
BRANCH  22  25
ATOM     25  C   UNL     1      47.396   1.757   6.944  0.00  0.00    +0.000 C 
ATOM     26  N   UNL     1      48.430   2.443   6.374  0.00  0.00    +0.000 N 
ATOM     27  O   UNL     1      47.270   0.548   6.787  0.00  0.00    +0.000 OA
ATOM     28  H   UNL     1      48.707   3.367   6.675  0.00  0.00    +0.000 HD
ATOM     29  H   UNL     1      49.132   1.884   5.903  0.00  0.00    +0.000 HD
ENDBRANCH  22  25
ENDBRANCH  17  19
ENDBRANCH   1  17
TORSDOF 5
ENDMDL
MODEL 3
REMARK VINA RESULT:    -7.691      2.140      3.191
REMARK INTER + INTRA:         -11.047
REMARK INTER:                 -10.240
REMARK INTRA:                  -0.807
REMARK UNBOUND:                -1.107
REMARK  Name = 
REMARK  6 active torsions:
REMARK  status: ('A' for Active; 'I' for Inactive)
REMARK    1  A    between atoms: C_1  and  C_2
REMARK    2  A    between atoms: O_7  and  C_8
REMARK    3  A    between atoms: C_12  and  C_13
REMARK    4  A    between atoms: C_13  and  N_14
REMARK    5  A    between atoms: N_14  and  C_15
REMARK    6  A    between atoms: C_18  and  C_19
REMARK                            x       y       z     vdW  Elec       q    Type
REMARK                         _______ _______ _______ _____ _____    ______ ____
ROOT
ATOM      1  C   UNL     1      44.233   4.957  11.881  0.00  0.00    +0.000 C 
ATOM      2  C   UNL     1      43.149   5.969  11.561  0.00  0.00    +0.000 C 
ATOM      3  C   UNL     1      42.971   5.066  12.733  0.00  0.00    +0.000 C 
ENDROOT
BRANCH   1   8
ATOM      4  C   UNL     1      47.327   5.361  14.172  0.00  0.00    +0.000 A 
ATOM      5  C   UNL     1      47.893   6.462  13.527  0.00  0.00    +0.000 A 
ATOM      6  N   UNL     1      47.349   7.088  12.468  0.00  0.00    +0.000 NA
ATOM      7  C   UNL     1      46.188   6.588  11.988  0.00  0.00    +0.000 A 
ATOM      8  C   UNL     1      45.534   5.465  12.494  0.00  0.00    +0.000 A 
ATOM      9  C   UNL     1      46.137   4.857  13.615  0.00  0.00    +0.000 A 
BRANCH   4  16
ATOM     10  C   UNL     1      49.887   5.458  16.615  0.00  0.00    +0.000 C 
ATOM     11  C   UNL     1      48.411   5.736  16.303  0.00  0.00    +0.000 C 
ATOM     12  C   UNL     1      47.566   5.579  17.573  0.00  0.00    +0.000 C 
ATOM     13  O   UNL     1      47.506   4.212  17.968  0.00  0.00    +0.000 OA
ATOM     14  C   UNL     1      46.886   3.412  16.964  0.00  0.00    +0.000 C 
ATOM     15  C   UNL     1      47.706   3.482  15.681  0.00  0.00    +0.000 C 
ATOM     16  O   UNL     1      47.940   4.827  15.303  0.00  0.00    +0.000 OA
ENDBRANCH   4  16
ENDBRANCH   1   8
BRANCH   1  17
ATOM     17  N   UNL     1      44.384   3.684  11.160  0.00  0.00    +0.000 N 
ATOM     18  H   UNL     1      44.263   2.831  11.700  0.00  0.00    +0.000 HD
BRANCH  17  19
ATOM     19  C   UNL     1      45.081   3.495   9.953  0.00  0.00    +0.000 A 
ATOM     20  C   UNL     1      45.343   2.181   9.526  0.00  0.00    +0.000 A 
ATOM     21  C   UNL     1      46.012   1.923   8.322  0.00  0.00    +0.000 A 
ATOM     22  C   UNL     1      46.417   2.986   7.513  0.00  0.00    +0.000 A 
ATOM     23  C   UNL     1      46.170   4.297   7.932  0.00  0.00    +0.000 A 
ATOM     24  C   UNL     1      45.518   4.545   9.145  0.00  0.00    +0.000 A 
BRANCH  22  25
ATOM     25  C   UNL     1      47.136   2.781   6.231  0.00  0.00    +0.000 C 
ATOM     26  N   UNL     1      48.475   2.516   6.290  0.00  0.00    +0.000 N 
ATOM     27  O   UNL     1      46.543   2.830   5.161  0.00  0.00    +0.000 OA
ATOM     28  H   UNL     1      48.939   2.224   7.139  0.00  0.00    +0.000 HD
ATOM     29  H   UNL     1      48.920   2.268   5.414  0.00  0.00    +0.000 HD
ENDBRANCH  22  25
ENDBRANCH  17  19
ENDBRANCH   1  17
TORSDOF 5
ENDMDL
MODEL 4
REMARK VINA RESULT:    -7.029      1.199      2.044
REMARK INTER + INTRA:         -10.190
REMARK INTER:                  -9.421
REMARK INTRA:                  -0.769
REMARK UNBOUND:                -1.107
REMARK  Name = 
REMARK  6 active torsions:
REMARK  status: ('A' for Active; 'I' for Inactive)
REMARK    1  A    between atoms: C_1  and  C_2
REMARK    2  A    between atoms: O_7  and  C_8
REMARK    3  A    between atoms: C_12  and  C_13
REMARK    4  A    between atoms: C_13  and  N_14
REMARK    5  A    between atoms: N_14  and  C_15
REMARK    6  A    between atoms: C_18  and  C_19
REMARK                            x       y       z     vdW  Elec       q    Type
REMARK                         _______ _______ _______ _____ _____    ______ ____
ROOT
ATOM      1  C   UNL     1      44.479   5.384  11.445  0.00  0.00    +0.000 C 
ATOM      2  C   UNL     1      44.145   6.762  10.905  0.00  0.00    +0.000 C 
ATOM      3  C   UNL     1      43.176   6.088  11.815  0.00  0.00    +0.000 C 
ENDROOT
BRANCH   1   8
ATOM      4  C   UNL     1      47.225   6.264  14.028  0.00  0.00    +0.000 A 
ATOM      5  C   UNL     1      47.461   4.971  14.497  0.00  0.00    +0.000 A 
ATOM      6  N   UNL     1      46.849   3.867  14.029  0.00  0.00    +0.000 NA
ATOM      7  C   UNL     1      45.924   4.041  13.059  0.00  0.00    +0.000 A 
ATOM      8  C   UNL     1      45.546   5.276  12.530  0.00  0.00    +0.000 A 
ATOM      9  C   UNL     1      46.230   6.398  13.041  0.00  0.00    +0.000 A 
BRANCH   4  16
ATOM     10  C   UNL     1      48.914   7.832  16.715  0.00  0.00    +0.000 C 
ATOM     11  C   UNL     1      49.054   7.037  15.410  0.00  0.00    +0.000 C 
ATOM     12  C   UNL     1      50.374   7.397  14.716  0.00  0.00    +0.000 C 
ATOM     13  O   UNL     1      50.331   8.730  14.217  0.00  0.00    +0.000 OA
ATOM     14  C   UNL     1      49.302   8.883  13.243  0.00  0.00    +0.000 C 
ATOM     15  C   UNL     1      47.950   8.589  13.881  0.00  0.00    +0.000 C 
ATOM     16  O   UNL     1      47.961   7.332  14.535  0.00  0.00    +0.000 OA
ENDBRANCH   4  16
ENDBRANCH   1   8
BRANCH   1  17
ATOM     17  N   UNL     1      44.314   4.151  10.662  0.00  0.00    +0.000 N 
ATOM     18  H   UNL     1      43.850   3.372  11.121  0.00  0.00    +0.000 HD
BRANCH  17  19
ATOM     19  C   UNL     1      45.077   3.773   9.542  0.00  0.00    +0.000 A 
ATOM     20  C   UNL     1      45.205   2.404   9.245  0.00  0.00    +0.000 A 
ATOM     21  C   UNL     1      45.932   1.962   8.132  0.00  0.00    +0.000 A 
ATOM     22  C   UNL     1      46.533   2.893   7.283  0.00  0.00    +0.000 A 
ATOM     23  C   UNL     1      46.421   4.257   7.574  0.00  0.00    +0.000 A 
ATOM     24  C   UNL     1      45.709   4.687   8.698  0.00  0.00    +0.000 A 
BRANCH  22  25
ATOM     25  C   UNL     1      47.323   2.491   6.093  0.00  0.00    +0.000 C 
ATOM     26  N   UNL     1      48.546   1.923   6.306  0.00  0.00    +0.000 N 
ATOM     27  O   UNL     1      46.881   2.647   4.961  0.00  0.00    +0.000 OA
ATOM     28  H   UNL     1      48.832   1.555   7.202  0.00  0.00    +0.000 HD
ATOM     29  H   UNL     1      49.016   1.554   5.487  0.00  0.00    +0.000 HD
ENDBRANCH  22  25
ENDBRANCH  17  19
ENDBRANCH   1  17
TORSDOF 5
ENDMDL
MODEL 5
REMARK VINA RESULT:    -6.715      3.352      5.528
REMARK INTER + INTRA:          -9.785
REMARK INTER:                  -8.983
REMARK INTRA:                  -0.802
REMARK UNBOUND:                -1.107
REMARK  Name = 
REMARK  6 active torsions:
REMARK  status: ('A' for Active; 'I' for Inactive)
REMARK    1  A    between atoms: C_1  and  C_2
REMARK    2  A    between atoms: O_7  and  C_8
REMARK    3  A    between atoms: C_12  and  C_13
REMARK    4  A    between atoms: C_13  and  N_14
REMARK    5  A    between atoms: N_14  and  C_15
REMARK    6  A    between atoms: C_18  and  C_19
REMARK                            x       y       z     vdW  Elec       q    Type
REMARK                         _______ _______ _______ _____ _____    ______ ____
ROOT
ATOM      1  C   UNL     1      47.654   7.931  12.856  0.00  0.00    +0.000 C 
ATOM      2  C   UNL     1      48.679   7.851  11.741  0.00  0.00    +0.000 C 
ATOM      3  C   UNL     1      48.203   9.190  12.190  0.00  0.00    +0.000 C 
ENDROOT
BRANCH   1   8
ATOM      4  C   UNL     1      48.771   6.089  16.073  0.00  0.00    +0.000 A 
ATOM      5  C   UNL     1      48.949   7.215  16.879  0.00  0.00    +0.000 A 
ATOM      6  N   UNL     1      48.705   8.479  16.488  0.00  0.00    +0.000 NA
ATOM      7  C   UNL     1      48.287   8.659  15.215  0.00  0.00    +0.000 A 
ATOM      8  C   UNL     1      48.115   7.638  14.280  0.00  0.00    +0.000 A 
ATOM      9  C   UNL     1      48.366   6.330  14.747  0.00  0.00    +0.000 A 
BRANCH   4  16
ATOM     10  C   UNL     1      50.936   3.691  17.518  0.00  0.00    +0.000 C 
ATOM     11  C   UNL     1      49.812   4.705  17.763  0.00  0.00    +0.000 C 
ATOM     12  C   UNL     1      48.951   4.257  18.951  0.00  0.00    +0.000 C 
ATOM     13  O   UNL     1      48.200   3.095  18.617  0.00  0.00    +0.000 OA
ATOM     14  C   UNL     1      47.304   3.354  17.539  0.00  0.00    +0.000 C 
ATOM     15  C   UNL     1      48.098   3.756  16.303  0.00  0.00    +0.000 C 
ATOM     16  O   UNL     1      48.989   4.818  16.597  0.00  0.00    +0.000 OA
ENDBRANCH   4  16
ENDBRANCH   1   8
BRANCH   1  17
ATOM     17  N   UNL     1      46.218   7.697  12.647  0.00  0.00    +0.000 N 
ATOM     18  H   UNL     1      45.575   8.333  13.111  0.00  0.00    +0.000 HD
BRANCH  17  19
ATOM     19  C   UNL     1      45.625   6.483  12.252  0.00  0.00    +0.000 A 
ATOM     20  C   UNL     1      45.543   6.189  10.880  0.00  0.00    +0.000 A 
ATOM     21  C   UNL     1      44.986   4.988  10.422  0.00  0.00    +0.000 A 
ATOM     22  C   UNL     1      44.514   4.049  11.340  0.00  0.00    +0.000 A 
ATOM     23  C   UNL     1      44.582   4.334  12.707  0.00  0.00    +0.000 A 
ATOM     24  C   UNL     1      45.122   5.545  13.154  0.00  0.00    +0.000 A 
BRANCH  22  25
ATOM     25  C   UNL     1      43.906   2.761  10.921  0.00  0.00    +0.000 C 
ATOM     26  N   UNL     1      44.448   2.126   9.840  0.00  0.00    +0.000 N 
ATOM     27  O   UNL     1      42.963   2.279  11.537  0.00  0.00    +0.000 OA
ATOM     28  H   UNL     1      45.359   2.356   9.469  0.00  0.00    +0.000 HD
ATOM     29  H   UNL     1      44.092   1.198   9.642  0.00  0.00    +0.000 HD
ENDBRANCH  22  25
ENDBRANCH  17  19
ENDBRANCH   1  17
TORSDOF 5
ENDMDL
MODEL 6
REMARK VINA RESULT:    -6.619      3.388      5.687
REMARK INTER + INTRA:          -9.661
REMARK INTER:                  -8.985
REMARK INTRA:                  -0.675
REMARK UNBOUND:                -1.107
REMARK  Name = 
REMARK  6 active torsions:
REMARK  status: ('A' for Active; 'I' for Inactive)
REMARK    1  A    between atoms: C_1  and  C_2
REMARK    2  A    between atoms: O_7  and  C_8
REMARK    3  A    between atoms: C_12  and  C_13
REMARK    4  A    between atoms: C_13  and  N_14
REMARK    5  A    between atoms: N_14  and  C_15
REMARK    6  A    between atoms: C_18  and  C_19
REMARK                            x       y       z     vdW  Elec       q    Type
REMARK                         _______ _______ _______ _____ _____    ______ ____
ROOT
ATOM      1  C   UNL     1      48.207   7.698  13.016  0.00  0.00    +0.000 C 
ATOM      2  C   UNL     1      48.858   7.805  11.650  0.00  0.00    +0.000 C 
ATOM      3  C   UNL     1      48.477   9.054  12.369  0.00  0.00    +0.000 C 
ENDROOT
BRANCH   1   8
ATOM      4  C   UNL     1      49.443   6.156  16.345  0.00  0.00    +0.000 A 
ATOM      5  C   UNL     1      50.749   6.648  16.304  0.00  0.00    +0.000 A 
ATOM      6  N   UNL     1      51.233   7.447  15.335  0.00  0.00    +0.000 NA
ATOM      7  C   UNL     1      50.394   7.763  14.322  0.00  0.00    +0.000 A 
ATOM      8  C   UNL     1      49.082   7.305  14.202  0.00  0.00    +0.000 A 
ATOM      9  C   UNL     1      48.619   6.486  15.253  0.00  0.00    +0.000 A 
BRANCH   4  16
ATOM     10  C   UNL     1      47.234   5.625  19.058  0.00  0.00    +0.000 C 
ATOM     11  C   UNL     1      47.615   5.225  17.628  0.00  0.00    +0.000 C 
ATOM     12  C   UNL     1      47.235   3.761  17.373  0.00  0.00    +0.000 C 
ATOM     13  O   UNL     1      48.067   2.887  18.129  0.00  0.00    +0.000 OA
ATOM     14  C   UNL     1      49.435   3.025  17.752  0.00  0.00    +0.000 C 
ATOM     15  C   UNL     1      49.897   4.450  18.028  0.00  0.00    +0.000 C 
ATOM     16  O   UNL     1      49.023   5.391  17.429  0.00  0.00    +0.000 OA
ENDBRANCH   4  16
ENDBRANCH   1   8
BRANCH   1  17
ATOM     17  N   UNL     1      46.785   7.377  13.207  0.00  0.00    +0.000 N 
ATOM     18  H   UNL     1      46.326   7.780  14.020  0.00  0.00    +0.000 HD
BRANCH  17  19
ATOM     19  C   UNL     1      46.107   6.269  12.668  0.00  0.00    +0.000 A 
ATOM     20  C   UNL     1      45.608   6.357  11.357  0.00  0.00    +0.000 A 
ATOM     21  C   UNL     1      44.943   5.281  10.753  0.00  0.00    +0.000 A 
ATOM     22  C   UNL     1      44.782   4.085  11.455  0.00  0.00    +0.000 A 
ATOM     23  C   UNL     1      45.266   3.989  12.763  0.00  0.00    +0.000 A 
ATOM     24  C   UNL     1      45.911   5.075  13.364  0.00  0.00    +0.000 A 
BRANCH  22  25
ATOM     25  C   UNL     1      44.082   2.911  10.876  0.00  0.00    +0.000 C 
ATOM     26  N   UNL     1      44.687   2.260   9.839  0.00  0.00    +0.000 N 
ATOM     27  O   UNL     1      43.009   2.532  11.327  0.00  0.00    +0.000 OA
ATOM     28  H   UNL     1      45.663   2.382   9.609  0.00  0.00    +0.000 HD
ATOM     29  H   UNL     1      44.248   1.397   9.536  0.00  0.00    +0.000 HD
ENDBRANCH  22  25
ENDBRANCH  17  19
ENDBRANCH   1  17
TORSDOF 5
ENDMDL
MODEL 7
REMARK VINA RESULT:    -6.296      4.943      8.273
REMARK INTER + INTRA:          -9.244
REMARK INTER:                  -8.564
REMARK INTRA:                  -0.679
REMARK UNBOUND:                -1.107
REMARK  Name = 
REMARK  6 active torsions:
REMARK  status: ('A' for Active; 'I' for Inactive)
REMARK    1  A    between atoms: C_1  and  C_2
REMARK    2  A    between atoms: O_7  and  C_8
REMARK    3  A    between atoms: C_12  and  C_13
REMARK    4  A    between atoms: C_13  and  N_14
REMARK    5  A    between atoms: N_14  and  C_15
REMARK    6  A    between atoms: C_18  and  C_19
REMARK                            x       y       z     vdW  Elec       q    Type
REMARK                         _______ _______ _______ _____ _____    ______ ____
ROOT
ATOM      1  C   UNL     1      48.345   4.821  17.231  0.00  0.00    +0.000 C 
ATOM      2  C   UNL     1      47.273   3.820  17.618  0.00  0.00    +0.000 C 
ATOM      3  C   UNL     1      47.252   5.176  18.236  0.00  0.00    +0.000 C 
ENDROOT
BRANCH   1   8
ATOM      4  C   UNL     1      47.246   5.710  13.627  0.00  0.00    +0.000 A 
ATOM      5  C   UNL     1      48.195   6.704  13.384  0.00  0.00    +0.000 A 
ATOM      6  N   UNL     1      49.157   7.069  14.251  0.00  0.00    +0.000 NA
ATOM      7  C   UNL     1      49.175   6.442  15.449  0.00  0.00    +0.000 A 
ATOM      8  C   UNL     1      48.261   5.469  15.853  0.00  0.00    +0.000 A 
ATOM      9  C   UNL     1      47.285   5.110  14.899  0.00  0.00    +0.000 A 
BRANCH   4  16
ATOM     10  C   UNL     1      45.102   3.329  12.123  0.00  0.00    +0.000 C 
ATOM     11  C   UNL     1      45.199   4.575  13.012  0.00  0.00    +0.000 C 
ATOM     12  C   UNL     1      43.926   5.420  12.875  0.00  0.00    +0.000 C 
ATOM     13  O   UNL     1      43.856   6.015  11.583  0.00  0.00    +0.000 OA
ATOM     14  C   UNL     1      44.955   6.894  11.361  0.00  0.00    +0.000 C 
ATOM     15  C   UNL     1      46.258   6.108  11.432  0.00  0.00    +0.000 C 
ATOM     16  O   UNL     1      46.334   5.362  12.635  0.00  0.00    +0.000 OA
ENDBRANCH   4  16
ENDBRANCH   1   8
BRANCH   1  17
ATOM     17  N   UNL     1      49.707   4.795  17.784  0.00  0.00    +0.000 N 
ATOM     18  H   UNL     1      50.167   5.692  17.921  0.00  0.00    +0.000 HD
BRANCH  17  19
ATOM     19  C   UNL     1      50.597   3.706  17.742  0.00  0.00    +0.000 A 
ATOM     20  C   UNL     1      51.932   3.912  18.131  0.00  0.00    +0.000 A 
ATOM     21  C   UNL     1      52.862   2.864  18.134  0.00  0.00    +0.000 A 
ATOM     22  C   UNL     1      52.462   1.581  17.760  0.00  0.00    +0.000 A 
ATOM     23  C   UNL     1      51.138   1.366  17.362  0.00  0.00    +0.000 A 
ATOM     24  C   UNL     1      50.221   2.422  17.344  0.00  0.00    +0.000 A 
BRANCH  22  25
ATOM     25  C   UNL     1      53.399   0.430  17.735  0.00  0.00    +0.000 C 
ATOM     26  N   UNL     1      54.412   0.458  16.820  0.00  0.00    +0.000 N 
ATOM     27  O   UNL     1      53.276  -0.501  18.522  0.00  0.00    +0.000 OA
ATOM     28  H   UNL     1      54.692   1.299  16.337  0.00  0.00    +0.000 HD
ATOM     29  H   UNL     1      55.103  -0.280  16.896  0.00  0.00    +0.000 HD
ENDBRANCH  22  25
ENDBRANCH  17  19
ENDBRANCH   1  17
TORSDOF 5
ENDMDL
MODEL 8
REMARK VINA RESULT:    -6.188      3.515      7.466
REMARK INTER + INTRA:          -9.103
REMARK INTER:                  -8.953
REMARK INTRA:                  -0.151
REMARK UNBOUND:                -1.107
REMARK  Name = 
REMARK  6 active torsions:
REMARK  status: ('A' for Active; 'I' for Inactive)
REMARK    1  A    between atoms: C_1  and  C_2
REMARK    2  A    between atoms: O_7  and  C_8
REMARK    3  A    between atoms: C_12  and  C_13
REMARK    4  A    between atoms: C_13  and  N_14
REMARK    5  A    between atoms: N_14  and  C_15
REMARK    6  A    between atoms: C_18  and  C_19
REMARK                            x       y       z     vdW  Elec       q    Type
REMARK                         _______ _______ _______ _____ _____    ______ ____
ROOT
ATOM      1  C   UNL     1      48.758   8.027  12.734  0.00  0.00    +0.000 C 
ATOM      2  C   UNL     1      49.751   8.666  11.783  0.00  0.00    +0.000 C 
ATOM      3  C   UNL     1      49.686   7.179  11.868  0.00  0.00    +0.000 C 
ENDROOT
BRANCH   1   8
ATOM      4  C   UNL     1      45.248   6.984  11.477  0.00  0.00    +0.000 A 
ATOM      5  C   UNL     1      44.600   8.200  11.703  0.00  0.00    +0.000 A 
ATOM      6  N   UNL     1      45.201   9.307  12.178  0.00  0.00    +0.000 NA
ATOM      7  C   UNL     1      46.516   9.212  12.479  0.00  0.00    +0.000 A 
ATOM      8  C   UNL     1      47.280   8.051  12.356  0.00  0.00    +0.000 A 
ATOM      9  C   UNL     1      46.607   6.925  11.837  0.00  0.00    +0.000 A 
BRANCH   4  16
ATOM     10  C   UNL     1      45.002   4.383   9.089  0.00  0.00    +0.000 C 
ATOM     11  C   UNL     1      45.287   4.749  10.551  0.00  0.00    +0.000 C 
ATOM     12  C   UNL     1      44.892   3.586  11.470  0.00  0.00    +0.000 C 
ATOM     13  O   UNL     1      43.477   3.430  11.502  0.00  0.00    +0.000 OA
ATOM     14  C   UNL     1      42.842   4.596  12.022  0.00  0.00    +0.000 C 
ATOM     15  C   UNL     1      43.151   5.787  11.124  0.00  0.00    +0.000 C 
ATOM     16  O   UNL     1      44.548   5.918  10.919  0.00  0.00    +0.000 OA
ENDBRANCH   4  16
ENDBRANCH   1   8
BRANCH   1  17
ATOM     17  N   UNL     1      48.988   7.912  14.182  0.00  0.00    +0.000 N 
ATOM     18  H   UNL     1      49.738   8.475  14.575  0.00  0.00    +0.000 HD
BRANCH  17  19
ATOM     19  C   UNL     1      48.605   6.833  14.999  0.00  0.00    +0.000 A 
ATOM     20  C   UNL     1      48.997   6.838  16.349  0.00  0.00    +0.000 A 
ATOM     21  C   UNL     1      48.629   5.805  17.221  0.00  0.00    +0.000 A 
ATOM     22  C   UNL     1      47.841   4.751  16.753  0.00  0.00    +0.000 A 
ATOM     23  C   UNL     1      47.453   4.731  15.410  0.00  0.00    +0.000 A 
ATOM     24  C   UNL     1      47.842   5.757  14.542  0.00  0.00    +0.000 A 
BRANCH  22  25
ATOM     25  C   UNL     1      47.423   3.623  17.623  0.00  0.00    +0.000 C 
ATOM     26  N   UNL     1      48.157   3.386  18.750  0.00  0.00    +0.000 N 
ATOM     27  O   UNL     1      46.443   2.944  17.346  0.00  0.00    +0.000 OA
ATOM     28  H   UNL     1      48.802   4.061  19.137  0.00  0.00    +0.000 HD
ATOM     29  H   UNL     1      47.788   2.687  19.385  0.00  0.00    +0.000 HD
ENDBRANCH  22  25
ENDBRANCH  17  19
ENDBRANCH   1  17
TORSDOF 5
ENDMDL
