MODEL 1
REMARK VINA RESULT:    -8.345      0.000      0.000
REMARK INTER + INTRA:         -12.391
REMARK INTER:                 -12.004
REMARK INTRA:                  -0.386
REMARK UNBOUND:                -0.386
REMARK  Name = 
REMARK  8 active torsions:
REMARK  status: ('A' for Active; 'I' for Inactive)
REMARK    1  A    between atoms: N_1  and  C_2
REMARK    2  A    between atoms: C_2  and  C_3
REMARK    3  A    between atoms: C_3  and  N_4
REMARK    4  A    between atoms: C_3  and  C_17
REMARK    5  A    between atoms: C_5  and  C_7
REMARK    6  A    between atoms: C_20  and  O_21
REMARK    7  A    between atoms: O_21  and  C_22
REMARK    8  A    between atoms: C_22  and  C_23
REMARK                            x       y       z     vdW  Elec       q    Type
REMARK                         _______ _______ _______ _____ _____    ______ ____
ROOT
ATOM      1  C   UNL     1      46.106   8.063  12.866  0.00  0.00    +0.000 C 
ENDROOT
BRANCH   1   2
ATOM      2  C   UNL     1      45.631   6.906  12.002  0.00  0.00    +0.000 A 
ATOM      3  C   UNL     1      44.505   6.157  12.382  0.00  0.00    +0.000 A 
ATOM      4  C   UNL     1      44.027   5.127  11.564  0.00  0.00    +0.000 A 
ATOM      5  C   UNL     1      44.671   4.833  10.362  0.00  0.00    +0.000 A 
ATOM      6  C   UNL     1      45.844   5.508  10.027  0.00  0.00    +0.000 A 
ATOM      7  C   UNL     1      46.317   6.531  10.839  0.00  0.00    +0.000 A 
BRANCH   5   8
ATOM      8  O   UNL     1      44.075   3.883   9.575  0.00  0.00    +0.000 OA
BRANCH   8   9
ATOM      9  C   UNL     1      44.691   2.591   9.654  0.00  0.00    +0.000 C 
BRANCH   9  10
ATOM     10  C   UNL     1      45.544   2.339   8.437  0.00  0.00    +0.000 A 
ATOM     11  C   UNL     1      45.647   3.315   7.446  0.00  0.00    +0.000 A 
ATOM     12  C   UNL     1      46.490   3.085   6.365  0.00  0.00    +0.000 A 
ATOM     13  C   UNL     1      47.203   1.894   6.300  0.00  0.00    +0.000 A 
ATOM     14  C   UNL     1      47.049   0.982   7.328  0.00  0.00    +0.000 A 
ATOM     15  N   UNL     1      46.246   1.178   8.394  0.00  0.00    +0.000 NA
ENDBRANCH   9  10
ENDBRANCH   8   9
ENDBRANCH   5   8
ENDBRANCH   1   2
BRANCH   1  16
ATOM     16  N   UNL     1      46.800   7.516  14.019  0.00  0.00    +0.000 N 
ATOM     17  C   UNL     1      48.099   7.082  13.949  0.00  0.00    +0.000 C 
ATOM     18  O   UNL     1      48.784   7.223  12.939  0.00  0.00    +0.000 OA
ATOM     19  H   UNL     1      46.223   7.238  14.804  0.00  0.00    +0.000 HD
BRANCH  17  20
ATOM     20  C   UNL     1      48.642   6.491  15.172  0.00  0.00    +0.000 A 
ATOM     21  C   UNL     1      49.738   7.072  15.794  0.00  0.00    +0.000 A 
ATOM     22  S   UNL     1      50.230   6.252  17.206  0.00  0.00    +0.000 S 
ATOM     23  C   UNL     1      49.031   5.064  17.003  0.00  0.00    +0.000 A 
ATOM     24  N   UNL     1      48.925   4.019  17.868  0.00  0.00    +0.000 NA
ATOM     25  C   UNL     1      47.996   3.174  17.570  0.00  0.00    +0.000 A 
ATOM     26  N   UNL     1      47.156   3.281  16.492  0.00  0.00    +0.000 N 
ATOM     27  C   UNL     1      47.192   4.343  15.620  0.00  0.00    +0.000 A 
ATOM     28  O   UNL     1      46.377   4.455  14.709  0.00  0.00    +0.000 OA
ATOM     29  C   UNL     1      48.242   5.307  15.892  0.00  0.00    +0.000 A 
ATOM     30  H   UNL     1      46.436   2.594  16.329  0.00  0.00    +0.000 HD
ENDBRANCH  17  20
ENDBRANCH   1  16
BRANCH   1  31
ATOM     31  C   UNL     1      47.000   9.107  12.124  0.00  0.00    +0.000 C 
BRANCH  31  32
ATOM     32  N   UNL     1      46.796  10.497  12.552  0.00  0.00    +0.000 NA
ATOM     33  H   UNL     1      45.798  10.700  12.583  0.00  0.00    +0.000 HD
ATOM     34  H   UNL     1      47.195  11.123  11.853  0.00  0.00    +0.000 HD
ENDBRANCH  31  32
ENDBRANCH   1  31
TORSDOF 8
ENDMDL
MODEL 2
REMARK VINA RESULT:    -8.196      4.535      8.601
REMARK INTER + INTRA:         -12.176
REMARK INTER:                 -11.167
REMARK INTRA:                  -1.009
REMARK UNBOUND:                -0.386
REMARK  Name = 
REMARK  8 active torsions:
REMARK  status: ('A' for Active; 'I' for Inactive)
REMARK    1  A    between atoms: N_1  and  C_2
REMARK    2  A    between atoms: C_2  and  C_3
REMARK    3  A    between atoms: C_3  and  N_4
REMARK    4  A    between atoms: C_3  and  C_17
REMARK    5  A    between atoms: C_5  and  C_7
REMARK    6  A    between atoms: C_20  and  O_21
REMARK    7  A    between atoms: O_21  and  C_22
REMARK    8  A    between atoms: C_22  and  C_23
REMARK                            x       y       z     vdW  Elec       q    Type
REMARK                         _______ _______ _______ _____ _____    ______ ____
ROOT
ATOM      1  C   UNL     1      48.639   5.784  17.176  0.00  0.00    +0.000 C 
ENDROOT
BRANCH   1   2
ATOM      2  C   UNL     1      49.417   4.478  17.222  0.00  0.00    +0.000 A 
ATOM      3  C   UNL     1      50.791   4.485  17.512  0.00  0.00    +0.000 A 
ATOM      4  C   UNL     1      51.503   3.285  17.612  0.00  0.00    +0.000 A 
ATOM      5  C   UNL     1      50.850   2.067  17.422  0.00  0.00    +0.000 A 
ATOM      6  C   UNL     1      49.509   2.058  17.040  0.00  0.00    +0.000 A 
ATOM      7  C   UNL     1      48.803   3.250  16.941  0.00  0.00    +0.000 A 
BRANCH   5   8
ATOM      8  O   UNL     1      51.597   0.941  17.643  0.00  0.00    +0.000 OA
BRANCH   8   9
ATOM      9  C   UNL     1      53.005   1.188  17.761  0.00  0.00    +0.000 C 
BRANCH   9  10
ATOM     10  C   UNL     1      53.774  -0.107  17.696  0.00  0.00    +0.000 A 
ATOM     11  C   UNL     1      54.535  -0.407  16.567  0.00  0.00    +0.000 A 
ATOM     12  C   UNL     1      55.286  -1.577  16.557  0.00  0.00    +0.000 A 
ATOM     13  C   UNL     1      55.258  -2.412  17.667  0.00  0.00    +0.000 A 
ATOM     14  C   UNL     1      54.483  -2.037  18.749  0.00  0.00    +0.000 A 
ATOM     15  N   UNL     1      53.749  -0.906  18.793  0.00  0.00    +0.000 NA
ENDBRANCH   9  10
ENDBRANCH   8   9
ENDBRANCH   5   8
ENDBRANCH   1   2
BRANCH   1  16
ATOM     16  N   UNL     1      47.782   5.761  16.003  0.00  0.00    +0.000 N 
ATOM     17  C   UNL     1      48.199   6.236  14.786  0.00  0.00    +0.000 C 
ATOM     18  O   UNL     1      49.351   6.615  14.590  0.00  0.00    +0.000 OA
ATOM     19  H   UNL     1      46.794   5.613  16.169  0.00  0.00    +0.000 HD
BRANCH  17  20
ATOM     20  C   UNL     1      47.203   6.213  13.715  0.00  0.00    +0.000 A 
ATOM     21  C   UNL     1      46.784   7.401  13.133  0.00  0.00    +0.000 A 
ATOM     22  S   UNL     1      45.625   7.182  11.902  0.00  0.00    +0.000 S 
ATOM     23  C   UNL     1      45.604   5.499  12.143  0.00  0.00    +0.000 A 
ATOM     24  N   UNL     1      44.774   4.698  11.420  0.00  0.00    +0.000 NA
ATOM     25  C   UNL     1      44.835   3.447  11.736  0.00  0.00    +0.000 A 
ATOM     26  N   UNL     1      45.657   2.922  12.700  0.00  0.00    +0.000 N 
ATOM     27  C   UNL     1      46.547   3.683  13.419  0.00  0.00    +0.000 A 
ATOM     28  O   UNL     1      47.326   3.177  14.219  0.00  0.00    +0.000 OA
ATOM     29  C   UNL     1      46.494   5.104  13.126  0.00  0.00    +0.000 A 
ATOM     30  H   UNL     1      45.669   1.930  12.881  0.00  0.00    +0.000 HD
ENDBRANCH  17  20
ENDBRANCH   1  16
BRANCH   1  31
ATOM     31  C   UNL     1      47.810   6.095  18.463  0.00  0.00    +0.000 C 
BRANCH  31  32
ATOM     32  N   UNL     1      46.546   5.354  18.567  0.00  0.00    +0.000 NA
ATOM     33  H   UNL     1      45.769   5.976  18.351  0.00  0.00    +0.000 HD
ATOM     34  H   UNL     1      46.416   5.053  19.532  0.00  0.00    +0.000 HD
ENDBRANCH  31  32
ENDBRANCH   1  31
TORSDOF 8
ENDMDL
MODEL 3
REMARK VINA RESULT:    -8.182      2.745      3.887
REMARK INTER + INTRA:         -12.156
REMARK INTER:                 -10.578
REMARK INTRA:                  -1.578
REMARK UNBOUND:                -0.386
REMARK  Name = 
REMARK  8 active torsions:
REMARK  status: ('A' for Active; 'I' for Inactive)
REMARK    1  A    between atoms: N_1  and  C_2
REMARK    2  A    between atoms: C_2  and  C_3
REMARK    3  A    between atoms: C_3  and  N_4
REMARK    4  A    between atoms: C_3  and  C_17
REMARK    5  A    between atoms: C_5  and  C_7
REMARK    6  A    between atoms: C_20  and  O_21
REMARK    7  A    between atoms: O_21  and  C_22
REMARK    8  A    between atoms: C_22  and  C_23
REMARK                            x       y       z     vdW  Elec       q    Type
REMARK                         _______ _______ _______ _____ _____    ______ ____
ROOT
ATOM      1  C   UNL     1      47.857   4.706  15.078  0.00  0.00    +0.000 C 
ENDROOT
BRANCH   1   2
ATOM      2  C   UNL     1      46.951   4.965  13.884  0.00  0.00    +0.000 A 
ATOM      3  C   UNL     1      47.314   5.915  12.915  0.00  0.00    +0.000 A 
ATOM      4  C   UNL     1      46.515   6.119  11.785  0.00  0.00    +0.000 A 
ATOM      5  C   UNL     1      45.347   5.378  11.612  0.00  0.00    +0.000 A 
ATOM      6  C   UNL     1      44.932   4.502  12.616  0.00  0.00    +0.000 A 
ATOM      7  C   UNL     1      45.726   4.301  13.737  0.00  0.00    +0.000 A 
BRANCH   5   8
ATOM      8  O   UNL     1      44.683   5.565  10.429  0.00  0.00    +0.000 OA
BRANCH   8   9
ATOM      9  C   UNL     1      44.091   4.372   9.897  0.00  0.00    +0.000 C 
BRANCH   9  10
ATOM     10  C   UNL     1      45.074   3.643   9.016  0.00  0.00    +0.000 A 
ATOM     11  C   UNL     1      45.221   2.262   9.132  0.00  0.00    +0.000 A 
ATOM     12  C   UNL     1      46.086   1.605   8.265  0.00  0.00    +0.000 A 
ATOM     13  C   UNL     1      46.779   2.339   7.311  0.00  0.00    +0.000 A 
ATOM     14  C   UNL     1      46.571   3.705   7.257  0.00  0.00    +0.000 A 
ATOM     15  N   UNL     1      45.733   4.371   8.079  0.00  0.00    +0.000 NA
ENDBRANCH   9  10
ENDBRANCH   8   9
ENDBRANCH   5   8
ENDBRANCH   1   2
BRANCH   1  16
ATOM     16  N   UNL     1      47.790   5.860  15.958  0.00  0.00    +0.000 N 
ATOM     17  C   UNL     1      48.889   6.633  16.232  0.00  0.00    +0.000 C 
ATOM     18  O   UNL     1      49.969   6.458  15.675  0.00  0.00    +0.000 OA
ATOM     19  H   UNL     1      46.970   5.929  16.550  0.00  0.00    +0.000 HD
BRANCH  17  20
ATOM     20  C   UNL     1      48.683   7.718  17.191  0.00  0.00    +0.000 A 
ATOM     21  C   UNL     1      48.981   9.025  16.831  0.00  0.00    +0.000 A 
ATOM     22  S   UNL     1      48.675  10.157  18.069  0.00  0.00    +0.000 S 
ATOM     23  C   UNL     1      48.187   8.934  19.144  0.00  0.00    +0.000 A 
ATOM     24  N   UNL     1      47.825   9.228  20.423  0.00  0.00    +0.000 NA
ATOM     25  C   UNL     1      47.516   8.198  21.138  0.00  0.00    +0.000 A 
ATOM     26  N   UNL     1      47.526   6.902  20.691  0.00  0.00    +0.000 N 
ATOM     27  C   UNL     1      47.836   6.561  19.395  0.00  0.00    +0.000 A 
ATOM     28  O   UNL     1      47.760   5.402  19.000  0.00  0.00    +0.000 OA
ATOM     29  C   UNL     1      48.224   7.681  18.557  0.00  0.00    +0.000 A 
ATOM     30  H   UNL     1      47.253   6.145  21.298  0.00  0.00    +0.000 HD
ENDBRANCH  17  20
ENDBRANCH   1  16
BRANCH   1  31
ATOM     31  C   UNL     1      47.544   3.391  15.861  0.00  0.00    +0.000 C 
BRANCH  31  32
ATOM     32  N   UNL     1      46.744   3.584  17.078  0.00  0.00    +0.000 NA
ATOM     33  H   UNL     1      45.811   3.199  16.935  0.00  0.00    +0.000 HD
ATOM     34  H   UNL     1      46.622   4.582  17.242  0.00  0.00    +0.000 HD
ENDBRANCH  31  32
ENDBRANCH   1  31
TORSDOF 8
ENDMDL
MODEL 4
REMARK VINA RESULT:    -8.063      2.116      2.906
REMARK INTER + INTRA:         -11.984
REMARK INTER:                 -10.999
REMARK INTRA:                  -0.985
REMARK UNBOUND:                -0.386
REMARK  Name = 
REMARK  8 active torsions:
REMARK  status: ('A' for Active; 'I' for Inactive)
REMARK    1  A    between atoms: N_1  and  C_2
REMARK    2  A    between atoms: C_2  and  C_3
REMARK    3  A    between atoms: C_3  and  N_4
REMARK    4  A    between atoms: C_3  and  C_17
REMARK    5  A    between atoms: C_5  and  C_7
REMARK    6  A    between atoms: C_20  and  O_21
REMARK    7  A    between atoms: O_21  and  C_22
REMARK    8  A    between atoms: C_22  and  C_23
REMARK                            x       y       z     vdW  Elec       q    Type
REMARK                         _______ _______ _______ _____ _____    ______ ____
ROOT
ATOM      1  C   UNL     1      47.509   6.904  13.655  0.00  0.00    +0.000 C 
ENDROOT
BRANCH   1   2
ATOM      2  C   UNL     1      46.610   6.027  12.798  0.00  0.00    +0.000 A 
ATOM      3  C   UNL     1      46.125   6.502  11.569  0.00  0.00    +0.000 A 
ATOM      4  C   UNL     1      45.344   5.681  10.748  0.00  0.00    +0.000 A 
ATOM      5  C   UNL     1      45.039   4.380  11.147  0.00  0.00    +0.000 A 
ATOM      6  C   UNL     1      45.436   3.936  12.408  0.00  0.00    +0.000 A 
ATOM      7  C   UNL     1      46.212   4.752  13.222  0.00  0.00    +0.000 A 
BRANCH   5   8
ATOM      8  O   UNL     1      44.361   3.613  10.237  0.00  0.00    +0.000 OA
BRANCH   8   9
ATOM      9  C   UNL     1      44.552   4.019   8.875  0.00  0.00    +0.000 C 
BRANCH   9  10
ATOM     10  C   UNL     1      45.535   3.105   8.186  0.00  0.00    +0.000 A 
ATOM     11  C   UNL     1      46.427   3.625   7.250  0.00  0.00    +0.000 A 
ATOM     12  C   UNL     1      47.366   2.775   6.676  0.00  0.00    +0.000 A 
ATOM     13  C   UNL     1      47.389   1.437   7.048  0.00  0.00    +0.000 A 
ATOM     14  C   UNL     1      46.473   1.004   7.990  0.00  0.00    +0.000 A 
ATOM     15  N   UNL     1      45.555   1.804   8.571  0.00  0.00    +0.000 NA
ENDBRANCH   9  10
ENDBRANCH   8   9
ENDBRANCH   5   8
ENDBRANCH   1   2
BRANCH   1  16
ATOM     16  N   UNL     1      48.015   6.100  14.755  0.00  0.00    +0.000 N 
ATOM     17  C   UNL     1      48.564   6.664  15.878  0.00  0.00    +0.000 C 
ATOM     18  O   UNL     1      48.570   7.877  16.066  0.00  0.00    +0.000 OA
ATOM     19  H   UNL     1      48.172   5.118  14.561  0.00  0.00    +0.000 HD
BRANCH  17  20
ATOM     20  C   UNL     1      49.093   5.727  16.869  0.00  0.00    +0.000 A 
ATOM     21  C   UNL     1      48.223   4.959  17.629  0.00  0.00    +0.000 A 
ATOM     22  S   UNL     1      49.015   3.922  18.728  0.00  0.00    +0.000 S 
ATOM     23  C   UNL     1      50.543   4.505  18.263  0.00  0.00    +0.000 A 
ATOM     24  N   UNL     1      51.678   4.051  18.861  0.00  0.00    +0.000 NA
ATOM     25  C   UNL     1      52.763   4.609  18.437  0.00  0.00    +0.000 A 
ATOM     26  N   UNL     1      52.818   5.572  17.463  0.00  0.00    +0.000 N 
ATOM     27  C   UNL     1      51.705   6.026  16.796  0.00  0.00    +0.000 A 
ATOM     28  O   UNL     1      51.791   6.830  15.874  0.00  0.00    +0.000 OA
ATOM     29  C   UNL     1      50.455   5.453  17.259  0.00  0.00    +0.000 A 
ATOM     30  H   UNL     1      53.704   5.952  17.164  0.00  0.00    +0.000 HD
ENDBRANCH  17  20
ENDBRANCH   1  16
BRANCH   1  31
ATOM     31  C   UNL     1      48.683   7.587  12.883  0.00  0.00    +0.000 C 
BRANCH  31  32
ATOM     32  N   UNL     1      49.772   6.679  12.502  0.00  0.00    +0.000 NA
ATOM     33  H   UNL     1      50.649   7.195  12.469  0.00  0.00    +0.000 HD
ATOM     34  H   UNL     1      49.604   6.335  11.557  0.00  0.00    +0.000 HD
ENDBRANCH  31  32
ENDBRANCH   1  31
TORSDOF 8
ENDMDL
MODEL 5
REMARK VINA RESULT:    -8.020      1.501      1.820
REMARK INTER + INTRA:         -11.923
REMARK INTER:                 -10.485
REMARK INTRA:                  -1.438
REMARK UNBOUND:                -0.386
REMARK  Name = 
REMARK  8 active torsions:
REMARK  status: ('A' for Active; 'I' for Inactive)
REMARK    1  A    between atoms: N_1  and  C_2
REMARK    2  A    between atoms: C_2  and  C_3
REMARK    3  A    between atoms: C_3  and  N_4
REMARK    4  A    between atoms: C_3  and  C_17
REMARK    5  A    between atoms: C_5  and  C_7
REMARK    6  A    between atoms: C_20  and  O_21
REMARK    7  A    between atoms: O_21  and  C_22
REMARK    8  A    between atoms: C_22  and  C_23
REMARK                            x       y       z     vdW  Elec       q    Type
REMARK                         _______ _______ _______ _____ _____    ______ ____
ROOT
ATOM      1  C   UNL     1      47.258   7.551  13.428  0.00  0.00    +0.000 C 
ENDROOT
BRANCH   1   2
ATOM      2  C   UNL     1      46.409   6.521  12.699  0.00  0.00    +0.000 A 
ATOM      3  C   UNL     1      45.612   6.907  11.609  0.00  0.00    +0.000 A 
ATOM      4  C   UNL     1      44.872   5.957  10.898  0.00  0.00    +0.000 A 
ATOM      5  C   UNL     1      44.919   4.613  11.269  0.00  0.00    +0.000 A 
ATOM      6  C   UNL     1      45.632   4.238  12.408  0.00  0.00    +0.000 A 
ATOM      7  C   UNL     1      46.367   5.183  13.113  0.00  0.00    +0.000 A 
BRANCH   5   8
ATOM      8  O   UNL     1      44.251   3.738  10.455  0.00  0.00    +0.000 OA
BRANCH   8   9
ATOM      9  C   UNL     1      44.314   4.074   9.062  0.00  0.00    +0.000 C 
BRANCH   9  10
ATOM     10  C   UNL     1      45.420   3.304   8.384  0.00  0.00    +0.000 A 
ATOM     11  C   UNL     1      45.565   1.939   8.626  0.00  0.00    +0.000 A 
ATOM     12  C   UNL     1      46.552   1.239   7.942  0.00  0.00    +0.000 A 
ATOM     13  C   UNL     1      47.363   1.915   7.039  0.00  0.00    +0.000 A 
ATOM     14  C   UNL     1      47.148   3.269   6.852  0.00  0.00    +0.000 A 
ATOM     15  N   UNL     1      46.195   3.975   7.495  0.00  0.00    +0.000 NA
ENDBRANCH   9  10
ENDBRANCH   8   9
ENDBRANCH   5   8
ENDBRANCH   1   2
BRANCH   1  16
ATOM     16  N   UNL     1      48.170   6.846  14.312  0.00  0.00    +0.000 N 
ATOM     17  C   UNL     1      48.693   7.430  15.437  0.00  0.00    +0.000 C 
ATOM     18  O   UNL     1      48.346   8.544  15.819  0.00  0.00    +0.000 OA
ATOM     19  H   UNL     1      48.596   6.004  13.942  0.00  0.00    +0.000 HD
BRANCH  17  20
ATOM     20  C   UNL     1      49.652   6.621  16.190  0.00  0.00    +0.000 A 
ATOM     21  C   UNL     1      50.950   7.077  16.371  0.00  0.00    +0.000 A 
ATOM     22  S   UNL     1      51.924   6.009  17.276  0.00  0.00    +0.000 S 
ATOM     23  C   UNL     1      50.661   4.878  17.407  0.00  0.00    +0.000 A 
ATOM     24  N   UNL     1      50.848   3.690  18.044  0.00  0.00    +0.000 NA
ATOM     25  C   UNL     1      49.816   2.913  18.034  0.00  0.00    +0.000 A 
ATOM     26  N   UNL     1      48.611   3.219  17.454  0.00  0.00    +0.000 N 
ATOM     27  C   UNL     1      48.361   4.425  16.845  0.00  0.00    +0.000 A 
ATOM     28  O   UNL     1      47.250   4.705  16.404  0.00  0.00    +0.000 OA
ATOM     29  C   UNL     1      49.500   5.323  16.800  0.00  0.00    +0.000 A 
ATOM     30  H   UNL     1      47.839   2.573  17.501  0.00  0.00    +0.000 HD
ENDBRANCH  17  20
ENDBRANCH   1  16
BRANCH   1  31
ATOM     31  C   UNL     1      48.038   8.532  12.495  0.00  0.00    +0.000 C 
BRANCH  31  32
ATOM     32  N   UNL     1      48.145   9.904  13.009  0.00  0.00    +0.000 NA
ATOM     33  H   UNL     1      47.269  10.397  12.847  0.00  0.00    +0.000 HD
ATOM     34  H   UNL     1      48.859  10.403  12.478  0.00  0.00    +0.000 HD
ENDBRANCH  31  32
ENDBRANCH   1  31
TORSDOF 8
ENDMDL
MODEL 6
REMARK VINA RESULT:    -7.932      2.194      2.672
REMARK INTER + INTRA:         -11.796
REMARK INTER:                 -10.573
REMARK INTRA:                  -1.223
REMARK UNBOUND:                -0.386
REMARK  Name = 
REMARK  8 active torsions:
REMARK  status: ('A' for Active; 'I' for Inactive)
REMARK    1  A    between atoms: N_1  and  C_2
REMARK    2  A    between atoms: C_2  and  C_3
REMARK    3  A    between atoms: C_3  and  N_4
REMARK    4  A    between atoms: C_3  and  C_17
REMARK    5  A    between atoms: C_5  and  C_7
REMARK    6  A    between atoms: C_20  and  O_21
REMARK    7  A    between atoms: O_21  and  C_22
REMARK    8  A    between atoms: C_22  and  C_23
REMARK                            x       y       z     vdW  Elec       q    Type
REMARK                         _______ _______ _______ _____ _____    ______ ____
ROOT
ATOM      1  C   UNL     1      47.669   7.894  13.287  0.00  0.00    +0.000 C 
ENDROOT
BRANCH   1   2
ATOM      2  C   UNL     1      46.746   6.816  12.739  0.00  0.00    +0.000 A 
ATOM      3  C   UNL     1      45.853   7.114  11.697  0.00  0.00    +0.000 A 
ATOM      4  C   UNL     1      45.041   6.115  11.149  0.00  0.00    +0.000 A 
ATOM      5  C   UNL     1      45.112   4.810  11.638  0.00  0.00    +0.000 A 
ATOM      6  C   UNL     1      45.926   4.529  12.735  0.00  0.00    +0.000 A 
ATOM      7  C   UNL     1      46.732   5.522  13.278  0.00  0.00    +0.000 A 
BRANCH   5   8
ATOM      8  O   UNL     1      44.362   3.876  10.974  0.00  0.00    +0.000 OA
BRANCH   8   9
ATOM      9  C   UNL     1      44.164   4.167   9.584  0.00  0.00    +0.000 C 
BRANCH   9  10
ATOM     10  C   UNL     1      45.196   3.457   8.745  0.00  0.00    +0.000 A 
ATOM     11  C   UNL     1      45.380   2.082   8.885  0.00  0.00    +0.000 A 
ATOM     12  C   UNL     1      46.293   1.440   8.056  0.00  0.00    +0.000 A 
ATOM     13  C   UNL     1      46.994   2.183   7.115  0.00  0.00    +0.000 A 
ATOM     14  C   UNL     1      46.748   3.541   7.035  0.00  0.00    +0.000 A 
ATOM     15  N   UNL     1      45.864   4.193   7.820  0.00  0.00    +0.000 NA
ENDBRANCH   9  10
ENDBRANCH   8   9
ENDBRANCH   5   8
ENDBRANCH   1   2
BRANCH   1  16
ATOM     16  N   UNL     1      47.740   7.741  14.730  0.00  0.00    +0.000 N 
ATOM     17  C   UNL     1      48.217   8.735  15.545  0.00  0.00    +0.000 C 
ATOM     18  O   UNL     1      48.518   9.846  15.118  0.00  0.00    +0.000 OA
ATOM     19  H   UNL     1      47.657   6.797  15.089  0.00  0.00    +0.000 HD
BRANCH  17  20
ATOM     20  C   UNL     1      48.294   8.411  16.970  0.00  0.00    +0.000 A 
ATOM     21  C   UNL     1      47.905   9.350  17.915  0.00  0.00    +0.000 A 
ATOM     22  S   UNL     1      48.058   8.799  19.522  0.00  0.00    +0.000 S 
ATOM     23  C   UNL     1      48.699   7.310  19.010  0.00  0.00    +0.000 A 
ATOM     24  N   UNL     1      49.090   6.368  19.911  0.00  0.00    +0.000 NA
ATOM     25  C   UNL     1      49.594   5.303  19.383  0.00  0.00    +0.000 A 
ATOM     26  N   UNL     1      49.736   5.089  18.036  0.00  0.00    +0.000 N 
ATOM     27  C   UNL     1      49.310   5.988  17.088  0.00  0.00    +0.000 A 
ATOM     28  O   UNL     1      49.376   5.738  15.888  0.00  0.00    +0.000 OA
ATOM     29  C   UNL     1      48.765   7.219  17.630  0.00  0.00    +0.000 A 
ATOM     30  H   UNL     1      50.120   4.223  17.690  0.00  0.00    +0.000 HD
ENDBRANCH  17  20
ENDBRANCH   1  16
BRANCH   1  31
ATOM     31  C   UNL     1      49.099   7.908  12.660  0.00  0.00    +0.000 C 
BRANCH  31  32
ATOM     32  N   UNL     1      50.065   7.023  13.324  0.00  0.00    +0.000 NA
ATOM     33  H   UNL     1      50.793   7.583  13.764  0.00  0.00    +0.000 HD
ATOM     34  H   UNL     1      50.528   6.448  12.621  0.00  0.00    +0.000 HD
ENDBRANCH  31  32
ENDBRANCH   1  31
TORSDOF 8
ENDMDL
MODEL 7
REMARK VINA RESULT:    -7.669      2.423      3.134
REMARK INTER + INTRA:         -11.417
REMARK INTER:                 -10.337
REMARK INTRA:                  -1.080
REMARK UNBOUND:                -0.386
REMARK  Name = 
REMARK  8 active torsions:
REMARK  status: ('A' for Active; 'I' for Inactive)
REMARK    1  A    between atoms: N_1  and  C_2
REMARK    2  A    between atoms: C_2  and  C_3
REMARK    3  A    between atoms: C_3  and  N_4
REMARK    4  A    between atoms: C_3  and  C_17
REMARK    5  A    between atoms: C_5  and  C_7
REMARK    6  A    between atoms: C_20  and  O_21
REMARK    7  A    between atoms: O_21  and  C_22
REMARK    8  A    between atoms: C_22  and  C_23
REMARK                            x       y       z     vdW  Elec       q    Type
REMARK                         _______ _______ _______ _____ _____    ______ ____
ROOT
ATOM      1  C   UNL     1      48.355   7.209  15.110  0.00  0.00    +0.000 C 
ENDROOT
BRANCH   1   2
ATOM      2  C   UNL     1      47.537   6.377  14.135  0.00  0.00    +0.000 A 
ATOM      3  C   UNL     1      47.236   5.038  14.429  0.00  0.00    +0.000 A 
ATOM      4  C   UNL     1      46.437   4.282  13.565  0.00  0.00    +0.000 A 
ATOM      5  C   UNL     1      45.932   4.856  12.398  0.00  0.00    +0.000 A 
ATOM      6  C   UNL     1      46.306   6.155  12.053  0.00  0.00    +0.000 A 
ATOM      7  C   UNL     1      47.099   6.904  12.913  0.00  0.00    +0.000 A 
BRANCH   5   8
ATOM      8  O   UNL     1      45.074   4.079  11.666  0.00  0.00    +0.000 OA
BRANCH   8   9
ATOM      9  C   UNL     1      44.760   4.616  10.374  0.00  0.00    +0.000 C 
BRANCH   9  10
ATOM     10  C   UNL     1      45.437   3.815   9.291  0.00  0.00    +0.000 A 
ATOM     11  C   UNL     1      45.402   2.421   9.333  0.00  0.00    +0.000 A 
ATOM     12  C   UNL     1      45.978   1.705   8.290  0.00  0.00    +0.000 A 
ATOM     13  C   UNL     1      46.572   2.394   7.240  0.00  0.00    +0.000 A 
ATOM     14  C   UNL     1      46.558   3.776   7.271  0.00  0.00    +0.000 A 
ATOM     15  N   UNL     1      46.001   4.500   8.264  0.00  0.00    +0.000 NA
ENDBRANCH   9  10
ENDBRANCH   8   9
ENDBRANCH   5   8
ENDBRANCH   1   2
BRANCH   1  16
ATOM     16  N   UNL     1      49.403   6.366  15.659  0.00  0.00    +0.000 N 
ATOM     17  C   UNL     1      49.401   5.960  16.969  0.00  0.00    +0.000 C 
ATOM     18  O   UNL     1      48.467   6.199  17.728  0.00  0.00    +0.000 OA
ATOM     19  H   UNL     1      50.255   6.292  15.114  0.00  0.00    +0.000 HD
BRANCH  17  20
ATOM     20  C   UNL     1      50.558   5.173  17.395  0.00  0.00    +0.000 A 
ATOM     21  C   UNL     1      51.695   5.814  17.866  0.00  0.00    +0.000 A 
ATOM     22  S   UNL     1      52.940   4.740  18.322  0.00  0.00    +0.000 S 
ATOM     23  C   UNL     1      52.022   3.388  17.854  0.00  0.00    +0.000 A 
ATOM     24  N   UNL     1      52.530   2.129  17.947  0.00  0.00    +0.000 NA
ATOM     25  C   UNL     1      51.739   1.202  17.520  0.00  0.00    +0.000 A 
ATOM     26  N   UNL     1      50.481   1.417  17.017  0.00  0.00    +0.000 N 
ATOM     27  C   UNL     1      49.907   2.664  16.950  0.00  0.00    +0.000 A 
ATOM     28  O   UNL     1      48.750   2.820  16.571  0.00  0.00    +0.000 OA
ATOM     29  C   UNL     1      50.769   3.746  17.388  0.00  0.00    +0.000 A 
ATOM     30  H   UNL     1      49.907   0.644  16.720  0.00  0.00    +0.000 HD
ENDBRANCH  17  20
ENDBRANCH   1  16
BRANCH   1  31
ATOM     31  C   UNL     1      48.956   8.519  14.507  0.00  0.00    +0.000 C 
BRANCH  31  32
ATOM     32  N   UNL     1      48.259   9.749  14.907  0.00  0.00    +0.000 NA
ATOM     33  H   UNL     1      48.429  10.476  14.214  0.00  0.00    +0.000 HD
ATOM     34  H   UNL     1      48.655  10.087  15.783  0.00  0.00    +0.000 HD
ENDBRANCH  31  32
ENDBRANCH   1  31
TORSDOF 8
ENDMDL
MODEL 8
REMARK VINA RESULT:    -7.164      3.843      8.161
REMARK INTER + INTRA:         -10.691
REMARK INTER:                  -9.637
REMARK INTRA:                  -1.054
REMARK UNBOUND:                -0.386
REMARK  Name = 
REMARK  8 active torsions:
REMARK  status: ('A' for Active; 'I' for Inactive)
REMARK    1  A    between atoms: N_1  and  C_2
REMARK    2  A    between atoms: C_2  and  C_3
REMARK    3  A    between atoms: C_3  and  N_4
REMARK    4  A    between atoms: C_3  and  C_17
REMARK    5  A    between atoms: C_5  and  C_7
REMARK    6  A    between atoms: C_20  and  O_21
REMARK    7  A    between atoms: O_21  and  C_22
REMARK    8  A    between atoms: C_22  and  C_23
REMARK                            x       y       z     vdW  Elec       q    Type
REMARK                         _______ _______ _______ _____ _____    ______ ____
ROOT
ATOM      1  C   UNL     1      49.180   7.730  15.383  0.00  0.00    +0.000 C 
ENDROOT
BRANCH   1   2
ATOM      2  C   UNL     1      49.698   6.552  16.193  0.00  0.00    +0.000 A 
ATOM      3  C   UNL     1      51.073   6.419  16.445  0.00  0.00    +0.000 A 
ATOM      4  C   UNL     1      51.553   5.370  17.236  0.00  0.00    +0.000 A 
ATOM      5  C   UNL     1      50.664   4.443  17.782  0.00  0.00    +0.000 A 
ATOM      6  C   UNL     1      49.310   4.514  17.456  0.00  0.00    +0.000 A 
ATOM      7  C   UNL     1      48.835   5.557  16.671  0.00  0.00    +0.000 A 
BRANCH   5   8
ATOM      8  O   UNL     1      51.207   3.513  18.629  0.00  0.00    +0.000 OA
BRANCH   8   9
ATOM      9  C   UNL     1      52.625   3.638  18.800  0.00  0.00    +0.000 C 
BRANCH   9  10
ATOM     10  C   UNL     1      53.338   2.479  18.148  0.00  0.00    +0.000 A 
ATOM     11  C   UNL     1      54.547   2.691  17.488  0.00  0.00    +0.000 A 
ATOM     12  C   UNL     1      55.217   1.598  16.950  0.00  0.00    +0.000 A 
ATOM     13  C   UNL     1      54.665   0.330  17.084  0.00  0.00    +0.000 A 
ATOM     14  C   UNL     1      53.465   0.206  17.761  0.00  0.00    +0.000 A 
ATOM     15  N   UNL     1      52.794   1.245  18.300  0.00  0.00    +0.000 NA
ENDBRANCH   9  10
ENDBRANCH   8   9
ENDBRANCH   5   8
ENDBRANCH   1   2
BRANCH   1  16
ATOM     16  N   UNL     1      47.988   7.303  14.670  0.00  0.00    +0.000 N 
ATOM     17  C   UNL     1      48.050   6.728  13.426  0.00  0.00    +0.000 C 
ATOM     18  O   UNL     1      49.116   6.448  12.885  0.00  0.00    +0.000 OA
ATOM     19  H   UNL     1      47.105   7.664  15.010  0.00  0.00    +0.000 HD
BRANCH  17  20
ATOM     20  C   UNL     1      46.764   6.414  12.804  0.00  0.00    +0.000 A 
ATOM     21  C   UNL     1      46.000   7.428  12.244  0.00  0.00    +0.000 A 
ATOM     22  S   UNL     1      44.537   6.879  11.561  0.00  0.00    +0.000 S 
ATOM     23  C   UNL     1      44.850   5.277  12.037  0.00  0.00    +0.000 A 
ATOM     24  N   UNL     1      43.954   4.284  11.789  0.00  0.00    +0.000 NA
ATOM     25  C   UNL     1      44.304   3.126  12.241  0.00  0.00    +0.000 A 
ATOM     26  N   UNL     1      45.473   2.867  12.909  0.00  0.00    +0.000 N 
ATOM     27  C   UNL     1      46.431   3.827  13.139  0.00  0.00    +0.000 A 
ATOM     28  O   UNL     1      47.503   3.551  13.669  0.00  0.00    +0.000 OA
ATOM     29  C   UNL     1      46.070   5.155  12.679  0.00  0.00    +0.000 A 
ATOM     30  H   UNL     1      45.694   1.933  13.218  0.00  0.00    +0.000 HD
ENDBRANCH  17  20
ENDBRANCH   1  16
BRANCH   1  31
ATOM     31  C   UNL     1      48.894   9.020  16.217  0.00  0.00    +0.000 C 
BRANCH  31  32
ATOM     32  N   UNL     1      47.481   9.417  16.259  0.00  0.00    +0.000 NA
ATOM     33  H   UNL     1      47.275  10.024  15.467  0.00  0.00    +0.000 HD
ATOM     34  H   UNL     1      47.316   9.973  17.098  0.00  0.00    +0.000 HD
ENDBRANCH  31  32
ENDBRANCH   1  31
TORSDOF 8
ENDMDL
MODEL 9
REMARK VINA RESULT:    -6.777      3.397      7.435
REMARK INTER + INTRA:         -10.135
REMARK INTER:                  -9.009
REMARK INTRA:                  -1.126
REMARK UNBOUND:                -0.386
REMARK  Name = 
REMARK  8 active torsions:
REMARK  status: ('A' for Active; 'I' for Inactive)
REMARK    1  A    between atoms: N_1  and  C_2
REMARK    2  A    between atoms: C_2  and  C_3
REMARK    3  A    between atoms: C_3  and  N_4
REMARK    4  A    between atoms: C_3  and  C_17
REMARK    5  A    between atoms: C_5  and  C_7
REMARK    6  A    between atoms: C_20  and  O_21
REMARK    7  A    between atoms: O_21  and  C_22
REMARK    8  A    between atoms: C_22  and  C_23
REMARK                            x       y       z     vdW  Elec       q    Type
REMARK                         _______ _______ _______ _____ _____    ______ ____
ROOT
ATOM      1  C   UNL     1      49.035   8.693  14.318  0.00  0.00    +0.000 C 
ENDROOT
BRANCH   1   2
ATOM      2  C   UNL     1      49.235   8.187  15.738  0.00  0.00    +0.000 A 
ATOM      3  C   UNL     1      48.398   8.636  16.773  0.00  0.00    +0.000 A 
ATOM      4  C   UNL     1      48.540   8.134  18.070  0.00  0.00    +0.000 A 
ATOM      5  C   UNL     1      49.518   7.179  18.348  0.00  0.00    +0.000 A 
ATOM      6  C   UNL     1      50.414   6.801  17.348  0.00  0.00    +0.000 A 
ATOM      7  C   UNL     1      50.272   7.301  16.059  0.00  0.00    +0.000 A 
BRANCH   5   8
ATOM      8  O   UNL     1      49.517   6.665  19.617  0.00  0.00    +0.000 OA
BRANCH   8   9
ATOM      9  C   UNL     1      48.394   5.820  19.902  0.00  0.00    +0.000 C 
BRANCH   9  10
ATOM     10  C   UNL     1      48.274   4.734  18.863  0.00  0.00    +0.000 A 
ATOM     11  C   UNL     1      47.192   4.731  17.983  0.00  0.00    +0.000 A 
ATOM     12  C   UNL     1      47.137   3.757  16.993  0.00  0.00    +0.000 A 
ATOM     13  C   UNL     1      48.156   2.816  16.908  0.00  0.00    +0.000 A 
ATOM     14  C   UNL     1      49.197   2.894  17.815  0.00  0.00    +0.000 A 
ATOM     15  N   UNL     1      49.283   3.830  18.782  0.00  0.00    +0.000 NA
ENDBRANCH   9  10
ENDBRANCH   8   9
ENDBRANCH   5   8
ENDBRANCH   1   2
BRANCH   1  16
ATOM     16  N   UNL     1      47.817   8.100  13.792  0.00  0.00    +0.000 N 
ATOM     17  C   UNL     1      47.828   6.938  13.065  0.00  0.00    +0.000 C 
ATOM     18  O   UNL     1      48.850   6.277  12.900  0.00  0.00    +0.000 OA
ATOM     19  H   UNL     1      46.998   8.696  13.769  0.00  0.00    +0.000 HD
BRANCH  17  20
ATOM     20  C   UNL     1      46.534   6.500  12.541  0.00  0.00    +0.000 A 
ATOM     21  C   UNL     1      45.668   7.424  11.975  0.00  0.00    +0.000 A 
ATOM     22  S   UNL     1      44.212   6.736  11.415  0.00  0.00    +0.000 S 
ATOM     23  C   UNL     1      44.667   5.191  11.960  0.00  0.00    +0.000 A 
ATOM     24  N   UNL     1      43.831   4.125  11.824  0.00  0.00    +0.000 NA
ATOM     25  C   UNL     1      44.290   3.023  12.317  0.00  0.00    +0.000 A 
ATOM     26  N   UNL     1      45.511   2.886  12.925  0.00  0.00    +0.000 N 
ATOM     27  C   UNL     1      46.409   3.921  13.040  0.00  0.00    +0.000 A 
ATOM     28  O   UNL     1      47.526   3.752  13.517  0.00  0.00    +0.000 OA
ATOM     29  C   UNL     1      45.928   5.191  12.531  0.00  0.00    +0.000 A 
ATOM     30  H   UNL     1      45.816   1.989  13.270  0.00  0.00    +0.000 HD
ENDBRANCH  17  20
ENDBRANCH   1  16
BRANCH   1  31
ATOM     31  C   UNL     1      48.999  10.249  14.179  0.00  0.00    +0.000 C 
BRANCH  31  32
ATOM     32  N   UNL     1      47.978  10.754  13.252  0.00  0.00    +0.000 NA
ATOM     33  H   UNL     1      48.229  11.693  12.949  0.00  0.00    +0.000 HD
ATOM     34  H   UNL     1      47.091  10.839  13.748  0.00  0.00    +0.000 HD
ENDBRANCH  31  32
ENDBRANCH   1  31
TORSDOF 8
ENDMDL
