MODEL 1
REMARK VINA RESULT:    -7.901      0.000      0.000
REMARK INTER + INTRA:         -11.429
REMARK INTER:                 -10.672
REMARK INTRA:                  -0.757
REMARK UNBOUND:                -0.757
REMARK  Name = 
REMARK  6 active torsions:
REMARK  status: ('A' for Active; 'I' for Inactive)
REMARK    1  A    between atoms: C_2  and  C_3
REMARK    2  A    between atoms: C_7  and  C_8
REMARK    3  A    between atoms: C_8  and  C_9
REMARK    4  A    between atoms: C_12  and  C_13
REMARK    5  A    between atoms: C_13  and  N_14
REMARK    6  A    between atoms: C_15  and  C_17
REMARK                            x       y       z     vdW  Elec       q    Type
REMARK                         _______ _______ _______ _____ _____    ______ ____
ROOT
ATOM      1  C   UNL     1      47.301   8.088  13.688  0.00  0.00    +0.000 C 
ENDROOT
BRANCH   1   5
ATOM      2  C   UNL     1      45.088   5.191  11.459  0.00  0.00    +0.000 A 
ATOM      3  C   UNL     1      44.770   6.538  11.300  0.00  0.00    +0.000 A 
ATOM      4  C   UNL     1      45.485   7.494  12.023  0.00  0.00    +0.000 A 
ATOM      5  C   UNL     1      46.476   7.094  12.921  0.00  0.00    +0.000 A 
ATOM      6  C   UNL     1      46.701   5.728  13.041  0.00  0.00    +0.000 A 
ATOM      7  N   UNL     1      46.037   4.777  12.336  0.00  0.00    +0.000 NA
BRANCH   2   8
ATOM      8  C   UNL     1      44.425   4.133  10.600  0.00  0.00    +0.000 C 
BRANCH   8  13
ATOM      9  C   UNL     1      46.229   1.938   8.047  0.00  0.00    +0.000 A 
ATOM     10  C   UNL     1      46.698   2.889   7.136  0.00  0.00    +0.000 A 
ATOM     11  C   UNL     1      46.443   4.242   7.353  0.00  0.00    +0.000 A 
ATOM     12  C   UNL     1      45.709   4.648   8.471  0.00  0.00    +0.000 A 
ATOM     13  C   UNL     1      45.209   3.702   9.378  0.00  0.00    +0.000 A 
ATOM     14  C   UNL     1      45.491   2.345   9.164  0.00  0.00    +0.000 A 
BRANCH   9  16
ATOM     15  N   UNL     1      46.737  -0.582   7.690  0.00  0.00    +0.000 NA
ATOM     16  C   UNL     1      46.511   0.546   7.843  0.00  0.00    +0.000 C 
ENDBRANCH   9  16
ENDBRANCH   8  13
ENDBRANCH   2   8
ENDBRANCH   1   5
BRANCH   1  17
ATOM     17  N   UNL     1      47.783   7.525  14.931  0.00  0.00    +0.000 N 
ATOM     18  C   UNL     1      49.049   7.012  15.052  0.00  0.00    +0.000 C 
ATOM     19  O   UNL     1      49.848   7.017  14.119  0.00  0.00    +0.000 OA
ATOM     20  H   UNL     1      47.085   7.285  15.628  0.00  0.00    +0.000 HD
BRANCH  18  21
ATOM     21  C   UNL     1      49.424   6.526  16.386  0.00  0.00    +0.000 A 
ATOM     22  C   UNL     1      50.428   7.165  17.103  0.00  0.00    +0.000 A 
ATOM     23  S   UNL     1      50.671   6.519  18.665  0.00  0.00    +0.000 S 
ATOM     24  C   UNL     1      49.488   5.323  18.414  0.00  0.00    +0.000 A 
ATOM     25  N   UNL     1      49.204   4.403  19.376  0.00  0.00    +0.000 NA
ATOM     26  C   UNL     1      48.315   3.531  19.036  0.00  0.00    +0.000 A 
ATOM     27  N   UNL     1      47.680   3.496  17.821  0.00  0.00    +0.000 N 
ATOM     28  C   UNL     1      47.902   4.429  16.838  0.00  0.00    +0.000 A 
ATOM     29  O   UNL     1      47.271   4.406  15.785  0.00  0.00    +0.000 OA
ATOM     30  C   UNL     1      48.906   5.423  17.163  0.00  0.00    +0.000 A 
ATOM     31  H   UNL     1      46.985   2.793  17.621  0.00  0.00    +0.000 HD
ENDBRANCH  18  21
ENDBRANCH   1  17
TORSDOF 6
ENDMDL
MODEL 2
REMARK VINA RESULT:    -7.595      2.190      3.763
REMARK INTER + INTRA:         -11.016
REMARK INTER:                  -9.871
REMARK INTRA:                  -1.145
REMARK UNBOUND:                -0.757
REMARK  Name = 
REMARK  6 active torsions:
REMARK  status: ('A' for Active; 'I' for Inactive)
REMARK    1  A    between atoms: C_2  and  C_3
REMARK    2  A    between atoms: C_7  and  C_8
REMARK    3  A    between atoms: C_8  and  C_9
REMARK    4  A    between atoms: C_12  and  C_13
REMARK    5  A    between atoms: C_13  and  N_14
REMARK    6  A    between atoms: C_15  and  C_17
REMARK                            x       y       z     vdW  Elec       q    Type
REMARK                         _______ _______ _______ _____ _____    ______ ____
ROOT
ATOM      1  C   UNL     1      46.851   5.084  14.653  0.00  0.00    +0.000 C 
ENDROOT
BRANCH   1   5
ATOM      2  C   UNL     1      45.034   4.556  10.823  0.00  0.00    +0.000 A 
ATOM      3  C   UNL     1      45.545   5.810  11.149  0.00  0.00    +0.000 A 
ATOM      4  C   UNL     1      46.141   5.996  12.398  0.00  0.00    +0.000 A 
ATOM      5  C   UNL     1      46.183   4.944  13.316  0.00  0.00    +0.000 A 
ATOM      6  C   UNL     1      45.616   3.739  12.917  0.00  0.00    +0.000 A 
ATOM      7  N   UNL     1      45.051   3.523  11.703  0.00  0.00    +0.000 NA
BRANCH   2   8
ATOM      8  C   UNL     1      44.496   4.278   9.433  0.00  0.00    +0.000 C 
BRANCH   8  13
ATOM      9  C   UNL     1      46.527   1.620   7.591  0.00  0.00    +0.000 A 
ATOM     10  C   UNL     1      47.309   2.401   6.735  0.00  0.00    +0.000 A 
ATOM     11  C   UNL     1      47.189   3.791   6.761  0.00  0.00    +0.000 A 
ATOM     12  C   UNL     1      46.281   4.401   7.632  0.00  0.00    +0.000 A 
ATOM     13  C   UNL     1      45.472   3.627   8.476  0.00  0.00    +0.000 A 
ATOM     14  C   UNL     1      45.617   2.232   8.460  0.00  0.00    +0.000 A 
BRANCH   9  16
ATOM     15  N   UNL     1      46.768  -0.965   7.593  0.00  0.00    +0.000 NA
ATOM     16  C   UNL     1      46.665   0.191   7.587  0.00  0.00    +0.000 C 
ENDBRANCH   9  16
ENDBRANCH   8  13
ENDBRANCH   2   8
ENDBRANCH   1   5
BRANCH   1  17
ATOM     17  N   UNL     1      47.601   6.318  14.742  0.00  0.00    +0.000 N 
ATOM     18  C   UNL     1      48.740   6.422  15.499  0.00  0.00    +0.000 C 
ATOM     19  O   UNL     1      49.196   5.470  16.129  0.00  0.00    +0.000 OA
ATOM     20  H   UNL     1      47.128   7.165  14.444  0.00  0.00    +0.000 HD
BRANCH  18  21
ATOM     21  C   UNL     1      49.431   7.717  15.452  0.00  0.00    +0.000 A 
ATOM     22  C   UNL     1      49.617   8.450  16.618  0.00  0.00    +0.000 A 
ATOM     23  S   UNL     1      50.510   9.886  16.388  0.00  0.00    +0.000 S 
ATOM     24  C   UNL     1      50.625   9.612  14.712  0.00  0.00    +0.000 A 
ATOM     25  N   UNL     1      51.265  10.494  13.899  0.00  0.00    +0.000 NA
ATOM     26  C   UNL     1      51.241  10.181  12.646  0.00  0.00    +0.000 A 
ATOM     27  N   UNL     1      50.638   9.062  12.133  0.00  0.00    +0.000 N 
ATOM     28  C   UNL     1      50.019   8.122  12.921  0.00  0.00    +0.000 A 
ATOM     29  O   UNL     1      49.544   7.099  12.435  0.00  0.00    +0.000 OA
ATOM     30  C   UNL     1      50.004   8.435  14.336  0.00  0.00    +0.000 A 
ATOM     31  H   UNL     1      50.664   8.868  11.144  0.00  0.00    +0.000 HD
ENDBRANCH  18  21
ENDBRANCH   1  17
TORSDOF 6
ENDMDL
MODEL 3
REMARK VINA RESULT:    -7.133      3.033      8.634
REMARK INTER + INTRA:         -10.392
REMARK INTER:                  -9.391
REMARK INTRA:                  -1.001
REMARK UNBOUND:                -0.757
REMARK  Name = 
REMARK  6 active torsions:
REMARK  status: ('A' for Active; 'I' for Inactive)
REMARK    1  A    between atoms: C_2  and  C_3
REMARK    2  A    between atoms: C_7  and  C_8
REMARK    3  A    between atoms: C_8  and  C_9
REMARK    4  A    between atoms: C_12  and  C_13
REMARK    5  A    between atoms: C_13  and  N_14
REMARK    6  A    between atoms: C_15  and  C_17
REMARK                            x       y       z     vdW  Elec       q    Type
REMARK                         _______ _______ _______ _____ _____    ______ ____
ROOT
ATOM      1  C   UNL     1      47.090   7.963  11.977  0.00  0.00    +0.000 C 
ENDROOT
BRANCH   1   5
ATOM      2  C   UNL     1      49.540   7.858  15.477  0.00  0.00    +0.000 A 
ATOM      3  C   UNL     1      48.517   8.801  15.409  0.00  0.00    +0.000 A 
ATOM      4  C   UNL     1      47.710   8.846  14.271  0.00  0.00    +0.000 A 
ATOM      5  C   UNL     1      47.957   7.981  13.203  0.00  0.00    +0.000 A 
ATOM      6  C   UNL     1      49.021   7.098  13.345  0.00  0.00    +0.000 A 
ATOM      7  N   UNL     1      49.808   7.016  14.447  0.00  0.00    +0.000 NA
BRANCH   2   8
ATOM      8  C   UNL     1      50.354   7.691  16.744  0.00  0.00    +0.000 C 
BRANCH   8  13
ATOM      9  C   UNL     1      48.396   4.768  18.230  0.00  0.00    +0.000 A 
ATOM     10  C   UNL     1      48.762   4.837  19.578  0.00  0.00    +0.000 A 
ATOM     11  C   UNL     1      49.632   5.837  20.010  0.00  0.00    +0.000 A 
ATOM     12  C   UNL     1      50.149   6.761  19.098  0.00  0.00    +0.000 A 
ATOM     13  C   UNL     1      49.812   6.686  17.739  0.00  0.00    +0.000 A 
ATOM     14  C   UNL     1      48.916   5.692  17.317  0.00  0.00    +0.000 A 
BRANCH   9  16
ATOM     15  N   UNL     1      46.732   2.949  17.418  0.00  0.00    +0.000 NA
ATOM     16  C   UNL     1      47.480   3.757  17.785  0.00  0.00    +0.000 C 
ENDBRANCH   9  16
ENDBRANCH   8  13
ENDBRANCH   2   8
ENDBRANCH   1   5
BRANCH   1  17
ATOM     17  N   UNL     1      46.492   6.661  11.774  0.00  0.00    +0.000 N 
ATOM     18  C   UNL     1      45.139   6.502  11.614  0.00  0.00    +0.000 C 
ATOM     19  O   UNL     1      44.364   7.455  11.618  0.00  0.00    +0.000 OA
ATOM     20  H   UNL     1      47.059   5.853  12.009  0.00  0.00    +0.000 HD
BRANCH  18  21
ATOM     21  C   UNL     1      44.676   5.132  11.359  0.00  0.00    +0.000 A 
ATOM     22  C   UNL     1      43.935   4.457  12.321  0.00  0.00    +0.000 A 
ATOM     23  S   UNL     1      43.412   2.911  11.821  0.00  0.00    +0.000 S 
ATOM     24  C   UNL     1      44.211   3.062  10.327  0.00  0.00    +0.000 A 
ATOM     25  N   UNL     1      44.181   2.059   9.409  0.00  0.00    +0.000 NA
ATOM     26  C   UNL     1      44.863   2.293   8.338  0.00  0.00    +0.000 A 
ATOM     27  N   UNL     1      45.571   3.442   8.099  0.00  0.00    +0.000 N 
ATOM     28  C   UNL     1      45.593   4.499   8.977  0.00  0.00    +0.000 A 
ATOM     29  O   UNL     1      46.186   5.539   8.704  0.00  0.00    +0.000 OA
ATOM     30  C   UNL     1      44.856   4.280  10.205  0.00  0.00    +0.000 A 
ATOM     31  H   UNL     1      46.075   3.569   7.235  0.00  0.00    +0.000 HD
ENDBRANCH  18  21
ENDBRANCH   1  17
TORSDOF 6
ENDMDL
MODEL 4
REMARK VINA RESULT:    -7.116      3.836      8.781
REMARK INTER + INTRA:         -10.369
REMARK INTER:                  -9.275
REMARK INTRA:                  -1.094
REMARK UNBOUND:                -0.757
REMARK  Name = 
REMARK  6 active torsions:
REMARK  status: ('A' for Active; 'I' for Inactive)
REMARK    1  A    between atoms: C_2  and  C_3
REMARK    2  A    between atoms: C_7  and  C_8
REMARK    3  A    between atoms: C_8  and  C_9
REMARK    4  A    between atoms: C_12  and  C_13
REMARK    5  A    between atoms: C_13  and  N_14
REMARK    6  A    between atoms: C_15  and  C_17
REMARK                            x       y       z     vdW  Elec       q    Type
REMARK                         _______ _______ _______ _____ _____    ______ ____
ROOT
ATOM      1  C   UNL     1      47.134   3.338  16.886  0.00  0.00    +0.000 C 
ENDROOT
BRANCH   1   5
ATOM      2  C   UNL     1      51.118   4.010  18.278  0.00  0.00    +0.000 A 
ATOM      3  C   UNL     1      50.865   2.879  17.505  0.00  0.00    +0.000 A 
ATOM      4  C   UNL     1      49.568   2.647  17.044  0.00  0.00    +0.000 A 
ATOM      5  C   UNL     1      48.536   3.521  17.392  0.00  0.00    +0.000 A 
ATOM      6  C   UNL     1      48.874   4.604  18.196  0.00  0.00    +0.000 A 
ATOM      7  N   UNL     1      50.129   4.866  18.640  0.00  0.00    +0.000 NA
BRANCH   2   8
ATOM      8  C   UNL     1      52.533   4.366  18.688  0.00  0.00    +0.000 C 
BRANCH   8  13
ATOM      9  C   UNL     1      53.710   6.545  15.781  0.00  0.00    +0.000 A 
ATOM     10  C   UNL     1      54.982   6.021  15.530  0.00  0.00    +0.000 A 
ATOM     11  C   UNL     1      55.455   4.953  16.291  0.00  0.00    +0.000 A 
ATOM     12  C   UNL     1      54.667   4.416  17.313  0.00  0.00    +0.000 A 
ATOM     13  C   UNL     1      53.401   4.950  17.594  0.00  0.00    +0.000 A 
ATOM     14  C   UNL     1      52.923   6.008  16.806  0.00  0.00    +0.000 A 
BRANCH   9  16
ATOM     15  N   UNL     1      52.814   8.506  14.336  0.00  0.00    +0.000 NA
ATOM     16  C   UNL     1      53.208   7.627  14.983  0.00  0.00    +0.000 C 
ENDBRANCH   9  16
ENDBRANCH   8  13
ENDBRANCH   2   8
ENDBRANCH   1   5
BRANCH   1  17
ATOM     17  N   UNL     1      46.788   4.352  15.913  0.00  0.00    +0.000 N 
ATOM     18  C   UNL     1      46.893   4.128  14.564  0.00  0.00    +0.000 C 
ATOM     19  O   UNL     1      47.271   3.052  14.107  0.00  0.00    +0.000 OA
ATOM     20  H   UNL     1      46.714   5.305  16.251  0.00  0.00    +0.000 HD
BRANCH  18  21
ATOM     21  C   UNL     1      46.453   5.225  13.692  0.00  0.00    +0.000 A 
ATOM     22  C   UNL     1      47.282   6.320  13.479  0.00  0.00    +0.000 A 
ATOM     23  S   UNL     1      46.644   7.456  12.375  0.00  0.00    +0.000 S 
ATOM     24  C   UNL     1      45.212   6.557  12.191  0.00  0.00    +0.000 A 
ATOM     25  N   UNL     1      44.210   6.989  11.380  0.00  0.00    +0.000 NA
ATOM     26  C   UNL     1      43.166   6.230  11.367  0.00  0.00    +0.000 A 
ATOM     27  N   UNL     1      43.033   5.073  12.091  0.00  0.00    +0.000 N 
ATOM     28  C   UNL     1      44.036   4.575  12.888  0.00  0.00    +0.000 A 
ATOM     29  O   UNL     1      43.908   3.503  13.474  0.00  0.00    +0.000 OA
ATOM     30  C   UNL     1      45.225   5.400  12.951  0.00  0.00    +0.000 A 
ATOM     31  H   UNL     1      42.194   4.517  12.028  0.00  0.00    +0.000 HD
ENDBRANCH  18  21
ENDBRANCH   1  17
TORSDOF 6
ENDMDL
MODEL 5
REMARK VINA RESULT:    -7.032      4.282      9.277
REMARK INTER + INTRA:         -10.255
REMARK INTER:                  -9.507
REMARK INTRA:                  -0.749
REMARK UNBOUND:                -0.757
REMARK  Name = 
REMARK  6 active torsions:
REMARK  status: ('A' for Active; 'I' for Inactive)
REMARK    1  A    between atoms: C_2  and  C_3
REMARK    2  A    between atoms: C_7  and  C_8
REMARK    3  A    between atoms: C_8  and  C_9
REMARK    4  A    between atoms: C_12  and  C_13
REMARK    5  A    between atoms: C_13  and  N_14
REMARK    6  A    between atoms: C_15  and  C_17
REMARK                            x       y       z     vdW  Elec       q    Type
REMARK                         _______ _______ _______ _____ _____    ______ ____
ROOT
ATOM      1  C   UNL     1      47.212   3.434  16.792  0.00  0.00    +0.000 C 
ENDROOT
BRANCH   1   5
ATOM      2  C   UNL     1      51.359   4.020  17.639  0.00  0.00    +0.000 A 
ATOM      3  C   UNL     1      50.899   2.721  17.437  0.00  0.00    +0.000 A 
ATOM      4  C   UNL     1      49.546   2.516  17.160  0.00  0.00    +0.000 A 
ATOM      5  C   UNL     1      48.667   3.600  17.128  0.00  0.00    +0.000 A 
ATOM      6  C   UNL     1      49.209   4.856  17.376  0.00  0.00    +0.000 A 
ATOM      7  N   UNL     1      50.522   5.088  17.626  0.00  0.00    +0.000 NA
BRANCH   2   8
ATOM      8  C   UNL     1      52.839   4.297  17.813  0.00  0.00    +0.000 C 
BRANCH   8  13
ATOM      9  C   UNL     1      54.857   1.059  17.990  0.00  0.00    +0.000 A 
ATOM     10  C   UNL     1      55.142   0.976  19.356  0.00  0.00    +0.000 A 
ATOM     11  C   UNL     1      54.671   1.961  20.224  0.00  0.00    +0.000 A 
ATOM     12  C   UNL     1      53.926   3.036  19.730  0.00  0.00    +0.000 A 
ATOM     13  C   UNL     1      53.657   3.145  18.357  0.00  0.00    +0.000 A 
ATOM     14  C   UNL     1      54.114   2.137  17.496  0.00  0.00    +0.000 A 
BRANCH   9  16
ATOM     15  N   UNL     1      55.677  -0.795  16.370  0.00  0.00    +0.000 NA
ATOM     16  C   UNL     1      55.318   0.035  17.096  0.00  0.00    +0.000 C 
ENDBRANCH   9  16
ENDBRANCH   8  13
ENDBRANCH   2   8
ENDBRANCH   1   5
BRANCH   1  17
ATOM     17  N   UNL     1      46.779   4.418  15.823  0.00  0.00    +0.000 N 
ATOM     18  C   UNL     1      46.823   4.174  14.474  0.00  0.00    +0.000 C 
ATOM     19  O   UNL     1      47.216   3.105  14.015  0.00  0.00    +0.000 OA
ATOM     20  H   UNL     1      46.687   5.374  16.150  0.00  0.00    +0.000 HD
BRANCH  18  21
ATOM     21  C   UNL     1      46.298   5.239  13.610  0.00  0.00    +0.000 A 
ATOM     22  C   UNL     1      47.058   6.378  13.369  0.00  0.00    +0.000 A 
ATOM     23  S   UNL     1      46.328   7.469  12.277  0.00  0.00    +0.000 S 
ATOM     24  C   UNL     1      44.944   6.489  12.137  0.00  0.00    +0.000 A 
ATOM     25  N   UNL     1      43.898   6.859  11.350  0.00  0.00    +0.000 NA
ATOM     26  C   UNL     1      42.899   6.042  11.369  0.00  0.00    +0.000 A 
ATOM     27  N   UNL     1      42.852   4.884  12.101  0.00  0.00    +0.000 N 
ATOM     28  C   UNL     1      43.901   4.448  12.874  0.00  0.00    +0.000 A 
ATOM     29  O   UNL     1      43.850   3.374  13.468  0.00  0.00    +0.000 OA
ATOM     30  C   UNL     1      45.043   5.340  12.900  0.00  0.00    +0.000 A 
ATOM     31  H   UNL     1      42.044   4.281  12.064  0.00  0.00    +0.000 HD
ENDBRANCH  18  21
ENDBRANCH   1  17
TORSDOF 6
ENDMDL
MODEL 6
REMARK VINA RESULT:    -6.995      1.608      2.259
REMARK INTER + INTRA:         -10.205
REMARK INTER:                  -9.123
REMARK INTRA:                  -1.082
REMARK UNBOUND:                -0.757
REMARK  Name = 
REMARK  6 active torsions:
REMARK  status: ('A' for Active; 'I' for Inactive)
REMARK    1  A    between atoms: C_2  and  C_3
REMARK    2  A    between atoms: C_7  and  C_8
REMARK    3  A    between atoms: C_8  and  C_9
REMARK    4  A    between atoms: C_12  and  C_13
REMARK    5  A    between atoms: C_13  and  N_14
REMARK    6  A    between atoms: C_15  and  C_17
REMARK                            x       y       z     vdW  Elec       q    Type
REMARK                         _______ _______ _______ _____ _____    ______ ____
ROOT
ATOM      1  C   UNL     1      48.956   8.510  13.766  0.00  0.00    +0.000 C 
ENDROOT
BRANCH   1   5
ATOM      2  C   UNL     1      45.617   6.814  11.709  0.00  0.00    +0.000 A 
ATOM      3  C   UNL     1      46.742   6.019  11.921  0.00  0.00    +0.000 A 
ATOM      4  C   UNL     1      47.840   6.562  12.591  0.00  0.00    +0.000 A 
ATOM      5  C   UNL     1      47.817   7.895  13.005  0.00  0.00    +0.000 A 
ATOM      6  C   UNL     1      46.667   8.622  12.719  0.00  0.00    +0.000 A 
ATOM      7  N   UNL     1      45.577   8.116  12.090  0.00  0.00    +0.000 NA
BRANCH   2   8
ATOM      8  C   UNL     1      44.359   6.226  11.102  0.00  0.00    +0.000 C 
BRANCH   8  13
ATOM      9  C   UNL     1      45.363   3.560   8.558  0.00  0.00    +0.000 A 
ATOM     10  C   UNL     1      44.820   2.405   9.128  0.00  0.00    +0.000 A 
ATOM     11  C   UNL     1      44.117   2.489  10.329  0.00  0.00    +0.000 A 
ATOM     12  C   UNL     1      43.966   3.721  10.970  0.00  0.00    +0.000 A 
ATOM     13  C   UNL     1      44.529   4.883  10.423  0.00  0.00    +0.000 A 
ATOM     14  C   UNL     1      45.213   4.794   9.202  0.00  0.00    +0.000 A 
BRANCH   9  16
ATOM     15  N   UNL     1      46.620   3.419   6.291  0.00  0.00    +0.000 NA
ATOM     16  C   UNL     1      46.064   3.484   7.308  0.00  0.00    +0.000 C 
ENDBRANCH   9  16
ENDBRANCH   8  13
ENDBRANCH   2   8
ENDBRANCH   1   5
BRANCH   1  17
ATOM     17  N   UNL     1      49.211   7.798  15.001  0.00  0.00    +0.000 N 
ATOM     18  C   UNL     1      48.685   8.212  16.198  0.00  0.00    +0.000 C 
ATOM     19  O   UNL     1      47.957   9.198  16.287  0.00  0.00    +0.000 OA
ATOM     20  H   UNL     1      49.987   7.145  15.002  0.00  0.00    +0.000 HD
BRANCH  18  21
ATOM     21  C   UNL     1      48.978   7.362  17.359  0.00  0.00    +0.000 A 
ATOM     22  C   UNL     1      49.536   7.917  18.505  0.00  0.00    +0.000 A 
ATOM     23  S   UNL     1      49.730   6.800  19.781  0.00  0.00    +0.000 S 
ATOM     24  C   UNL     1      49.135   5.522  18.827  0.00  0.00    +0.000 A 
ATOM     25  N   UNL     1      49.052   4.257  19.321  0.00  0.00    +0.000 NA
ATOM     26  C   UNL     1      48.621   3.381  18.475  0.00  0.00    +0.000 A 
ATOM     27  N   UNL     1      48.262   3.655  17.181  0.00  0.00    +0.000 N 
ATOM     28  C   UNL     1      48.288   4.924  16.654  0.00  0.00    +0.000 A 
ATOM     29  O   UNL     1      47.900   5.145  15.510  0.00  0.00    +0.000 OA
ATOM     30  C   UNL     1      48.781   5.944  17.559  0.00  0.00    +0.000 A 
ATOM     31  H   UNL     1      47.922   2.926  16.573  0.00  0.00    +0.000 HD
ENDBRANCH  18  21
ENDBRANCH   1  17
TORSDOF 6
ENDMDL
MODEL 7
REMARK VINA RESULT:    -6.962      5.127      7.713
REMARK INTER + INTRA:         -10.161
REMARK INTER:                  -9.170
REMARK INTRA:                  -0.990
REMARK UNBOUND:                -0.757
REMARK  Name = 
REMARK  6 active torsions:
REMARK  status: ('A' for Active; 'I' for Inactive)
REMARK    1  A    between atoms: C_2  and  C_3
REMARK    2  A    between atoms: C_7  and  C_8
REMARK    3  A    between atoms: C_8  and  C_9
REMARK    4  A    between atoms: C_12  and  C_13
REMARK    5  A    between atoms: C_13  and  N_14
REMARK    6  A    between atoms: C_15  and  C_17
REMARK                            x       y       z     vdW  Elec       q    Type
REMARK                         _______ _______ _______ _____ _____    ______ ____
ROOT
ATOM      1  C   UNL     1      46.478   8.105  12.801  0.00  0.00    +0.000 C 
ENDROOT
BRANCH   1   5
ATOM      2  C   UNL     1      50.549   8.558  11.587  0.00  0.00    +0.000 A 
ATOM      3  C   UNL     1      49.686   9.641  11.439  0.00  0.00    +0.000 A 
ATOM      4  C   UNL     1      48.353   9.506  11.831  0.00  0.00    +0.000 A 
ATOM      5  C   UNL     1      47.891   8.285  12.327  0.00  0.00    +0.000 A 
ATOM      6  C   UNL     1      48.814   7.249  12.406  0.00  0.00    +0.000 A 
ATOM      7  N   UNL     1      50.120   7.358  12.054  0.00  0.00    +0.000 NA
BRANCH   2   8
ATOM      8  C   UNL     1      52.029   8.703  11.295  0.00  0.00    +0.000 C 
BRANCH   8  13
ATOM      9  C   UNL     1      52.843   7.264   7.851  0.00  0.00    +0.000 A 
ATOM     10  C   UNL     1      53.172   8.416   7.132  0.00  0.00    +0.000 A 
ATOM     11  C   UNL     1      53.143   9.660   7.763  0.00  0.00    +0.000 A 
ATOM     12  C   UNL     1      52.775   9.756   9.108  0.00  0.00    +0.000 A 
ATOM     13  C   UNL     1      52.416   8.611   9.833  0.00  0.00    +0.000 A 
ATOM     14  C   UNL     1      52.471   7.362   9.197  0.00  0.00    +0.000 A 
BRANCH   9  16
ATOM     15  N   UNL     1      52.928   4.944   6.690  0.00  0.00    +0.000 NA
ATOM     16  C   UNL     1      52.896   5.979   7.214  0.00  0.00    +0.000 C 
ENDBRANCH   9  16
ENDBRANCH   8  13
ENDBRANCH   2   8
ENDBRANCH   1   5
BRANCH   1  17
ATOM     17  N   UNL     1      45.987   6.776  12.502  0.00  0.00    +0.000 N 
ATOM     18  C   UNL     1      44.865   6.572  11.740  0.00  0.00    +0.000 C 
ATOM     19  O   UNL     1      44.226   7.503  11.255  0.00  0.00    +0.000 OA
ATOM     20  H   UNL     1      46.337   6.017  13.078  0.00  0.00    +0.000 HD
BRANCH  18  21
ATOM     21  C   UNL     1      44.516   5.172  11.469  0.00  0.00    +0.000 A 
ATOM     22  C   UNL     1      43.784   4.445  12.400  0.00  0.00    +0.000 A 
ATOM     23  S   UNL     1      43.398   2.864  11.883  0.00  0.00    +0.000 S 
ATOM     24  C   UNL     1      44.248   3.074  10.424  0.00  0.00    +0.000 A 
ATOM     25  N   UNL     1      44.332   2.071   9.510  0.00  0.00    +0.000 NA
ATOM     26  C   UNL     1      45.041   2.354   8.469  0.00  0.00    +0.000 A 
ATOM     27  N   UNL     1      45.673   3.552   8.257  0.00  0.00    +0.000 N 
ATOM     28  C   UNL     1      45.580   4.608   9.132  0.00  0.00    +0.000 A 
ATOM     29  O   UNL     1      46.106   5.688   8.882  0.00  0.00    +0.000 OA
ATOM     30  C   UNL     1      44.807   4.335  10.327  0.00  0.00    +0.000 A 
ATOM     31  H   UNL     1      46.205   3.715   7.415  0.00  0.00    +0.000 HD
ENDBRANCH  18  21
ENDBRANCH   1  17
TORSDOF 6
ENDMDL
MODEL 8
REMARK VINA RESULT:    -6.431      3.967      8.746
REMARK INTER + INTRA:          -9.443
REMARK INTER:                  -8.152
REMARK INTRA:                  -1.291
REMARK UNBOUND:                -0.757
REMARK  Name = 
REMARK  6 active torsions:
REMARK  status: ('A' for Active; 'I' for Inactive)
REMARK    1  A    between atoms: C_2  and  C_3
REMARK    2  A    between atoms: C_7  and  C_8
REMARK    3  A    between atoms: C_8  and  C_9
REMARK    4  A    between atoms: C_12  and  C_13
REMARK    5  A    between atoms: C_13  and  N_14
REMARK    6  A    between atoms: C_15  and  C_17
REMARK                            x       y       z     vdW  Elec       q    Type
REMARK                         _______ _______ _______ _____ _____    ______ ____
ROOT
ATOM      1  C   UNL     1      47.514   3.385  16.724  0.00  0.00    +0.000 C 
ENDROOT
BRANCH   1   5
ATOM      2  C   UNL     1      51.314   4.787  18.087  0.00  0.00    +0.000 A 
ATOM      3  C   UNL     1      51.152   3.423  17.854  0.00  0.00    +0.000 A 
ATOM      4  C   UNL     1      49.915   2.952  17.409  0.00  0.00    +0.000 A 
ATOM      5  C   UNL     1      48.849   3.838  17.241  0.00  0.00    +0.000 A 
ATOM      6  C   UNL     1      49.093   5.175  17.532  0.00  0.00    +0.000 A 
ATOM      7  N   UNL     1      50.289   5.665  17.944  0.00  0.00    +0.000 NA
BRANCH   2   8
ATOM      8  C   UNL     1      52.673   5.354  18.446  0.00  0.00    +0.000 C 
BRANCH   8  13
ATOM      9  C   UNL     1      54.409   6.476  15.234  0.00  0.00    +0.000 A 
ATOM     10  C   UNL     1      55.476   5.575  15.158  0.00  0.00    +0.000 A 
ATOM     11  C   UNL     1      55.627   4.595  16.139  0.00  0.00    +0.000 A 
ATOM     12  C   UNL     1      54.723   4.520  17.203  0.00  0.00    +0.000 A 
ATOM     13  C   UNL     1      53.666   5.435  17.305  0.00  0.00    +0.000 A 
ATOM     14  C   UNL     1      53.507   6.402  16.302  0.00  0.00    +0.000 A 
BRANCH   9  16
ATOM     15  N   UNL     1      54.083   8.266  13.384  0.00  0.00    +0.000 NA
ATOM     16  C   UNL     1      54.234   7.469  14.214  0.00  0.00    +0.000 C 
ENDBRANCH   9  16
ENDBRANCH   8  13
ENDBRANCH   2   8
ENDBRANCH   1   5
BRANCH   1  17
ATOM     17  N   UNL     1      46.970   4.330  15.772  0.00  0.00    +0.000 N 
ATOM     18  C   UNL     1      46.853   4.030  14.439  0.00  0.00    +0.000 C 
ATOM     19  O   UNL     1      47.187   2.939  13.982  0.00  0.00    +0.000 OA
ATOM     20  H   UNL     1      46.918   5.300  16.066  0.00  0.00    +0.000 HD
BRANCH  18  21
ATOM     21  C   UNL     1      46.230   5.061  13.598  0.00  0.00    +0.000 A 
ATOM     22  C   UNL     1      44.977   4.839  13.040  0.00  0.00    +0.000 A 
ATOM     23  S   UNL     1      44.373   6.175  12.164  0.00  0.00    +0.000 S 
ATOM     24  C   UNL     1      45.791   7.072  12.447  0.00  0.00    +0.000 A 
ATOM     25  N   UNL     1      45.940   8.327  11.944  0.00  0.00    +0.000 NA
ATOM     26  C   UNL     1      47.080   8.874  12.202  0.00  0.00    +0.000 A 
ATOM     27  N   UNL     1      48.087   8.282  12.920  0.00  0.00    +0.000 N 
ATOM     28  C   UNL     1      47.964   7.034  13.484  0.00  0.00    +0.000 A 
ATOM     29  O   UNL     1      48.860   6.558  14.174  0.00  0.00    +0.000 OA
ATOM     30  C   UNL     1      46.706   6.369  13.209  0.00  0.00    +0.000 A 
ATOM     31  H   UNL     1      48.952   8.768  13.097  0.00  0.00    +0.000 HD
ENDBRANCH  18  21
ENDBRANCH   1  17
TORSDOF 6
ENDMDL
MODEL 9
REMARK VINA RESULT:    -6.080      4.860      7.252
REMARK INTER + INTRA:          -8.969
REMARK INTER:                  -8.810
REMARK INTRA:                  -0.159
REMARK UNBOUND:                -0.757
REMARK  Name = 
REMARK  6 active torsions:
REMARK  status: ('A' for Active; 'I' for Inactive)
REMARK    1  A    between atoms: C_2  and  C_3
REMARK    2  A    between atoms: C_7  and  C_8
REMARK    3  A    between atoms: C_8  and  C_9
REMARK    4  A    between atoms: C_12  and  C_13
REMARK    5  A    between atoms: C_13  and  N_14
REMARK    6  A    between atoms: C_15  and  C_17
REMARK                            x       y       z     vdW  Elec       q    Type
REMARK                         _______ _______ _______ _____ _____    ______ ____
ROOT
ATOM      1  C   UNL     1      48.729   7.532  14.793  0.00  0.00    +0.000 C 
ENDROOT
BRANCH   1   5
ATOM      2  C   UNL     1      51.984   8.537  12.214  0.00  0.00    +0.000 A 
ATOM      3  C   UNL     1      52.205   8.522  13.589  0.00  0.00    +0.000 A 
ATOM      4  C   UNL     1      51.150   8.196  14.442  0.00  0.00    +0.000 A 
ATOM      5  C   UNL     1      49.884   7.929  13.918  0.00  0.00    +0.000 A 
ATOM      6  C   UNL     1      49.748   8.002  12.537  0.00  0.00    +0.000 A 
ATOM      7  N   UNL     1      50.759   8.295  11.682  0.00  0.00    +0.000 NA
BRANCH   2   8
ATOM      8  C   UNL     1      53.132   8.759  11.248  0.00  0.00    +0.000 C 
BRANCH   8  13
ATOM      9  C   UNL     1      53.740   5.870   8.826  0.00  0.00    +0.000 A 
ATOM     10  C   UNL     1      54.749   5.158   9.481  0.00  0.00    +0.000 A 
ATOM     11  C   UNL     1      55.225   5.604  10.714  0.00  0.00    +0.000 A 
ATOM     12  C   UNL     1      54.705   6.767  11.288  0.00  0.00    +0.000 A 
ATOM     13  C   UNL     1      53.712   7.506  10.628  0.00  0.00    +0.000 A 
ATOM     14  C   UNL     1      53.223   7.036   9.401  0.00  0.00    +0.000 A 
BRANCH   9  16
ATOM     15  N   UNL     1      52.820   5.010   6.556  0.00  0.00    +0.000 NA
ATOM     16  C   UNL     1      53.229   5.401   7.570  0.00  0.00    +0.000 C 
ENDBRANCH   9  16
ENDBRANCH   8  13
ENDBRANCH   2   8
ENDBRANCH   1   5
BRANCH   1  17
ATOM     17  N   UNL     1      47.536   7.286  14.011  0.00  0.00    +0.000 N 
ATOM     18  C   UNL     1      47.189   6.027  13.593  0.00  0.00    +0.000 C 
ATOM     19  O   UNL     1      47.862   5.037  13.872  0.00  0.00    +0.000 OA
ATOM     20  H   UNL     1      47.106   8.090  13.566  0.00  0.00    +0.000 HD
BRANCH  18  21
ATOM     21  C   UNL     1      45.923   5.918  12.858  0.00  0.00    +0.000 A 
ATOM     22  C   UNL     1      45.278   7.064  12.408  0.00  0.00    +0.000 A 
ATOM     23  S   UNL     1      43.867   6.744  11.502  0.00  0.00    +0.000 S 
ATOM     24  C   UNL     1      44.032   5.066  11.733  0.00  0.00    +0.000 A 
ATOM     25  N   UNL     1      43.124   4.193  11.219  0.00  0.00    +0.000 NA
ATOM     26  C   UNL     1      43.351   2.955  11.505  0.00  0.00    +0.000 A 
ATOM     27  N   UNL     1      44.408   2.508  12.256  0.00  0.00    +0.000 N 
ATOM     28  C   UNL     1      45.373   3.349  12.757  0.00  0.00    +0.000 A 
ATOM     29  O   UNL     1      46.340   2.909  13.373  0.00  0.00    +0.000 OA
ATOM     30  C   UNL     1      45.155   4.753  12.478  0.00  0.00    +0.000 A 
ATOM     31  H   UNL     1      44.536   1.524  12.435  0.00  0.00    +0.000 HD
ENDBRANCH  18  21
ENDBRANCH   1  17
TORSDOF 6
ENDMDL
