MODEL 1
REMARK VINA RESULT:    -8.518      0.000      0.000
REMARK INTER + INTRA:         -13.537
REMARK INTER:                 -12.502
REMARK INTRA:                  -1.035
REMARK UNBOUND:                -1.035
REMARK  Name = 
REMARK  8 active torsions:
REMARK  status: ('A' for Active; 'I' for Inactive)
REMARK    1  A    between atoms: C_2  and  C_3
REMARK    2  A    between atoms: C_6  and  C_7
REMARK    3  A    between atoms: C_7  and  N_8
REMARK    4  A    between atoms: N_8  and  C_9
REMARK    5  A    between atoms: C_9  and  C_10
REMARK    6  A    between atoms: C_13  and  C_14
REMARK    7  A    between atoms: C_14  and  N_15
REMARK    8  A    between atoms: C_16  and  C_18
REMARK                            x       y       z     vdW  Elec       q    Type
REMARK                         _______ _______ _______ _____ _____    ______ ____
ROOT
ATOM      1  C   UNL     1      44.628   6.012  11.979  0.00  0.00    +0.000 A 
ATOM      2  C   UNL     1      44.908   5.343  13.182  0.00  0.00    +0.000 A 
ATOM      3  C   UNL     1      46.145   5.492  13.817  0.00  0.00    +0.000 A 
ATOM      4  C   UNL     1      47.133   6.310  13.260  0.00  0.00    +0.000 A 
ATOM      5  C   UNL     1      46.878   6.935  12.031  0.00  0.00    +0.000 A 
ATOM      6  C   UNL     1      45.633   6.801  11.404  0.00  0.00    +0.000 A 
ENDROOT
BRANCH   1   7
ATOM      7  C   UNL     1      43.269   5.871  11.325  0.00  0.00    +0.000 C 
BRANCH   7   8
ATOM      8  N   UNL     1      43.379   5.129  10.072  0.00  0.00    +0.000 NA
ATOM      9  H   UNL     1      42.473   5.127   9.608  0.00  0.00    +0.000 HD
BRANCH   8  10
ATOM     10  C   UNL     1      43.765   3.732  10.286  0.00  0.00    +0.000 C 
BRANCH  10  14
ATOM     11  C   UNL     1      46.696   2.523   7.426  0.00  0.00    +0.000 A 
ATOM     12  C   UNL     1      46.409   3.880   7.561  0.00  0.00    +0.000 A 
ATOM     13  C   UNL     1      45.478   4.286   8.516  0.00  0.00    +0.000 A 
ATOM     14  C   UNL     1      44.849   3.321   9.305  0.00  0.00    +0.000 A 
ATOM     15  N   UNL     1      45.120   1.996   9.185  0.00  0.00    +0.000 NA
ATOM     16  C   UNL     1      46.037   1.631   8.256  0.00  0.00    +0.000 A 
BRANCH  11  18
ATOM     17  N   UNL     1      48.392   1.672   5.663  0.00  0.00    +0.000 NA
ATOM     18  C   UNL     1      47.632   2.055   6.455  0.00  0.00    +0.000 C 
ENDBRANCH  11  18
ENDBRANCH  10  14
ENDBRANCH   8  10
ENDBRANCH   7   8
ENDBRANCH   1   7
BRANCH   4  19
ATOM     19  C   UNL     1      48.456   6.503  13.956  0.00  0.00    +0.000 C 
BRANCH  19  20
ATOM     20  N   UNL     1      48.280   6.726  15.367  0.00  0.00    +0.000 N 
ATOM     21  C   UNL     1      49.331   6.635  16.243  0.00  0.00    +0.000 C 
ATOM     22  O   UNL     1      50.478   6.404  15.871  0.00  0.00    +0.000 OA
ATOM     23  H   UNL     1      47.332   6.670  15.721  0.00  0.00    +0.000 HD
BRANCH  21  24
ATOM     24  C   UNL     1      49.017   6.893  17.652  0.00  0.00    +0.000 A 
ATOM     25  C   UNL     1      48.890   8.199  18.110  0.00  0.00    +0.000 A 
ATOM     26  S   UNL     1      48.490   8.304  19.765  0.00  0.00    +0.000 S 
ATOM     27  C   UNL     1      48.513   6.610  19.937  0.00  0.00    +0.000 A 
ATOM     28  N   UNL     1      48.272   6.022  21.139  0.00  0.00    +0.000 NA
ATOM     29  C   UNL     1      48.341   4.732  21.126  0.00  0.00    +0.000 A 
ATOM     30  N   UNL     1      48.620   3.976  20.019  0.00  0.00    +0.000 N 
ATOM     31  C   UNL     1      48.850   4.523  18.780  0.00  0.00    +0.000 A 
ATOM     32  O   UNL     1      49.053   3.816  17.799  0.00  0.00    +0.000 OA
ATOM     33  C   UNL     1      48.799   5.972  18.743  0.00  0.00    +0.000 A 
ATOM     34  H   UNL     1      48.641   2.968  20.066  0.00  0.00    +0.000 HD
ENDBRANCH  21  24
ENDBRANCH  19  20
ENDBRANCH   4  19
TORSDOF 8
ENDMDL
MODEL 2
REMARK VINA RESULT:    -8.018      2.542      3.133
REMARK INTER + INTRA:         -12.803
REMARK INTER:                 -12.109
REMARK INTRA:                  -0.694
REMARK UNBOUND:                -1.035
REMARK  Name = 
REMARK  8 active torsions:
REMARK  status: ('A' for Active; 'I' for Inactive)
REMARK    1  A    between atoms: C_2  and  C_3
REMARK    2  A    between atoms: C_6  and  C_7
REMARK    3  A    between atoms: C_7  and  N_8
REMARK    4  A    between atoms: N_8  and  C_9
REMARK    5  A    between atoms: C_9  and  C_10
REMARK    6  A    between atoms: C_13  and  C_14
REMARK    7  A    between atoms: C_14  and  N_15
REMARK    8  A    between atoms: C_16  and  C_18
REMARK                            x       y       z     vdW  Elec       q    Type
REMARK                         _______ _______ _______ _____ _____    ______ ____
ROOT
ATOM      1  C   UNL     1      46.283   4.902  12.874  0.00  0.00    +0.000 A 
ATOM      2  C   UNL     1      46.563   4.359  14.138  0.00  0.00    +0.000 A 
ATOM      3  C   UNL     1      47.413   5.017  15.031  0.00  0.00    +0.000 A 
ATOM      4  C   UNL     1      48.008   6.233  14.678  0.00  0.00    +0.000 A 
ATOM      5  C   UNL     1      47.775   6.750  13.397  0.00  0.00    +0.000 A 
ATOM      6  C   UNL     1      46.910   6.101  12.508  0.00  0.00    +0.000 A 
ENDROOT
BRANCH   1   7
ATOM      7  C   UNL     1      45.329   4.195  11.932  0.00  0.00    +0.000 C 
BRANCH   7   8
ATOM      8  N   UNL     1      44.401   5.150  11.334  0.00  0.00    +0.000 NA
ATOM      9  H   UNL     1      43.706   5.418  12.030  0.00  0.00    +0.000 HD
BRANCH   8  10
ATOM     10  C   UNL     1      43.679   4.583  10.192  0.00  0.00    +0.000 C 
BRANCH  10  14
ATOM     11  C   UNL     1      46.489   2.557   7.695  0.00  0.00    +0.000 A 
ATOM     12  C   UNL     1      45.700   1.807   8.565  0.00  0.00    +0.000 A 
ATOM     13  C   UNL     1      44.757   2.457   9.359  0.00  0.00    +0.000 A 
ATOM     14  C   UNL     1      44.634   3.845   9.271  0.00  0.00    +0.000 A 
ATOM     15  N   UNL     1      45.394   4.588   8.427  0.00  0.00    +0.000 NA
ATOM     16  C   UNL     1      46.296   3.929   7.659  0.00  0.00    +0.000 A 
BRANCH  11  18
ATOM     17  N   UNL     1      48.283   1.443   6.196  0.00  0.00    +0.000 NA
ATOM     18  C   UNL     1      47.478   1.942   6.870  0.00  0.00    +0.000 C 
ENDBRANCH  11  18
ENDBRANCH  10  14
ENDBRANCH   8  10
ENDBRANCH   7   8
ENDBRANCH   1   7
BRANCH   4  19
ATOM     19  C   UNL     1      48.897   6.966  15.650  0.00  0.00    +0.000 C 
BRANCH  19  20
ATOM     20  N   UNL     1      49.919   6.104  16.181  0.00  0.00    +0.000 N 
ATOM     21  C   UNL     1      50.035   5.877  17.529  0.00  0.00    +0.000 C 
ATOM     22  O   UNL     1      49.254   6.358  18.345  0.00  0.00    +0.000 OA
ATOM     23  H   UNL     1      50.705   5.902  15.574  0.00  0.00    +0.000 HD
BRANCH  21  24
ATOM     24  C   UNL     1      51.114   4.971  17.937  0.00  0.00    +0.000 A 
ATOM     25  C   UNL     1      52.226   5.469  18.603  0.00  0.00    +0.000 A 
ATOM     26  S   UNL     1      53.360   4.266  19.029  0.00  0.00    +0.000 S 
ATOM     27  C   UNL     1      52.421   3.045  18.302  0.00  0.00    +0.000 A 
ATOM     28  N   UNL     1      52.839   1.751  18.288  0.00  0.00    +0.000 NA
ATOM     29  C   UNL     1      52.037   0.937  17.687  0.00  0.00    +0.000 A 
ATOM     30  N   UNL     1      50.851   1.296  17.104  0.00  0.00    +0.000 N 
ATOM     31  C   UNL     1      50.378   2.585  17.111  0.00  0.00    +0.000 A 
ATOM     32  O   UNL     1      49.289   2.866  16.621  0.00  0.00    +0.000 OA
ATOM     33  C   UNL     1      51.249   3.544  17.762  0.00  0.00    +0.000 A 
ATOM     34  H   UNL     1      50.255   0.610  16.666  0.00  0.00    +0.000 HD
ENDBRANCH  21  24
ENDBRANCH  19  20
ENDBRANCH   4  19
TORSDOF 8
ENDMDL
MODEL 3
REMARK VINA RESULT:    -7.740      2.142      2.413
REMARK INTER + INTRA:         -12.395
REMARK INTER:                 -11.269
REMARK INTRA:                  -1.126
REMARK UNBOUND:                -1.035
REMARK  Name = 
REMARK  8 active torsions:
REMARK  status: ('A' for Active; 'I' for Inactive)
REMARK    1  A    between atoms: C_2  and  C_3
REMARK    2  A    between atoms: C_6  and  C_7
REMARK    3  A    between atoms: C_7  and  N_8
REMARK    4  A    between atoms: N_8  and  C_9
REMARK    5  A    between atoms: C_9  and  C_10
REMARK    6  A    between atoms: C_13  and  C_14
REMARK    7  A    between atoms: C_14  and  N_15
REMARK    8  A    between atoms: C_16  and  C_18
REMARK                            x       y       z     vdW  Elec       q    Type
REMARK                         _______ _______ _______ _____ _____    ______ ____
ROOT
ATOM      1  C   UNL     1      44.941   6.614  12.003  0.00  0.00    +0.000 A 
ATOM      2  C   UNL     1      45.975   5.759  12.419  0.00  0.00    +0.000 A 
ATOM      3  C   UNL     1      47.219   6.268  12.803  0.00  0.00    +0.000 A 
ATOM      4  C   UNL     1      47.461   7.646  12.773  0.00  0.00    +0.000 A 
ATOM      5  C   UNL     1      46.451   8.497  12.305  0.00  0.00    +0.000 A 
ATOM      6  C   UNL     1      45.198   7.990  11.938  0.00  0.00    +0.000 A 
ENDROOT
BRANCH   1   7
ATOM      7  C   UNL     1      43.587   6.049  11.628  0.00  0.00    +0.000 C 
BRANCH   7   8
ATOM      8  N   UNL     1      43.630   5.458  10.294  0.00  0.00    +0.000 NA
ATOM      9  H   UNL     1      42.788   5.725   9.785  0.00  0.00    +0.000 HD
BRANCH   8  10
ATOM     10  C   UNL     1      43.671   3.994  10.336  0.00  0.00    +0.000 C 
BRANCH  10  14
ATOM     11  C   UNL     1      46.558   2.543   7.544  0.00  0.00    +0.000 A 
ATOM     12  C   UNL     1      45.906   1.631   8.372  0.00  0.00    +0.000 A 
ATOM     13  C   UNL     1      44.938   2.092   9.262  0.00  0.00    +0.000 A 
ATOM     14  C   UNL     1      44.654   3.458   9.310  0.00  0.00    +0.000 A 
ATOM     15  N   UNL     1      45.280   4.358   8.509  0.00  0.00    +0.000 NA
ATOM     16  C   UNL     1      46.209   3.880   7.646  0.00  0.00    +0.000 A 
BRANCH  11  18
ATOM     17  N   UNL     1      48.386   1.785   5.874  0.00  0.00    +0.000 NA
ATOM     18  C   UNL     1      47.566   2.124   6.625  0.00  0.00    +0.000 C 
ENDBRANCH  11  18
ENDBRANCH  10  14
ENDBRANCH   8  10
ENDBRANCH   7   8
ENDBRANCH   1   7
BRANCH   4  19
ATOM     19  C   UNL     1      48.788   8.205  13.219  0.00  0.00    +0.000 C 
BRANCH  19  20
ATOM     20  N   UNL     1      49.462   7.305  14.117  0.00  0.00    +0.000 N 
ATOM     21  C   UNL     1      50.125   7.764  15.226  0.00  0.00    +0.000 C 
ATOM     22  O   UNL     1      50.142   8.953  15.536  0.00  0.00    +0.000 OA
ATOM     23  H   UNL     1      49.671   6.379  13.761  0.00  0.00    +0.000 HD
BRANCH  21  24
ATOM     24  C   UNL     1      50.763   6.742  16.062  0.00  0.00    +0.000 A 
ATOM     25  C   UNL     1      52.121   6.820  16.343  0.00  0.00    +0.000 A 
ATOM     26  S   UNL     1      52.680   5.565  17.356  0.00  0.00    +0.000 S 
ATOM     27  C   UNL     1      51.135   4.853  17.421  0.00  0.00    +0.000 A 
ATOM     28  N   UNL     1      50.918   3.706  18.119  0.00  0.00    +0.000 NA
ATOM     29  C   UNL     1      49.704   3.269  18.065  0.00  0.00    +0.000 A 
ATOM     30  N   UNL     1      48.684   3.878  17.384  0.00  0.00    +0.000 N 
ATOM     31  C   UNL     1      48.849   5.048  16.683  0.00  0.00    +0.000 A 
ATOM     32  O   UNL     1      47.905   5.592  16.122  0.00  0.00    +0.000 OA
ATOM     33  C   UNL     1      50.200   5.574  16.699  0.00  0.00    +0.000 A 
ATOM     34  H   UNL     1      47.749   3.499  17.396  0.00  0.00    +0.000 HD
ENDBRANCH  21  24
ENDBRANCH  19  20
ENDBRANCH   4  19
TORSDOF 8
ENDMDL
MODEL 4
REMARK VINA RESULT:    -6.957      3.574      5.525
REMARK INTER + INTRA:         -11.246
REMARK INTER:                 -10.183
REMARK INTRA:                  -1.063
REMARK UNBOUND:                -1.035
REMARK  Name = 
REMARK  8 active torsions:
REMARK  status: ('A' for Active; 'I' for Inactive)
REMARK    1  A    between atoms: C_2  and  C_3
REMARK    2  A    between atoms: C_6  and  C_7
REMARK    3  A    between atoms: C_7  and  N_8
REMARK    4  A    between atoms: N_8  and  C_9
REMARK    5  A    between atoms: C_9  and  C_10
REMARK    6  A    between atoms: C_13  and  C_14
REMARK    7  A    between atoms: C_14  and  N_15
REMARK    8  A    between atoms: C_16  and  C_18
REMARK                            x       y       z     vdW  Elec       q    Type
REMARK                         _______ _______ _______ _____ _____    ______ ____
ROOT
ATOM      1  C   UNL     1      47.906   6.371  14.542  0.00  0.00    +0.000 A 
ATOM      2  C   UNL     1      47.245   5.140  14.410  0.00  0.00    +0.000 A 
ATOM      3  C   UNL     1      47.334   4.164  15.407  0.00  0.00    +0.000 A 
ATOM      4  C   UNL     1      48.093   4.395  16.559  0.00  0.00    +0.000 A 
ATOM      5  C   UNL     1      48.800   5.600  16.669  0.00  0.00    +0.000 A 
ATOM      6  C   UNL     1      48.697   6.585  15.679  0.00  0.00    +0.000 A 
ENDROOT
BRANCH   1   7
ATOM      7  C   UNL     1      47.767   7.432  13.470  0.00  0.00    +0.000 C 
BRANCH   7   8
ATOM      8  N   UNL     1      46.517   8.168  13.639  0.00  0.00    +0.000 NA
ATOM      9  H   UNL     1      45.989   7.753  14.405  0.00  0.00    +0.000 HD
BRANCH   8  10
ATOM     10  C   UNL     1      45.673   8.110  12.443  0.00  0.00    +0.000 C 
BRANCH  10  14
ATOM     11  C   UNL     1      44.051   4.212  11.800  0.00  0.00    +0.000 A 
ATOM     12  C   UNL     1      44.943   4.731  10.864  0.00  0.00    +0.000 A 
ATOM     13  C   UNL     1      45.503   5.988  11.083  0.00  0.00    +0.000 A 
ATOM     14  C   UNL     1      45.147   6.701  12.230  0.00  0.00    +0.000 A 
ATOM     15  N   UNL     1      44.280   6.207  13.151  0.00  0.00    +0.000 NA
ATOM     16  C   UNL     1      43.759   4.978  12.917  0.00  0.00    +0.000 A 
BRANCH  11  18
ATOM     17  N   UNL     1      42.944   1.895  11.465  0.00  0.00    +0.000 NA
ATOM     18  C   UNL     1      43.440   2.935  11.616  0.00  0.00    +0.000 C 
ENDBRANCH  11  18
ENDBRANCH  10  14
ENDBRANCH   8  10
ENDBRANCH   7   8
ENDBRANCH   1   7
BRANCH   4  19
ATOM     19  C   UNL     1      48.166   3.362  17.654  0.00  0.00    +0.000 C 
BRANCH  19  20
ATOM     20  N   UNL     1      49.529   3.041  17.984  0.00  0.00    +0.000 N 
ATOM     21  C   UNL     1      50.284   2.219  17.188  0.00  0.00    +0.000 C 
ATOM     22  O   UNL     1      49.857   1.750  16.136  0.00  0.00    +0.000 OA
ATOM     23  H   UNL     1      49.815   3.204  18.943  0.00  0.00    +0.000 HD
BRANCH  21  24
ATOM     24  C   UNL     1      51.660   1.979  17.634  0.00  0.00    +0.000 A 
ATOM     25  C   UNL     1      52.195   0.698  17.584  0.00  0.00    +0.000 A 
ATOM     26  S   UNL     1      53.817   0.617  18.111  0.00  0.00    +0.000 S 
ATOM     27  C   UNL     1      53.846   2.283  18.462  0.00  0.00    +0.000 A 
ATOM     28  N   UNL     1      54.956   2.873  18.981  0.00  0.00    +0.000 NA
ATOM     29  C   UNL     1      54.829   4.137  19.214  0.00  0.00    +0.000 A 
ATOM     30  N   UNL     1      53.696   4.867  18.970  0.00  0.00    +0.000 N 
ATOM     31  C   UNL     1      52.559   4.320  18.429  0.00  0.00    +0.000 A 
ATOM     32  O   UNL     1      51.576   5.010  18.180  0.00  0.00    +0.000 OA
ATOM     33  C   UNL     1      52.643   2.897  18.160  0.00  0.00    +0.000 A 
ATOM     34  H   UNL     1      53.663   5.859  19.155  0.00  0.00    +0.000 HD
ENDBRANCH  21  24
ENDBRANCH  19  20
ENDBRANCH   4  19
TORSDOF 8
ENDMDL
MODEL 5
REMARK VINA RESULT:    -6.416      4.076      5.650
REMARK INTER + INTRA:         -10.451
REMARK INTER:                  -8.888
REMARK INTRA:                  -1.563
REMARK UNBOUND:                -1.035
REMARK  Name = 
REMARK  8 active torsions:
REMARK  status: ('A' for Active; 'I' for Inactive)
REMARK    1  A    between atoms: C_2  and  C_3
REMARK    2  A    between atoms: C_6  and  C_7
REMARK    3  A    between atoms: C_7  and  N_8
REMARK    4  A    between atoms: N_8  and  C_9
REMARK    5  A    between atoms: C_9  and  C_10
REMARK    6  A    between atoms: C_13  and  C_14
REMARK    7  A    between atoms: C_14  and  N_15
REMARK    8  A    between atoms: C_16  and  C_18
REMARK                            x       y       z     vdW  Elec       q    Type
REMARK                         _______ _______ _______ _____ _____    ______ ____
ROOT
ATOM      1  C   UNL     1      45.398   7.145  12.197  0.00  0.00    +0.000 A 
ATOM      2  C   UNL     1      44.503   6.207  12.736  0.00  0.00    +0.000 A 
ATOM      3  C   UNL     1      44.967   5.036  13.342  0.00  0.00    +0.000 A 
ATOM      4  C   UNL     1      46.339   4.773  13.418  0.00  0.00    +0.000 A 
ATOM      5  C   UNL     1      47.233   5.680  12.832  0.00  0.00    +0.000 A 
ATOM      6  C   UNL     1      46.770   6.862  12.241  0.00  0.00    +0.000 A 
ENDROOT
BRANCH   1   7
ATOM      7  C   UNL     1      44.881   8.428  11.579  0.00  0.00    +0.000 C 
BRANCH   7   8
ATOM      8  N   UNL     1      45.061   9.547  12.499  0.00  0.00    +0.000 NA
ATOM      9  H   UNL     1      44.162  10.005  12.644  0.00  0.00    +0.000 HD
BRANCH   8  10
ATOM     10  C   UNL     1      45.985  10.556  11.973  0.00  0.00    +0.000 C 
BRANCH  10  14
ATOM     11  C   UNL     1      49.977   9.361  12.904  0.00  0.00    +0.000 A 
ATOM     12  C   UNL     1      49.675   9.731  11.595  0.00  0.00    +0.000 A 
ATOM     13  C   UNL     1      48.383  10.154  11.290  0.00  0.00    +0.000 A 
ATOM     14  C   UNL     1      47.421  10.186  12.301  0.00  0.00    +0.000 A 
ATOM     15  N   UNL     1      47.702   9.831  13.581  0.00  0.00    +0.000 NA
ATOM     16  C   UNL     1      48.969   9.433  13.852  0.00  0.00    +0.000 A 
BRANCH  11  18
ATOM     17  N   UNL     1      52.343   8.539  13.564  0.00  0.00    +0.000 NA
ATOM     18  C   UNL     1      51.282   8.908  13.266  0.00  0.00    +0.000 C 
ENDBRANCH  11  18
ENDBRANCH  10  14
ENDBRANCH   8  10
ENDBRANCH   7   8
ENDBRANCH   1   7
BRANCH   4  19
ATOM     19  C   UNL     1      46.848   3.529  14.101  0.00  0.00    +0.000 C 
BRANCH  19  20
ATOM     20  N   UNL     1      47.874   3.839  15.060  0.00  0.00    +0.000 N 
ATOM     21  C   UNL     1      47.624   3.820  16.409  0.00  0.00    +0.000 C 
ATOM     22  O   UNL     1      46.532   3.498  16.869  0.00  0.00    +0.000 OA
ATOM     23  H   UNL     1      48.686   4.337  14.714  0.00  0.00    +0.000 HD
BRANCH  21  24
ATOM     24  C   UNL     1      48.758   4.148  17.278  0.00  0.00    +0.000 A 
ATOM     25  C   UNL     1      48.732   5.300  18.054  0.00  0.00    +0.000 A 
ATOM     26  S   UNL     1      50.121   5.499  19.025  0.00  0.00    +0.000 S 
ATOM     27  C   UNL     1      50.823   4.074  18.412  0.00  0.00    +0.000 A 
ATOM     28  N   UNL     1      52.055   3.666  18.818  0.00  0.00    +0.000 NA
ATOM     29  C   UNL     1      52.470   2.579  18.257  0.00  0.00    +0.000 A 
ATOM     30  N   UNL     1      51.763   1.858  17.332  0.00  0.00    +0.000 N 
ATOM     31  C   UNL     1      50.508   2.219  16.907  0.00  0.00    +0.000 A 
ATOM     32  O   UNL     1      49.881   1.527  16.111  0.00  0.00    +0.000 OA
ATOM     33  C   UNL     1      50.000   3.443  17.496  0.00  0.00    +0.000 A 
ATOM     34  H   UNL     1      52.131   1.004  16.943  0.00  0.00    +0.000 HD
ENDBRANCH  21  24
ENDBRANCH  19  20
ENDBRANCH   4  19
TORSDOF 8
ENDMDL
MODEL 6
REMARK VINA RESULT:    -6.072      3.648      5.459
REMARK INTER + INTRA:          -9.946
REMARK INTER:                  -8.698
REMARK INTRA:                  -1.248
REMARK UNBOUND:                -1.035
REMARK  Name = 
REMARK  8 active torsions:
REMARK  status: ('A' for Active; 'I' for Inactive)
REMARK    1  A    between atoms: C_2  and  C_3
REMARK    2  A    between atoms: C_6  and  C_7
REMARK    3  A    between atoms: C_7  and  N_8
REMARK    4  A    between atoms: N_8  and  C_9
REMARK    5  A    between atoms: C_9  and  C_10
REMARK    6  A    between atoms: C_13  and  C_14
REMARK    7  A    between atoms: C_14  and  N_15
REMARK    8  A    between atoms: C_16  and  C_18
REMARK                            x       y       z     vdW  Elec       q    Type
REMARK                         _______ _______ _______ _____ _____    ______ ____
ROOT
ATOM      1  C   UNL     1      47.878   6.795  14.231  0.00  0.00    +0.000 A 
ATOM      2  C   UNL     1      47.223   5.555  14.298  0.00  0.00    +0.000 A 
ATOM      3  C   UNL     1      47.500   4.648  15.325  0.00  0.00    +0.000 A 
ATOM      4  C   UNL     1      48.446   4.958  16.308  0.00  0.00    +0.000 A 
ATOM      5  C   UNL     1      49.143   6.171  16.213  0.00  0.00    +0.000 A 
ATOM      6  C   UNL     1      48.853   7.087  15.196  0.00  0.00    +0.000 A 
ENDROOT
BRANCH   1   7
ATOM      7  C   UNL     1      47.538   7.782  13.135  0.00  0.00    +0.000 C 
BRANCH   7   8
ATOM      8  N   UNL     1      46.144   8.205  13.242  0.00  0.00    +0.000 NA
ATOM      9  H   UNL     1      45.674   7.624  13.935  0.00  0.00    +0.000 HD
BRANCH   8  10
ATOM     10  C   UNL     1      45.418   8.053  11.979  0.00  0.00    +0.000 C 
BRANCH  10  14
ATOM     11  C   UNL     1      43.800   4.106  11.775  0.00  0.00    +0.000 A 
ATOM     12  C   UNL     1      43.375   4.954  12.796  0.00  0.00    +0.000 A 
ATOM     13  C   UNL     1      43.873   6.255  12.850  0.00  0.00    +0.000 A 
ATOM     14  C   UNL     1      44.793   6.671  11.886  0.00  0.00    +0.000 A 
ATOM     15  N   UNL     1      45.214   5.857  10.885  0.00  0.00    +0.000 NA
ATOM     16  C   UNL     1      44.706   4.601  10.851  0.00  0.00    +0.000 A 
BRANCH  11  18
ATOM     17  N   UNL     1      42.949   1.666  11.610  0.00  0.00    +0.000 NA
ATOM     18  C   UNL     1      43.330   2.761  11.683  0.00  0.00    +0.000 C 
ENDBRANCH  11  18
ENDBRANCH  10  14
ENDBRANCH   8  10
ENDBRANCH   7   8
ENDBRANCH   1   7
BRANCH   4  19
ATOM     19  C   UNL     1      48.725   4.001  17.438  0.00  0.00    +0.000 C 
BRANCH  19  20
ATOM     20  N   UNL     1      50.117   3.642  17.491  0.00  0.00    +0.000 N 
ATOM     21  C   UNL     1      50.920   4.038  18.530  0.00  0.00    +0.000 C 
ATOM     22  O   UNL     1      50.489   4.679  19.485  0.00  0.00    +0.000 OA
ATOM     23  H   UNL     1      50.543   3.340  16.622  0.00  0.00    +0.000 HD
BRANCH  21  24
ATOM     24  C   UNL     1      52.318   3.598  18.466  0.00  0.00    +0.000 A 
ATOM     25  C   UNL     1      53.339   4.469  18.824  0.00  0.00    +0.000 A 
ATOM     26  S   UNL     1      54.894   3.774  18.720  0.00  0.00    +0.000 S 
ATOM     27  C   UNL     1      54.259   2.299  18.153  0.00  0.00    +0.000 A 
ATOM     28  N   UNL     1      55.074   1.257  17.838  0.00  0.00    +0.000 NA
ATOM     29  C   UNL     1      54.457   0.209  17.404  0.00  0.00    +0.000 A 
ATOM     30  N   UNL     1      53.099   0.104  17.262  0.00  0.00    +0.000 N 
ATOM     31  C   UNL     1      52.235   1.121  17.586  0.00  0.00    +0.000 A 
ATOM     32  O   UNL     1      51.020   0.979  17.491  0.00  0.00    +0.000 OA
ATOM     33  C   UNL     1      52.878   2.329  18.066  0.00  0.00    +0.000 A 
ATOM     34  H   UNL     1      52.672  -0.750  16.936  0.00  0.00    +0.000 HD
ENDBRANCH  21  24
ENDBRANCH  19  20
ENDBRANCH   4  19
TORSDOF 8
ENDMDL
MODEL 7
REMARK VINA RESULT:    -5.780      3.707      5.789
REMARK INTER + INTRA:          -9.518
REMARK INTER:                  -8.258
REMARK INTRA:                  -1.260
REMARK UNBOUND:                -1.035
REMARK  Name = 
REMARK  8 active torsions:
REMARK  status: ('A' for Active; 'I' for Inactive)
REMARK    1  A    between atoms: C_2  and  C_3
REMARK    2  A    between atoms: C_6  and  C_7
REMARK    3  A    between atoms: C_7  and  N_8
REMARK    4  A    between atoms: N_8  and  C_9
REMARK    5  A    between atoms: C_9  and  C_10
REMARK    6  A    between atoms: C_13  and  C_14
REMARK    7  A    between atoms: C_14  and  N_15
REMARK    8  A    between atoms: C_16  and  C_18
REMARK                            x       y       z     vdW  Elec       q    Type
REMARK                         _______ _______ _______ _____ _____    ______ ____
ROOT
ATOM      1  C   UNL     1      47.103   4.362  14.565  0.00  0.00    +0.000 A 
ATOM      2  C   UNL     1      47.181   3.567  15.719  0.00  0.00    +0.000 A 
ATOM      3  C   UNL     1      47.854   4.016  16.858  0.00  0.00    +0.000 A 
ATOM      4  C   UNL     1      48.472   5.271  16.867  0.00  0.00    +0.000 A 
ATOM      5  C   UNL     1      48.444   6.045  15.699  0.00  0.00    +0.000 A 
ATOM      6  C   UNL     1      47.754   5.603  14.563  0.00  0.00    +0.000 A 
ENDROOT
BRANCH   1   7
ATOM      7  C   UNL     1      46.335   3.877  13.352  0.00  0.00    +0.000 C 
BRANCH   7   8
ATOM      8  N   UNL     1      45.006   4.480  13.314  0.00  0.00    +0.000 NA
ATOM      9  H   UNL     1      44.306   3.740  13.338  0.00  0.00    +0.000 HD
BRANCH   8  10
ATOM     10  C   UNL     1      44.782   5.254  12.090  0.00  0.00    +0.000 C 
BRANCH  10  14
ATOM     11  C   UNL     1      47.089   8.840  12.324  0.00  0.00    +0.000 A 
ATOM     12  C   UNL     1      47.547   7.798  11.521  0.00  0.00    +0.000 A 
ATOM     13  C   UNL     1      46.783   6.637  11.412  0.00  0.00    +0.000 A 
ATOM     14  C   UNL     1      45.584   6.544  12.120  0.00  0.00    +0.000 A 
ATOM     15  N   UNL     1      45.125   7.552  12.905  0.00  0.00    +0.000 NA
ATOM     16  C   UNL     1      45.883   8.672  12.985  0.00  0.00    +0.000 A 
BRANCH  11  18
ATOM     17  N   UNL     1      48.450  11.025  12.604  0.00  0.00    +0.000 NA
ATOM     18  C   UNL     1      47.840  10.044  12.480  0.00  0.00    +0.000 C 
ENDBRANCH  11  18
ENDBRANCH  10  14
ENDBRANCH   8  10
ENDBRANCH   7   8
ENDBRANCH   1   7
BRANCH   4  19
ATOM     19  C   UNL     1      49.170   5.777  18.104  0.00  0.00    +0.000 C 
BRANCH  19  20
ATOM     20  N   UNL     1      50.257   4.915  18.484  0.00  0.00    +0.000 N 
ATOM     21  C   UNL     1      51.484   4.998  17.876  0.00  0.00    +0.000 C 
ATOM     22  O   UNL     1      51.733   5.834  17.012  0.00  0.00    +0.000 OA
ATOM     23  H   UNL     1      50.013   4.076  18.998  0.00  0.00    +0.000 HD
BRANCH  21  24
ATOM     24  C   UNL     1      52.506   4.066  18.363  0.00  0.00    +0.000 A 
ATOM     25  C   UNL     1      53.565   4.534  19.131  0.00  0.00    +0.000 A 
ATOM     26  S   UNL     1      54.636   3.304  19.635  0.00  0.00    +0.000 S 
ATOM     27  C   UNL     1      53.744   2.111  18.810  0.00  0.00    +0.000 A 
ATOM     28  N   UNL     1      54.139   0.810  18.813  0.00  0.00    +0.000 NA
ATOM     29  C   UNL     1      53.378   0.019  18.131  0.00  0.00    +0.000 A 
ATOM     30  N   UNL     1      52.254   0.408  17.453  0.00  0.00    +0.000 N 
ATOM     31  C   UNL     1      51.804   1.706  17.439  0.00  0.00    +0.000 A 
ATOM     32  O   UNL     1      50.768   2.014  16.860  0.00  0.00    +0.000 OA
ATOM     33  C   UNL     1      52.632   2.640  18.178  0.00  0.00    +0.000 A 
ATOM     34  H   UNL     1      51.687  -0.260  16.954  0.00  0.00    +0.000 HD
ENDBRANCH  21  24
ENDBRANCH  19  20
ENDBRANCH   4  19
TORSDOF 8
ENDMDL
MODEL 8
REMARK VINA RESULT:    -5.618      4.070      5.795
REMARK INTER + INTRA:          -9.281
REMARK INTER:                  -8.420
REMARK INTRA:                  -0.861
REMARK UNBOUND:                -1.035
REMARK  Name = 
REMARK  8 active torsions:
REMARK  status: ('A' for Active; 'I' for Inactive)
REMARK    1  A    between atoms: C_2  and  C_3
REMARK    2  A    between atoms: C_6  and  C_7
REMARK    3  A    between atoms: C_7  and  N_8
REMARK    4  A    between atoms: N_8  and  C_9
REMARK    5  A    between atoms: C_9  and  C_10
REMARK    6  A    between atoms: C_13  and  C_14
REMARK    7  A    between atoms: C_14  and  N_15
REMARK    8  A    between atoms: C_16  and  C_18
REMARK                            x       y       z     vdW  Elec       q    Type
REMARK                         _______ _______ _______ _____ _____    ______ ____
ROOT
ATOM      1  C   UNL     1      47.670   4.303  16.355  0.00  0.00    +0.000 A 
ATOM      2  C   UNL     1      47.989   3.255  17.233  0.00  0.00    +0.000 A 
ATOM      3  C   UNL     1      48.824   3.467  18.334  0.00  0.00    +0.000 A 
ATOM      4  C   UNL     1      49.365   4.734  18.579  0.00  0.00    +0.000 A 
ATOM      5  C   UNL     1      49.094   5.769  17.674  0.00  0.00    +0.000 A 
ATOM      6  C   UNL     1      48.243   5.562  16.582  0.00  0.00    +0.000 A 
ENDROOT
BRANCH   1   7
ATOM      7  C   UNL     1      46.732   4.066  15.189  0.00  0.00    +0.000 C 
BRANCH   7   8
ATOM      8  N   UNL     1      47.030   4.988  14.097  0.00  0.00    +0.000 NA
ATOM      9  H   UNL     1      47.620   5.741  14.450  0.00  0.00    +0.000 HD
BRANCH   8  10
ATOM     10  C   UNL     1      45.821   5.603  13.543  0.00  0.00    +0.000 C 
BRANCH  10  14
ATOM     11  C   UNL     1      45.215   4.104   9.590  0.00  0.00    +0.000 A 
ATOM     12  C   UNL     1      44.915   3.281  10.674  0.00  0.00    +0.000 A 
ATOM     13  C   UNL     1      45.078   3.774  11.968  0.00  0.00    +0.000 A 
ATOM     14  C   UNL     1      45.549   5.077  12.144  0.00  0.00    +0.000 A 
ATOM     15  N   UNL     1      45.843   5.890  11.098  0.00  0.00    +0.000 NA
ATOM     16  C   UNL     1      45.666   5.388   9.852  0.00  0.00    +0.000 A 
BRANCH  11  18
ATOM     17  N   UNL     1      44.965   3.265   7.153  0.00  0.00    +0.000 NA
ATOM     18  C   UNL     1      45.078   3.642   8.247  0.00  0.00    +0.000 C 
ENDBRANCH  11  18
ENDBRANCH  10  14
ENDBRANCH   8  10
ENDBRANCH   7   8
ENDBRANCH   1   7
BRANCH   4  19
ATOM     19  C   UNL     1      50.237   4.979  19.784  0.00  0.00    +0.000 C 
BRANCH  19  20
ATOM     20  N   UNL     1      51.351   4.069  19.819  0.00  0.00    +0.000 N 
ATOM     21  C   UNL     1      52.438   4.235  19.000  0.00  0.00    +0.000 C 
ATOM     22  O   UNL     1      52.540   5.185  18.228  0.00  0.00    +0.000 OA
ATOM     23  H   UNL     1      51.188   3.166  20.250  0.00  0.00    +0.000 HD
BRANCH  21  24
ATOM     24  C   UNL     1      53.508   3.242  19.142  0.00  0.00    +0.000 A 
ATOM     25  C   UNL     1      54.647   3.545  19.877  0.00  0.00    +0.000 A 
ATOM     26  S   UNL     1      55.766   2.259  19.961  0.00  0.00    +0.000 S 
ATOM     27  C   UNL     1      54.786   1.268  18.983  0.00  0.00    +0.000 A 
ATOM     28  N   UNL     1      55.177   0.012  18.639  0.00  0.00    +0.000 NA
ATOM     29  C   UNL     1      54.345  -0.618  17.879  0.00  0.00    +0.000 A 
ATOM     30  N   UNL     1      53.152  -0.111  17.438  0.00  0.00    +0.000 N 
ATOM     31  C   UNL     1      52.705   1.143  17.775  0.00  0.00    +0.000 A 
ATOM     32  O   UNL     1      51.611   1.551  17.400  0.00  0.00    +0.000 OA
ATOM     33  C   UNL     1      53.611   1.901  18.617  0.00  0.00    +0.000 A 
ATOM     34  H   UNL     1      52.533  -0.660  16.861  0.00  0.00    +0.000 HD
ENDBRANCH  21  24
ENDBRANCH  19  20
ENDBRANCH   4  19
TORSDOF 8
ENDMDL
MODEL 9
REMARK VINA RESULT:    -5.607      3.788      5.474
REMARK INTER + INTRA:          -9.264
REMARK INTER:                  -7.412
REMARK INTRA:                  -1.852
REMARK UNBOUND:                -1.035
REMARK  Name = 
REMARK  8 active torsions:
REMARK  status: ('A' for Active; 'I' for Inactive)
REMARK    1  A    between atoms: C_2  and  C_3
REMARK    2  A    between atoms: C_6  and  C_7
REMARK    3  A    between atoms: C_7  and  N_8
REMARK    4  A    between atoms: N_8  and  C_9
REMARK    5  A    between atoms: C_9  and  C_10
REMARK    6  A    between atoms: C_13  and  C_14
REMARK    7  A    between atoms: C_14  and  N_15
REMARK    8  A    between atoms: C_16  and  C_18
REMARK                            x       y       z     vdW  Elec       q    Type
REMARK                         _______ _______ _______ _____ _____    ______ ____
ROOT
ATOM      1  C   UNL     1      45.234   6.663  11.886  0.00  0.00    +0.000 A 
ATOM      2  C   UNL     1      44.360   5.784  12.546  0.00  0.00    +0.000 A 
ATOM      3  C   UNL     1      44.850   4.740  13.336  0.00  0.00    +0.000 A 
ATOM      4  C   UNL     1      46.228   4.547  13.480  0.00  0.00    +0.000 A 
ATOM      5  C   UNL     1      47.103   5.387  12.779  0.00  0.00    +0.000 A 
ATOM      6  C   UNL     1      46.613   6.444  12.002  0.00  0.00    +0.000 A 
ENDROOT
BRANCH   1   7
ATOM      7  C   UNL     1      44.686   7.813  11.066  0.00  0.00    +0.000 C 
BRANCH   7   8
ATOM      8  N   UNL     1      44.506   8.996  11.902  0.00  0.00    +0.000 NA
ATOM      9  H   UNL     1      43.561   9.354  11.771  0.00  0.00    +0.000 HD
BRANCH   8  10
ATOM     10  C   UNL     1      45.434  10.073  11.547  0.00  0.00    +0.000 C 
BRANCH  10  14
ATOM     11  C   UNL     1      49.209   9.294  13.386  0.00  0.00    +0.000 A 
ATOM     12  C   UNL     1      49.185   9.778  12.079  0.00  0.00    +0.000 A 
ATOM     13  C   UNL     1      47.958  10.067  11.484  0.00  0.00    +0.000 A 
ATOM     14  C   UNL     1      46.784   9.853  12.208  0.00  0.00    +0.000 A 
ATOM     15  N   UNL     1      46.792   9.384  13.482  0.00  0.00    +0.000 NA
ATOM     16  C   UNL     1      47.999   9.122  14.039  0.00  0.00    +0.000 A 
BRANCH  11  18
ATOM     17  N   UNL     1      51.439   8.708  14.564  0.00  0.00    +0.000 NA
ATOM     18  C   UNL     1      50.437   8.971  14.036  0.00  0.00    +0.000 C 
ENDBRANCH  11  18
ENDBRANCH  10  14
ENDBRANCH   8  10
ENDBRANCH   7   8
ENDBRANCH   1   7
BRANCH   4  19
ATOM     19  C   UNL     1      46.764   3.445  14.358  0.00  0.00    +0.000 C 
BRANCH  19  20
ATOM     20  N   UNL     1      47.267   3.963  15.603  0.00  0.00    +0.000 N 
ATOM     21  C   UNL     1      48.220   3.291  16.325  0.00  0.00    +0.000 C 
ATOM     22  O   UNL     1      48.725   2.243  15.931  0.00  0.00    +0.000 OA
ATOM     23  H   UNL     1      46.706   4.672  16.060  0.00  0.00    +0.000 HD
BRANCH  21  24
ATOM     24  C   UNL     1      48.652   3.932  17.571  0.00  0.00    +0.000 A 
ATOM     25  C   UNL     1      48.402   3.319  18.792  0.00  0.00    +0.000 A 
ATOM     26  S   UNL     1      49.005   4.192  20.129  0.00  0.00    +0.000 S 
ATOM     27  C   UNL     1      49.585   5.439  19.124  0.00  0.00    +0.000 A 
ATOM     28  N   UNL     1      50.201   6.533  19.646  0.00  0.00    +0.000 NA
ATOM     29  C   UNL     1      50.572   7.406  18.770  0.00  0.00    +0.000 A 
ATOM     30  N   UNL     1      50.390   7.283  17.418  0.00  0.00    +0.000 N 
ATOM     31  C   UNL     1      49.791   6.188  16.844  0.00  0.00    +0.000 A 
ATOM     32  O   UNL     1      49.684   6.087  15.626  0.00  0.00    +0.000 OA
ATOM     33  C   UNL     1      49.342   5.182  17.786  0.00  0.00    +0.000 A 
ATOM     34  H   UNL     1      50.720   7.991  16.780  0.00  0.00    +0.000 HD
ENDBRANCH  21  24
ENDBRANCH  19  20
ENDBRANCH   4  19
TORSDOF 8
ENDMDL
