MODEL 1
REMARK VINA RESULT:    -8.286      0.000      0.000
REMARK INTER + INTRA:         -13.085
REMARK INTER:                 -11.919
REMARK INTRA:                  -1.166
REMARK UNBOUND:                -1.166
REMARK  Name = 
REMARK  8 active torsions:
REMARK  status: ('A' for Active; 'I' for Inactive)
REMARK    1  A    between atoms: C_2  and  C_20
REMARK    2  A    between atoms: N_3  and  C_4
REMARK    3  A    between atoms: C_4  and  C_5
REMARK    4  A    between atoms: C_8  and  C_9
REMARK    5  A    between atoms: C_9  and  C_10
REMARK    6  A    between atoms: C_10  and  C_11
REMARK    7  A    between atoms: C_11  and  N_12
REMARK    8  A    between atoms: C_15  and  O_16
REMARK                            x       y       z     vdW  Elec       q    Type
REMARK                         _______ _______ _______ _____ _____    ______ ____
ROOT
ATOM      1  C   UNL     1      47.078   7.369  13.065  0.00  0.00    +0.000 C 
ENDROOT
BRANCH   1   2
ATOM      2  C   UNL     1      46.304   6.250  12.421  0.00  0.00    +0.000 A 
ATOM      3  C   UNL     1      45.832   5.202  13.212  0.00  0.00    +0.000 A 
ATOM      4  C   UNL     1      45.134   4.142  12.638  0.00  0.00    +0.000 A 
ATOM      5  C   UNL     1      44.869   4.103  11.260  0.00  0.00    +0.000 A 
ATOM      6  C   UNL     1      45.381   5.133  10.462  0.00  0.00    +0.000 A 
ATOM      7  C   UNL     1      46.094   6.197  11.036  0.00  0.00    +0.000 A 
BRANCH   5   8
ATOM      8  C   UNL     1      44.090   2.959  10.635  0.00  0.00    +0.000 C 
BRANCH   8   9
ATOM      9  C   UNL     1      44.385   2.786   9.139  0.00  0.00    +0.000 C 
BRANCH   9  10
ATOM     10  C   UNL     1      45.427   1.711   8.821  0.00  0.00    +0.000 C 
BRANCH  10  11
ATOM     11  N   UNL     1      46.453   2.235   7.904  0.00  0.00    +0.000 NA
ATOM     12  C   UNL     1      45.909   3.214   6.954  0.00  0.00    +0.000 C 
ATOM     13  C   UNL     1      46.746   3.085   5.680  0.00  0.00    +0.000 C 
ATOM     14  C   UNL     1      47.764   1.999   5.980  0.00  0.00    +0.000 C 
ATOM     15  C   UNL     1      47.108   1.192   7.095  0.00  0.00    +0.000 C 
BRANCH  14  16
ATOM     16  O   UNL     1      48.977   2.596   6.440  0.00  0.00    +0.000 OA
ATOM     17  H   UNL     1      49.237   3.231   5.744  0.00  0.00    +0.000 HD
ENDBRANCH  14  16
ENDBRANCH  10  11
ENDBRANCH   9  10
ENDBRANCH   8   9
ENDBRANCH   5   8
ENDBRANCH   1   2
BRANCH   1  20
ATOM     18  O   UNL     1      49.742   7.035  13.939  0.00  0.00    +0.000 OA
ATOM     19  C   UNL     1      48.826   6.927  14.749  0.00  0.00    +0.000 C 
ATOM     20  N   UNL     1      47.505   6.996  14.389  0.00  0.00    +0.000 N 
ATOM     21  H   UNL     1      46.807   7.106  15.115  0.00  0.00    +0.000 HD
BRANCH  19  22
ATOM     22  C   UNL     1      49.090   6.653  16.169  0.00  0.00    +0.000 A 
ATOM     23  C   UNL     1      49.687   7.625  16.960  0.00  0.00    +0.000 A 
ATOM     24  S   UNL     1      49.952   7.128  18.569  0.00  0.00    +0.000 S 
ATOM     25  C   UNL     1      49.232   5.613  18.277  0.00  0.00    +0.000 A 
ATOM     26  N   UNL     1      49.112   4.694  19.272  0.00  0.00    +0.000 NA
ATOM     27  C   UNL     1      48.506   3.607  18.924  0.00  0.00    +0.000 A 
ATOM     28  N   UNL     1      48.018   3.350  17.671  0.00  0.00    +0.000 N 
ATOM     29  C   UNL     1      48.185   4.217  16.616  0.00  0.00    +0.000 A 
ATOM     30  O   UNL     1      47.853   3.900  15.480  0.00  0.00    +0.000 OA
ATOM     31  C   UNL     1      48.818   5.478  16.964  0.00  0.00    +0.000 A 
ATOM     32  H   UNL     1      47.576   2.470  17.455  0.00  0.00    +0.000 HD
ENDBRANCH  19  22
ENDBRANCH   1  20
TORSDOF 8
ENDMDL
MODEL 2
REMARK VINA RESULT:    -7.741      1.894      2.432
REMARK INTER + INTRA:         -12.301
REMARK INTER:                 -11.285
REMARK INTRA:                  -1.016
REMARK UNBOUND:                -1.166
REMARK  Name = 
REMARK  8 active torsions:
REMARK  status: ('A' for Active; 'I' for Inactive)
REMARK    1  A    between atoms: C_2  and  C_20
REMARK    2  A    between atoms: N_3  and  C_4
REMARK    3  A    between atoms: C_4  and  C_5
REMARK    4  A    between atoms: C_8  and  C_9
REMARK    5  A    between atoms: C_9  and  C_10
REMARK    6  A    between atoms: C_10  and  C_11
REMARK    7  A    between atoms: C_11  and  N_12
REMARK    8  A    between atoms: C_15  and  O_16
REMARK                            x       y       z     vdW  Elec       q    Type
REMARK                         _______ _______ _______ _____ _____    ______ ____
ROOT
ATOM      1  C   UNL     1      47.964   6.826  13.703  0.00  0.00    +0.000 C 
ENDROOT
BRANCH   1   2
ATOM      2  C   UNL     1      46.964   6.000  12.940  0.00  0.00    +0.000 A 
ATOM      3  C   UNL     1      46.543   4.778  13.465  0.00  0.00    +0.000 A 
ATOM      4  C   UNL     1      45.637   3.983  12.767  0.00  0.00    +0.000 A 
ATOM      5  C   UNL     1      45.107   4.390  11.533  0.00  0.00    +0.000 A 
ATOM      6  C   UNL     1      45.564   5.597  10.987  0.00  0.00    +0.000 A 
ATOM      7  C   UNL     1      46.485   6.395  11.683  0.00  0.00    +0.000 A 
BRANCH   5   8
ATOM      8  C   UNL     1      44.103   3.536  10.781  0.00  0.00    +0.000 C 
BRANCH   8   9
ATOM      9  C   UNL     1      44.467   3.355   9.301  0.00  0.00    +0.000 C 
BRANCH   9  10
ATOM     10  C   UNL     1      45.361   2.147   9.013  0.00  0.00    +0.000 C 
BRANCH  10  11
ATOM     11  N   UNL     1      46.394   2.488   8.020  0.00  0.00    +0.000 NA
ATOM     12  C   UNL     1      45.874   3.332   6.937  0.00  0.00    +0.000 C 
ATOM     13  C   UNL     1      46.690   2.983   5.691  0.00  0.00    +0.000 C 
ATOM     14  C   UNL     1      47.672   1.918   6.145  0.00  0.00    +0.000 C 
ATOM     15  C   UNL     1      47.002   1.313   7.373  0.00  0.00    +0.000 C 
BRANCH  14  16
ATOM     16  O   UNL     1      48.912   2.532   6.502  0.00  0.00    +0.000 OA
ATOM     17  H   UNL     1      49.438   2.559   5.679  0.00  0.00    +0.000 HD
ENDBRANCH  14  16
ENDBRANCH  10  11
ENDBRANCH   9  10
ENDBRANCH   8   9
ENDBRANCH   5   8
ENDBRANCH   1   2
BRANCH   1  20
ATOM     18  O   UNL     1      50.107   6.388  15.489  0.00  0.00    +0.000 OA
ATOM     19  C   UNL     1      48.962   6.439  15.927  0.00  0.00    +0.000 C 
ATOM     20  N   UNL     1      47.863   6.569  15.117  0.00  0.00    +0.000 N 
ATOM     21  H   UNL     1      46.973   6.810  15.537  0.00  0.00    +0.000 HD
BRANCH  19  22
ATOM     22  C   UNL     1      48.687   6.302  17.364  0.00  0.00    +0.000 A 
ATOM     23  C   UNL     1      48.900   5.084  17.995  0.00  0.00    +0.000 A 
ATOM     24  S   UNL     1      48.496   5.093  19.651  0.00  0.00    +0.000 S 
ATOM     25  C   UNL     1      48.071   6.740  19.594  0.00  0.00    +0.000 A 
ATOM     26  N   UNL     1      47.653   7.392  20.712  0.00  0.00    +0.000 NA
ATOM     27  C   UNL     1      47.405   8.648  20.537  0.00  0.00    +0.000 A 
ATOM     28  N   UNL     1      47.528   9.310  19.345  0.00  0.00    +0.000 N 
ATOM     29  C   UNL     1      47.873   8.676  18.174  0.00  0.00    +0.000 A 
ATOM     30  O   UNL     1      47.846   9.270  17.102  0.00  0.00    +0.000 OA
ATOM     31  C   UNL     1      48.209   7.271  18.324  0.00  0.00    +0.000 A 
ATOM     32  H   UNL     1      47.296  10.289  19.267  0.00  0.00    +0.000 HD
ENDBRANCH  19  22
ENDBRANCH   1  20
TORSDOF 8
ENDMDL
MODEL 3
REMARK VINA RESULT:    -7.151      2.876      8.756
REMARK INTER + INTRA:         -11.452
REMARK INTER:                 -10.035
REMARK INTRA:                  -1.417
REMARK UNBOUND:                -1.166
REMARK  Name = 
REMARK  8 active torsions:
REMARK  status: ('A' for Active; 'I' for Inactive)
REMARK    1  A    between atoms: C_2  and  C_20
REMARK    2  A    between atoms: N_3  and  C_4
REMARK    3  A    between atoms: C_4  and  C_5
REMARK    4  A    between atoms: C_8  and  C_9
REMARK    5  A    between atoms: C_9  and  C_10
REMARK    6  A    between atoms: C_10  and  C_11
REMARK    7  A    between atoms: C_11  and  N_12
REMARK    8  A    between atoms: C_15  and  O_16
REMARK                            x       y       z     vdW  Elec       q    Type
REMARK                         _______ _______ _______ _____ _____    ______ ____
ROOT
ATOM      1  C   UNL     1      47.451   7.814  11.955  0.00  0.00    +0.000 C 
ENDROOT
BRANCH   1   2
ATOM      2  C   UNL     1      48.040   7.919  13.336  0.00  0.00    +0.000 A 
ATOM      3  C   UNL     1      48.931   6.939  13.775  0.00  0.00    +0.000 A 
ATOM      4  C   UNL     1      49.472   6.999  15.057  0.00  0.00    +0.000 A 
ATOM      5  C   UNL     1      49.157   8.048  15.935  0.00  0.00    +0.000 A 
ATOM      6  C   UNL     1      48.229   9.007  15.507  0.00  0.00    +0.000 A 
ATOM      7  C   UNL     1      47.674   8.943  14.220  0.00  0.00    +0.000 A 
BRANCH   5   8
ATOM      8  C   UNL     1      49.762   8.128  17.325  0.00  0.00    +0.000 C 
BRANCH   8   9
ATOM      9  C   UNL     1      49.747   6.780  18.058  0.00  0.00    +0.000 C 
BRANCH   9  10
ATOM     10  C   UNL     1      48.422   6.451  18.750  0.00  0.00    +0.000 C 
BRANCH  10  11
ATOM     11  N   UNL     1      48.050   5.045  18.521  0.00  0.00    +0.000 NA
ATOM     12  C   UNL     1      49.194   4.134  18.650  0.00  0.00    +0.000 C 
ATOM     13  C   UNL     1      48.921   2.966  17.698  0.00  0.00    +0.000 C 
ATOM     14  C   UNL     1      47.584   3.283  17.053  0.00  0.00    +0.000 C 
ATOM     15  C   UNL     1      47.471   4.797  17.189  0.00  0.00    +0.000 C 
BRANCH  14  16
ATOM     16  O   UNL     1      46.538   2.634  17.778  0.00  0.00    +0.000 OA
ATOM     17  H   UNL     1      46.984   2.118  18.477  0.00  0.00    +0.000 HD
ENDBRANCH  14  16
ENDBRANCH  10  11
ENDBRANCH   9  10
ENDBRANCH   8   9
ENDBRANCH   5   8
ENDBRANCH   1   2
BRANCH   1  20
ATOM     18  O   UNL     1      44.650   7.455  11.955  0.00  0.00    +0.000 OA
ATOM     19  C   UNL     1      45.379   6.492  11.735  0.00  0.00    +0.000 C 
ATOM     20  N   UNL     1      46.746   6.567  11.795  0.00  0.00    +0.000 N 
ATOM     21  H   UNL     1      47.294   5.808  11.409  0.00  0.00    +0.000 HD
BRANCH  19  22
ATOM     22  C   UNL     1      44.822   5.163  11.446  0.00  0.00    +0.000 A 
ATOM     23  C   UNL     1      44.058   4.511  12.404  0.00  0.00    +0.000 A 
ATOM     24  S   UNL     1      43.522   2.968  11.918  0.00  0.00    +0.000 S 
ATOM     25  C   UNL     1      44.251   3.137  10.389  0.00  0.00    +0.000 A 
ATOM     26  N   UNL     1      44.146   2.156   9.453  0.00  0.00    +0.000 NA
ATOM     27  C   UNL     1      44.708   2.434   8.323  0.00  0.00    +0.000 A 
ATOM     28  N   UNL     1      45.372   3.598   8.045  0.00  0.00    +0.000 N 
ATOM     29  C   UNL     1      45.569   4.584   8.984  0.00  0.00    +0.000 A 
ATOM     30  O   UNL     1      46.279   5.554   8.743  0.00  0.00    +0.000 OA
ATOM     31  C   UNL     1      44.916   4.344  10.260  0.00  0.00    +0.000 A 
ATOM     32  H   UNL     1      45.811   3.746   7.149  0.00  0.00    +0.000 HD
ENDBRANCH  19  22
ENDBRANCH   1  20
TORSDOF 8
ENDMDL
MODEL 4
REMARK VINA RESULT:    -6.992      4.818      9.072
REMARK INTER + INTRA:         -11.224
REMARK INTER:                 -10.371
REMARK INTRA:                  -0.852
REMARK UNBOUND:                -1.166
REMARK  Name = 
REMARK  8 active torsions:
REMARK  status: ('A' for Active; 'I' for Inactive)
REMARK    1  A    between atoms: C_2  and  C_20
REMARK    2  A    between atoms: N_3  and  C_4
REMARK    3  A    between atoms: C_4  and  C_5
REMARK    4  A    between atoms: C_8  and  C_9
REMARK    5  A    between atoms: C_9  and  C_10
REMARK    6  A    between atoms: C_10  and  C_11
REMARK    7  A    between atoms: C_11  and  N_12
REMARK    8  A    between atoms: C_15  and  O_16
REMARK                            x       y       z     vdW  Elec       q    Type
REMARK                         _______ _______ _______ _____ _____    ______ ____
ROOT
ATOM      1  C   UNL     1      47.169   3.705  16.928  0.00  0.00    +0.000 C 
ENDROOT
BRANCH   1   2
ATOM      2  C   UNL     1      48.654   3.656  17.164  0.00  0.00    +0.000 A 
ATOM      3  C   UNL     1      49.355   4.847  17.361  0.00  0.00    +0.000 A 
ATOM      4  C   UNL     1      50.733   4.832  17.558  0.00  0.00    +0.000 A 
ATOM      5  C   UNL     1      51.455   3.628  17.583  0.00  0.00    +0.000 A 
ATOM      6  C   UNL     1      50.757   2.438  17.342  0.00  0.00    +0.000 A 
ATOM      7  C   UNL     1      49.369   2.451  17.132  0.00  0.00    +0.000 A 
BRANCH   5   8
ATOM      8  C   UNL     1      52.955   3.607  17.818  0.00  0.00    +0.000 C 
BRANCH   8   9
ATOM      9  C   UNL     1      53.477   2.216  18.204  0.00  0.00    +0.000 C 
BRANCH   9  10
ATOM     10  C   UNL     1      54.631   1.712  17.335  0.00  0.00    +0.000 C 
BRANCH  10  11
ATOM     11  N   UNL     1      54.402   0.317  16.924  0.00  0.00    +0.000 NA
ATOM     12  C   UNL     1      54.371  -0.607  18.065  0.00  0.00    +0.000 C 
ATOM     13  C   UNL     1      54.900  -1.946  17.547  0.00  0.00    +0.000 C 
ATOM     14  C   UNL     1      55.216  -1.709  16.081  0.00  0.00    +0.000 C 
ATOM     15  C   UNL     1      55.426  -0.201  15.999  0.00  0.00    +0.000 C 
BRANCH  14  16
ATOM     16  O   UNL     1      54.100  -2.104  15.282  0.00  0.00    +0.000 OA
ATOM     17  H   UNL     1      53.426  -2.424  15.912  0.00  0.00    +0.000 HD
ENDBRANCH  14  16
ENDBRANCH  10  11
ENDBRANCH   9  10
ENDBRANCH   8   9
ENDBRANCH   5   8
ENDBRANCH   1   2
BRANCH   1  20
ATOM     18  O   UNL     1      47.226   3.182  14.154  0.00  0.00    +0.000 OA
ATOM     19  C   UNL     1      46.834   4.275  14.551  0.00  0.00    +0.000 C 
ATOM     20  N   UNL     1      46.851   4.634  15.874  0.00  0.00    +0.000 N 
ATOM     21  H   UNL     1      46.333   5.455  16.163  0.00  0.00    +0.000 HD
BRANCH  19  22
ATOM     22  C   UNL     1      46.371   5.307  13.613  0.00  0.00    +0.000 A 
ATOM     23  C   UNL     1      47.214   6.353  13.264  0.00  0.00    +0.000 A 
ATOM     24  S   UNL     1      46.505   7.476  12.196  0.00  0.00    +0.000 S 
ATOM     25  C   UNL     1      45.062   6.577  12.122  0.00  0.00    +0.000 A 
ATOM     26  N   UNL     1      44.025   6.984  11.343  0.00  0.00    +0.000 NA
ATOM     27  C   UNL     1      43.009   6.185  11.345  0.00  0.00    +0.000 A 
ATOM     28  N   UNL     1      42.931   5.022  12.062  0.00  0.00    +0.000 N 
ATOM     29  C   UNL     1      43.923   4.610  12.922  0.00  0.00    +0.000 A 
ATOM     30  O   UNL     1      43.766   3.635  13.647  0.00  0.00    +0.000 OA
ATOM     31  C   UNL     1      45.110   5.448  12.921  0.00  0.00    +0.000 A 
ATOM     32  H   UNL     1      42.099   4.452  12.041  0.00  0.00    +0.000 HD
ENDBRANCH  19  22
ENDBRANCH   1  20
TORSDOF 8
ENDMDL
MODEL 5
REMARK VINA RESULT:    -6.878      2.217      3.907
REMARK INTER + INTRA:         -11.059
REMARK INTER:                 -10.041
REMARK INTRA:                  -1.018
REMARK UNBOUND:                -1.166
REMARK  Name = 
REMARK  8 active torsions:
REMARK  status: ('A' for Active; 'I' for Inactive)
REMARK    1  A    between atoms: C_2  and  C_20
REMARK    2  A    between atoms: N_3  and  C_4
REMARK    3  A    between atoms: C_4  and  C_5
REMARK    4  A    between atoms: C_8  and  C_9
REMARK    5  A    between atoms: C_9  and  C_10
REMARK    6  A    between atoms: C_10  and  C_11
REMARK    7  A    between atoms: C_11  and  N_12
REMARK    8  A    between atoms: C_15  and  O_16
REMARK                            x       y       z     vdW  Elec       q    Type
REMARK                         _______ _______ _______ _____ _____    ______ ____
ROOT
ATOM      1  C   UNL     1      47.337   4.992  14.789  0.00  0.00    +0.000 C 
ENDROOT
BRANCH   1   2
ATOM      2  C   UNL     1      46.437   4.750  13.607  0.00  0.00    +0.000 A 
ATOM      3  C   UNL     1      45.937   5.840  12.894  0.00  0.00    +0.000 A 
ATOM      4  C   UNL     1      45.082   5.645  11.812  0.00  0.00    +0.000 A 
ATOM      5  C   UNL     1      44.713   4.356  11.395  0.00  0.00    +0.000 A 
ATOM      6  C   UNL     1      45.181   3.265  12.139  0.00  0.00    +0.000 A 
ATOM      7  C   UNL     1      46.034   3.459  13.236  0.00  0.00    +0.000 A 
BRANCH   5   8
ATOM      8  C   UNL     1      43.799   4.140  10.203  0.00  0.00    +0.000 C 
BRANCH   8   9
ATOM      9  C   UNL     1      44.568   3.982   8.884  0.00  0.00    +0.000 C 
BRANCH   9  10
ATOM     10  C   UNL     1      45.321   2.658   8.746  0.00  0.00    +0.000 C 
BRANCH  10  11
ATOM     11  N   UNL     1      46.435   2.788   7.791  0.00  0.00    +0.000 NA
ATOM     12  C   UNL     1      46.032   3.459   6.549  0.00  0.00    +0.000 C 
ATOM     13  C   UNL     1      46.913   2.875   5.442  0.00  0.00    +0.000 C 
ATOM     14  C   UNL     1      47.807   1.864   6.137  0.00  0.00    +0.000 C 
ATOM     15  C   UNL     1      47.025   1.499   7.393  0.00  0.00    +0.000 C 
BRANCH  14  16
ATOM     16  O   UNL     1      49.049   2.481   6.480  0.00  0.00    +0.000 OA
ATOM     17  H   UNL     1      49.742   1.860   6.183  0.00  0.00    +0.000 HD
ENDBRANCH  14  16
ENDBRANCH  10  11
ENDBRANCH   9  10
ENDBRANCH   8   9
ENDBRANCH   5   8
ENDBRANCH   1   2
BRANCH   1  20
ATOM     18  O   UNL     1      49.614   5.901  16.189  0.00  0.00    +0.000 OA
ATOM     19  C   UNL     1      49.061   6.651  15.391  0.00  0.00    +0.000 C 
ATOM     20  N   UNL     1      47.908   6.313  14.732  0.00  0.00    +0.000 N 
ATOM     21  H   UNL     1      47.613   6.877  13.943  0.00  0.00    +0.000 HD
BRANCH  19  22
ATOM     22  C   UNL     1      49.576   8.003  15.130  0.00  0.00    +0.000 A 
ATOM     23  C   UNL     1      49.906   8.833  16.193  0.00  0.00    +0.000 A 
ATOM     24  S   UNL     1      50.452  10.374  15.713  0.00  0.00    +0.000 S 
ATOM     25  C   UNL     1      50.315   9.969  14.066  0.00  0.00    +0.000 A 
ATOM     26  N   UNL     1      50.660  10.859  13.097  0.00  0.00    +0.000 NA
ATOM     27  C   UNL     1      50.549  10.406  11.891  0.00  0.00    +0.000 A 
ATOM     28  N   UNL     1      50.117   9.149  11.565  0.00  0.00    +0.000 N 
ATOM     29  C   UNL     1      49.686   8.243  12.507  0.00  0.00    +0.000 A 
ATOM     30  O   UNL     1      49.184   7.176  12.174  0.00  0.00    +0.000 OA
ATOM     31  C   UNL     1      49.835   8.684  13.883  0.00  0.00    +0.000 A 
ATOM     32  H   UNL     1      50.029   8.862  10.602  0.00  0.00    +0.000 HD
ENDBRANCH  19  22
ENDBRANCH   1  20
TORSDOF 8
ENDMDL
MODEL 6
REMARK VINA RESULT:    -6.553      1.517      2.292
REMARK INTER + INTRA:         -10.593
REMARK INTER:                  -9.443
REMARK INTRA:                  -1.150
REMARK UNBOUND:                -1.166
REMARK  Name = 
REMARK  8 active torsions:
REMARK  status: ('A' for Active; 'I' for Inactive)
REMARK    1  A    between atoms: C_2  and  C_20
REMARK    2  A    between atoms: N_3  and  C_4
REMARK    3  A    between atoms: C_4  and  C_5
REMARK    4  A    between atoms: C_8  and  C_9
REMARK    5  A    between atoms: C_9  and  C_10
REMARK    6  A    between atoms: C_10  and  C_11
REMARK    7  A    between atoms: C_11  and  N_12
REMARK    8  A    between atoms: C_15  and  O_16
REMARK                            x       y       z     vdW  Elec       q    Type
REMARK                         _______ _______ _______ _____ _____    ______ ____
ROOT
ATOM      1  C   UNL     1      48.536   8.997  14.018  0.00  0.00    +0.000 C 
ENDROOT
BRANCH   1   2
ATOM      2  C   UNL     1      47.519   8.200  13.246  0.00  0.00    +0.000 A 
ATOM      3  C   UNL     1      47.935   7.088  12.513  0.00  0.00    +0.000 A 
ATOM      4  C   UNL     1      47.019   6.347  11.772  0.00  0.00    +0.000 A 
ATOM      5  C   UNL     1      45.655   6.680  11.752  0.00  0.00    +0.000 A 
ATOM      6  C   UNL     1      45.247   7.821  12.453  0.00  0.00    +0.000 A 
ATOM      7  C   UNL     1      46.170   8.576  13.193  0.00  0.00    +0.000 A 
BRANCH   5   8
ATOM      8  C   UNL     1      44.650   5.861  10.961  0.00  0.00    +0.000 C 
BRANCH   8   9
ATOM      9  C   UNL     1      45.296   5.075   9.812  0.00  0.00    +0.000 C 
BRANCH   9  10
ATOM     10  C   UNL     1      44.367   4.063   9.138  0.00  0.00    +0.000 C 
BRANCH  10  11
ATOM     11  N   UNL     1      45.086   3.309   8.097  0.00  0.00    +0.000 NA
ATOM     12  C   UNL     1      45.423   1.946   8.525  0.00  0.00    +0.000 C 
ATOM     13  C   UNL     1      46.722   1.579   7.802  0.00  0.00    +0.000 C 
ATOM     14  C   UNL     1      47.070   2.798   6.967  0.00  0.00    +0.000 C 
ATOM     15  C   UNL     1      46.351   3.938   7.680  0.00  0.00    +0.000 C 
BRANCH  14  16
ATOM     16  O   UNL     1      46.558   2.632   5.644  0.00  0.00    +0.000 OA
ATOM     17  H   UNL     1      45.707   2.163   5.748  0.00  0.00    +0.000 HD
ENDBRANCH  14  16
ENDBRANCH  10  11
ENDBRANCH   9  10
ENDBRANCH   8   9
ENDBRANCH   5   8
ENDBRANCH   1   2
BRANCH   1  20
ATOM     18  O   UNL     1      47.811   9.427  16.712  0.00  0.00    +0.000 OA
ATOM     19  C   UNL     1      48.545   8.484  16.431  0.00  0.00    +0.000 C 
ATOM     20  N   UNL     1      49.005   8.256  15.160  0.00  0.00    +0.000 N 
ATOM     21  H   UNL     1      49.431   7.361  14.949  0.00  0.00    +0.000 HD
BRANCH  19  22
ATOM     22  C   UNL     1      49.031   7.560  17.465  0.00  0.00    +0.000 A 
ATOM     23  C   UNL     1      49.601   8.062  18.627  0.00  0.00    +0.000 A 
ATOM     24  S   UNL     1      50.142   6.853  19.700  0.00  0.00    +0.000 S 
ATOM     25  C   UNL     1      49.589   5.616  18.671  0.00  0.00    +0.000 A 
ATOM     26  N   UNL     1      49.723   4.307  19.018  0.00  0.00    +0.000 NA
ATOM     27  C   UNL     1      49.220   3.475  18.167  0.00  0.00    +0.000 A 
ATOM     28  N   UNL     1      48.604   3.830  16.997  0.00  0.00    +0.000 N 
ATOM     29  C   UNL     1      48.514   5.134  16.569  0.00  0.00    +0.000 A 
ATOM     30  O   UNL     1      48.075   5.406  15.458  0.00  0.00    +0.000 OA
ATOM     31  C   UNL     1      49.022   6.116  17.513  0.00  0.00    +0.000 A 
ATOM     32  H   UNL     1      48.253   3.130  16.361  0.00  0.00    +0.000 HD
ENDBRANCH  19  22
ENDBRANCH   1  20
TORSDOF 8
ENDMDL
MODEL 7
REMARK VINA RESULT:    -6.553      3.903      8.107
REMARK INTER + INTRA:         -10.592
REMARK INTER:                  -8.751
REMARK INTRA:                  -1.842
REMARK UNBOUND:                -1.166
REMARK  Name = 
REMARK  8 active torsions:
REMARK  status: ('A' for Active; 'I' for Inactive)
REMARK    1  A    between atoms: C_2  and  C_20
REMARK    2  A    between atoms: N_3  and  C_4
REMARK    3  A    between atoms: C_4  and  C_5
REMARK    4  A    between atoms: C_8  and  C_9
REMARK    5  A    between atoms: C_9  and  C_10
REMARK    6  A    between atoms: C_10  and  C_11
REMARK    7  A    between atoms: C_11  and  N_12
REMARK    8  A    between atoms: C_15  and  O_16
REMARK                            x       y       z     vdW  Elec       q    Type
REMARK                         _______ _______ _______ _____ _____    ______ ____
ROOT
ATOM      1  C   UNL     1      47.923   9.387  14.547  0.00  0.00    +0.000 C 
ENDROOT
BRANCH   1   2
ATOM      2  C   UNL     1      48.862   8.658  15.471  0.00  0.00    +0.000 A 
ATOM      3  C   UNL     1      49.793   7.767  14.936  0.00  0.00    +0.000 A 
ATOM      4  C   UNL     1      50.657   7.062  15.770  0.00  0.00    +0.000 A 
ATOM      5  C   UNL     1      50.633   7.236  17.162  0.00  0.00    +0.000 A 
ATOM      6  C   UNL     1      49.670   8.099  17.700  0.00  0.00    +0.000 A 
ATOM      7  C   UNL     1      48.790   8.803  16.863  0.00  0.00    +0.000 A 
BRANCH   5   8
ATOM      8  C   UNL     1      51.588   6.485  18.072  0.00  0.00    +0.000 C 
BRANCH   8   9
ATOM      9  C   UNL     1      51.144   5.040  18.337  0.00  0.00    +0.000 C 
BRANCH   9  10
ATOM     10  C   UNL     1      49.887   4.912  19.198  0.00  0.00    +0.000 C 
BRANCH  10  11
ATOM     11  N   UNL     1      48.912   4.006  18.568  0.00  0.00    +0.000 NA
ATOM     12  C   UNL     1      49.523   3.153  17.541  0.00  0.00    +0.000 C 
ATOM     13  C   UNL     1      48.432   2.884  16.502  0.00  0.00    +0.000 C 
ATOM     14  C   UNL     1      47.208   3.626  17.009  0.00  0.00    +0.000 C 
ATOM     15  C   UNL     1      47.793   4.705  17.913  0.00  0.00    +0.000 C 
BRANCH  14  16
ATOM     16  O   UNL     1      46.387   2.732  17.762  0.00  0.00    +0.000 OA
ATOM     17  H   UNL     1      46.971   2.354  18.449  0.00  0.00    +0.000 HD
ENDBRANCH  14  16
ENDBRANCH  10  11
ENDBRANCH   9  10
ENDBRANCH   8   9
ENDBRANCH   5   8
ENDBRANCH   1   2
BRANCH   1  20
ATOM     18  O   UNL     1      47.486   8.734  11.835  0.00  0.00    +0.000 OA
ATOM     19  C   UNL     1      46.822   8.174  12.703  0.00  0.00    +0.000 C 
ATOM     20  N   UNL     1      46.919   8.492  14.032  0.00  0.00    +0.000 N 
ATOM     21  H   UNL     1      46.507   7.867  14.715  0.00  0.00    +0.000 HD
BRANCH  19  22
ATOM     22  C   UNL     1      45.822   7.153  12.359  0.00  0.00    +0.000 A 
ATOM     23  C   UNL     1      44.695   7.508  11.631  0.00  0.00    +0.000 A 
ATOM     24  S   UNL     1      43.625   6.210  11.352  0.00  0.00    +0.000 S 
ATOM     25  C   UNL     1      44.657   5.117  12.151  0.00  0.00    +0.000 A 
ATOM     26  N   UNL     1      44.337   3.799  12.248  0.00  0.00    +0.000 NA
ATOM     27  C   UNL     1      45.230   3.075  12.840  0.00  0.00    +0.000 A 
ATOM     28  N   UNL     1      46.408   3.549  13.351  0.00  0.00    +0.000 N 
ATOM     29  C   UNL     1      46.738   4.884  13.343  0.00  0.00    +0.000 A 
ATOM     30  O   UNL     1      47.737   5.292  13.925  0.00  0.00    +0.000 OA
ATOM     31  C   UNL     1      45.790   5.738  12.646  0.00  0.00    +0.000 A 
ATOM     32  H   UNL     1      47.054   2.936  13.824  0.00  0.00    +0.000 HD
ENDBRANCH  19  22
ENDBRANCH   1  20
TORSDOF 8
ENDMDL
MODEL 8
REMARK VINA RESULT:    -6.552      2.121      2.699
REMARK INTER + INTRA:         -10.590
REMARK INTER:                 -10.116
REMARK INTRA:                  -0.475
REMARK UNBOUND:                -1.166
REMARK  Name = 
REMARK  8 active torsions:
REMARK  status: ('A' for Active; 'I' for Inactive)
REMARK    1  A    between atoms: C_2  and  C_20
REMARK    2  A    between atoms: N_3  and  C_4
REMARK    3  A    between atoms: C_4  and  C_5
REMARK    4  A    between atoms: C_8  and  C_9
REMARK    5  A    between atoms: C_9  and  C_10
REMARK    6  A    between atoms: C_10  and  C_11
REMARK    7  A    between atoms: C_11  and  N_12
REMARK    8  A    between atoms: C_15  and  O_16
REMARK                            x       y       z     vdW  Elec       q    Type
REMARK                         _______ _______ _______ _____ _____    ______ ____
ROOT
ATOM      1  C   UNL     1      47.461   4.261  14.731  0.00  0.00    +0.000 C 
ENDROOT
BRANCH   1   2
ATOM      2  C   UNL     1      46.517   4.361  13.562  0.00  0.00    +0.000 A 
ATOM      3  C   UNL     1      45.808   3.229  13.158  0.00  0.00    +0.000 A 
ATOM      4  C   UNL     1      44.946   3.289  12.065  0.00  0.00    +0.000 A 
ATOM      5  C   UNL     1      44.751   4.482  11.353  0.00  0.00    +0.000 A 
ATOM      6  C   UNL     1      45.496   5.605  11.733  0.00  0.00    +0.000 A 
ATOM      7  C   UNL     1      46.373   5.545  12.827  0.00  0.00    +0.000 A 
BRANCH   5   8
ATOM      8  C   UNL     1      43.796   4.555  10.174  0.00  0.00    +0.000 C 
BRANCH   8   9
ATOM      9  C   UNL     1      44.427   4.058   8.866  0.00  0.00    +0.000 C 
BRANCH   9  10
ATOM     10  C   UNL     1      45.304   2.815   9.020  0.00  0.00    +0.000 C 
BRANCH  10  11
ATOM     11  N   UNL     1      46.387   2.814   8.022  0.00  0.00    +0.000 NA
ATOM     12  C   UNL     1      46.023   3.538   6.798  0.00  0.00    +0.000 C 
ATOM     13  C   UNL     1      46.781   2.858   5.656  0.00  0.00    +0.000 C 
ATOM     14  C   UNL     1      47.570   1.739   6.313  0.00  0.00    +0.000 C 
ATOM     15  C   UNL     1      46.798   1.464   7.598  0.00  0.00    +0.000 C 
BRANCH  14  16
ATOM     16  O   UNL     1      48.891   2.197   6.608  0.00  0.00    +0.000 OA
ATOM     17  H   UNL     1      49.351   1.431   7.005  0.00  0.00    +0.000 HD
ENDBRANCH  14  16
ENDBRANCH  10  11
ENDBRANCH   9  10
ENDBRANCH   8   9
ENDBRANCH   5   8
ENDBRANCH   1   2
BRANCH   1  20
ATOM     18  O   UNL     1      49.435   4.996  16.610  0.00  0.00    +0.000 OA
ATOM     19  C   UNL     1      48.607   5.828  16.253  0.00  0.00    +0.000 C 
ATOM     20  N   UNL     1      47.571   5.528  15.406  0.00  0.00    +0.000 N 
ATOM     21  H   UNL     1      47.047   6.287  14.988  0.00  0.00    +0.000 HD
BRANCH  19  22
ATOM     22  C   UNL     1      48.638   7.205  16.765  0.00  0.00    +0.000 A 
ATOM     23  C   UNL     1      49.018   8.245  15.927  0.00  0.00    +0.000 A 
ATOM     24  S   UNL     1      49.033   9.768  16.692  0.00  0.00    +0.000 S 
ATOM     25  C   UNL     1      48.483   9.099  18.156  0.00  0.00    +0.000 A 
ATOM     26  N   UNL     1      48.256   9.886  19.242  0.00  0.00    +0.000 NA
ATOM     27  C   UNL     1      47.798   9.255  20.273  0.00  0.00    +0.000 A 
ATOM     28  N   UNL     1      47.556   7.909  20.322  0.00  0.00    +0.000 N 
ATOM     29  C   UNL     1      47.842   7.063  19.275  0.00  0.00    +0.000 A 
ATOM     30  O   UNL     1      47.737   5.849  19.397  0.00  0.00    +0.000 OA
ATOM     31  C   UNL     1      48.314   7.728  18.072  0.00  0.00    +0.000 A 
ATOM     32  H   UNL     1      47.221   7.470  21.166  0.00  0.00    +0.000 HD
ENDBRANCH  19  22
ENDBRANCH   1  20
TORSDOF 8
ENDMDL
MODEL 9
REMARK VINA RESULT:    -6.538      4.073      8.742
REMARK INTER + INTRA:         -10.570
REMARK INTER:                  -9.463
REMARK INTRA:                  -1.107
REMARK UNBOUND:                -1.166
REMARK  Name = 
REMARK  8 active torsions:
REMARK  status: ('A' for Active; 'I' for Inactive)
REMARK    1  A    between atoms: C_2  and  C_20
REMARK    2  A    between atoms: N_3  and  C_4
REMARK    3  A    between atoms: C_4  and  C_5
REMARK    4  A    between atoms: C_8  and  C_9
REMARK    5  A    between atoms: C_9  and  C_10
REMARK    6  A    between atoms: C_10  and  C_11
REMARK    7  A    between atoms: C_11  and  N_12
REMARK    8  A    between atoms: C_15  and  O_16
REMARK                            x       y       z     vdW  Elec       q    Type
REMARK                         _______ _______ _______ _____ _____    ______ ____
ROOT
ATOM      1  C   UNL     1      47.222   3.366  16.757  0.00  0.00    +0.000 C 
ENDROOT
BRANCH   1   2
ATOM      2  C   UNL     1      48.681   3.516  17.097  0.00  0.00    +0.000 A 
ATOM      3  C   UNL     1      49.519   2.403  17.020  0.00  0.00    +0.000 A 
ATOM      4  C   UNL     1      50.867   2.509  17.352  0.00  0.00    +0.000 A 
ATOM      5  C   UNL     1      51.427   3.732  17.754  0.00  0.00    +0.000 A 
ATOM      6  C   UNL     1      50.575   4.837  17.872  0.00  0.00    +0.000 A 
ATOM      7  C   UNL     1      49.214   4.731  17.548  0.00  0.00    +0.000 A 
BRANCH   5   8
ATOM      8  C   UNL     1      52.901   3.855  18.096  0.00  0.00    +0.000 C 
BRANCH   8   9
ATOM      9  C   UNL     1      53.448   5.271  17.871  0.00  0.00    +0.000 C 
BRANCH   9  10
ATOM     10  C   UNL     1      54.440   5.389  16.713  0.00  0.00    +0.000 C 
BRANCH  10  11
ATOM     11  N   UNL     1      53.922   6.291  15.671  0.00  0.00    +0.000 NA
ATOM     12  C   UNL     1      54.960   7.177  15.130  0.00  0.00    +0.000 C 
ATOM     13  C   UNL     1      54.251   8.469  14.720  0.00  0.00    +0.000 C 
ATOM     14  C   UNL     1      52.788   8.245  15.062  0.00  0.00    +0.000 C 
ATOM     15  C   UNL     1      52.833   7.167  16.138  0.00  0.00    +0.000 C 
BRANCH  14  16
ATOM     16  O   UNL     1      52.095   7.772  13.906  0.00  0.00    +0.000 OA
ATOM     17  H   UNL     1      52.534   6.934  13.662  0.00  0.00    +0.000 HD
ENDBRANCH  14  16
ENDBRANCH  10  11
ENDBRANCH   9  10
ENDBRANCH   8   9
ENDBRANCH   5   8
ENDBRANCH   1   2
BRANCH   1  20
ATOM     18  O   UNL     1      47.240   3.091  13.947  0.00  0.00    +0.000 OA
ATOM     19  C   UNL     1      46.790   4.118  14.447  0.00  0.00    +0.000 C 
ATOM     20  N   UNL     1      46.818   4.360  15.796  0.00  0.00    +0.000 N 
ATOM     21  H   UNL     1      46.257   5.117  16.167  0.00  0.00    +0.000 HD
BRANCH  19  22
ATOM     22  C   UNL     1      46.237   5.194  13.614  0.00  0.00    +0.000 A 
ATOM     23  C   UNL     1      46.953   6.371  13.441  0.00  0.00    +0.000 A 
ATOM     24  S   UNL     1      46.150   7.524  12.476  0.00  0.00    +0.000 S 
ATOM     25  C   UNL     1      44.840   6.471  12.212  0.00  0.00    +0.000 A 
ATOM     26  N   UNL     1      43.792   6.842  11.428  0.00  0.00    +0.000 NA
ATOM     27  C   UNL     1      42.888   5.931  11.277  0.00  0.00    +0.000 A 
ATOM     28  N   UNL     1      42.931   4.686  11.845  0.00  0.00    +0.000 N 
ATOM     29  C   UNL     1      43.931   4.295  12.705  0.00  0.00    +0.000 A 
ATOM     30  O   UNL     1      43.871   3.224  13.298  0.00  0.00    +0.000 OA
ATOM     31  C   UNL     1      44.999   5.265  12.872  0.00  0.00    +0.000 A 
ATOM     32  H   UNL     1      42.181   4.026  11.708  0.00  0.00    +0.000 HD
ENDBRANCH  19  22
ENDBRANCH   1  20
TORSDOF 8
ENDMDL
