MODEL 1
REMARK VINA RESULT:    -7.565      0.000      0.000
REMARK INTER + INTRA:         -10.195
REMARK INTER:                  -9.556
REMARK INTRA:                  -0.639
REMARK UNBOUND:                -0.639
REMARK  Name = 
REMARK  5 active torsions:
REMARK  status: ('A' for Active; 'I' for Inactive)
REMARK    1  A    between atoms: N_1  and  C_2
REMARK    2  A    between atoms: C_2  and  C_3
REMARK    3  A    between atoms: C_6  and  C_7
REMARK    4  A    between atoms: C_7  and  C_8
REMARK    5  A    between atoms: C_8  and  C_9
REMARK                            x       y       z     vdW  Elec       q    Type
REMARK                         _______ _______ _______ _____ _____    ______ ____
ROOT
ATOM      1  C   UNL     1      46.618   2.321   7.523  0.00  0.00    +0.000 A 
ATOM      2  C   UNL     1      46.440   3.710   7.485  0.00  0.00    +0.000 A 
ATOM      3  C   UNL     1      45.512   4.339   8.320  0.00  0.00    +0.000 A 
ATOM      4  C   UNL     1      44.716   3.593   9.199  0.00  0.00    +0.000 A 
ATOM      5  C   UNL     1      44.913   2.203   9.251  0.00  0.00    +0.000 A 
ATOM      6  C   UNL     1      45.847   1.576   8.421  0.00  0.00    +0.000 A 
ENDROOT
BRANCH   1   7
ATOM      7  C   UNL     1      47.613   1.651   6.612  0.00  0.00    +0.000 C 
BRANCH   7   8
ATOM      8  N   UNL     1      48.730   2.532   6.291  0.00  0.00    +0.000 NA
ATOM      9  H   UNL     1      49.261   2.721   7.139  0.00  0.00    +0.000 HD
ATOM     10  H   UNL     1      48.360   3.427   5.975  0.00  0.00    +0.000 HD
ENDBRANCH   7   8
ENDBRANCH   1   7
BRANCH   4  11
ATOM     11  C   UNL     1      43.711   4.228  10.142  0.00  0.00    +0.000 C 
BRANCH  11  12
ATOM     12  C   UNL     1      43.800   3.755  11.596  0.00  0.00    +0.000 C 
BRANCH  12  13
ATOM     13  C   UNL     1      44.986   4.333  12.328  0.00  0.00    +0.000 A 
ATOM     14  C   UNL     1      45.360   5.665  12.157  0.00  0.00    +0.000 A 
ATOM     15  C   UNL     1      46.490   6.138  12.821  0.00  0.00    +0.000 A 
ATOM     16  C   UNL     1      47.212   5.272  13.634  0.00  0.00    +0.000 A 
ATOM     17  C   UNL     1      46.765   3.969  13.753  0.00  0.00    +0.000 A 
ATOM     18  F   UNL     1      47.462   3.125  14.528  0.00  0.00    +0.000 F 
ATOM     19  N   UNL     1      45.673   3.485  13.129  0.00  0.00    +0.000 NA
ENDBRANCH  12  13
ENDBRANCH  11  12
ENDBRANCH   4  11
TORSDOF 5
ENDMDL
MODEL 2
REMARK VINA RESULT:    -7.270      2.450      5.805
REMARK INTER + INTRA:          -9.822
REMARK INTER:                  -9.274
REMARK INTRA:                  -0.548
REMARK UNBOUND:                -0.639
REMARK  Name = 
REMARK  5 active torsions:
REMARK  status: ('A' for Active; 'I' for Inactive)
REMARK    1  A    between atoms: N_1  and  C_2
REMARK    2  A    between atoms: C_2  and  C_3
REMARK    3  A    between atoms: C_6  and  C_7
REMARK    4  A    between atoms: C_7  and  C_8
REMARK    5  A    between atoms: C_8  and  C_9
REMARK                            x       y       z     vdW  Elec       q    Type
REMARK                         _______ _______ _______ _____ _____    ______ ____
ROOT
ATOM      1  C   UNL     1      46.935   5.841  12.984  0.00  0.00    +0.000 A 
ATOM      2  C   UNL     1      46.751   6.532  11.780  0.00  0.00    +0.000 A 
ATOM      3  C   UNL     1      45.843   6.073  10.821  0.00  0.00    +0.000 A 
ATOM      4  C   UNL     1      45.112   4.896  11.028  0.00  0.00    +0.000 A 
ATOM      5  C   UNL     1      45.283   4.218  12.247  0.00  0.00    +0.000 A 
ATOM      6  C   UNL     1      46.187   4.681  13.208  0.00  0.00    +0.000 A 
ENDROOT
BRANCH   1   7
ATOM      7  C   UNL     1      47.924   6.336  14.008  0.00  0.00    +0.000 C 
BRANCH   7   8
ATOM      8  N   UNL     1      47.891   5.531  15.223  0.00  0.00    +0.000 NA
ATOM      9  H   UNL     1      48.629   5.843  15.851  0.00  0.00    +0.000 HD
ATOM     10  H   UNL     1      48.105   4.565  14.981  0.00  0.00    +0.000 HD
ENDBRANCH   7   8
ENDBRANCH   1   7
BRANCH   4  11
ATOM     11  C   UNL     1      44.098   4.368  10.031  0.00  0.00    +0.000 C 
BRANCH  11  12
ATOM     12  C   UNL     1      44.217   2.873   9.717  0.00  0.00    +0.000 C 
BRANCH  12  13
ATOM     13  C   UNL     1      45.266   2.575   8.675  0.00  0.00    +0.000 A 
ATOM     14  C   UNL     1      45.684   3.552   7.772  0.00  0.00    +0.000 A 
ATOM     15  C   UNL     1      46.622   3.214   6.800  0.00  0.00    +0.000 A 
ATOM     16  C   UNL     1      47.115   1.915   6.755  0.00  0.00    +0.000 A 
ATOM     17  C   UNL     1      46.651   1.011   7.693  0.00  0.00    +0.000 A 
ATOM     18  F   UNL     1      47.115  -0.246   7.650  0.00  0.00    +0.000 F 
ATOM     19  N   UNL     1      45.750   1.311   8.650  0.00  0.00    +0.000 NA
ENDBRANCH  12  13
ENDBRANCH  11  12
ENDBRANCH   4  11
TORSDOF 5
ENDMDL
MODEL 3
REMARK VINA RESULT:    -7.066      1.651      1.889
REMARK INTER + INTRA:          -9.564
REMARK INTER:                  -9.073
REMARK INTRA:                  -0.491
REMARK UNBOUND:                -0.639
REMARK  Name = 
REMARK  5 active torsions:
REMARK  status: ('A' for Active; 'I' for Inactive)
REMARK    1  A    between atoms: N_1  and  C_2
REMARK    2  A    between atoms: C_2  and  C_3
REMARK    3  A    between atoms: C_6  and  C_7
REMARK    4  A    between atoms: C_7  and  C_8
REMARK    5  A    between atoms: C_8  and  C_9
REMARK                            x       y       z     vdW  Elec       q    Type
REMARK                         _______ _______ _______ _____ _____    ______ ____
ROOT
ATOM      1  C   UNL     1      46.586   2.708   6.796  0.00  0.00    +0.000 A 
ATOM      2  C   UNL     1      46.039   3.933   7.199  0.00  0.00    +0.000 A 
ATOM      3  C   UNL     1      45.261   4.026   8.356  0.00  0.00    +0.000 A 
ATOM      4  C   UNL     1      44.986   2.891   9.130  0.00  0.00    +0.000 A 
ATOM      5  C   UNL     1      45.554   1.668   8.736  0.00  0.00    +0.000 A 
ATOM      6  C   UNL     1      46.338   1.577   7.582  0.00  0.00    +0.000 A 
ENDROOT
BRANCH   1   7
ATOM      7  C   UNL     1      47.415   2.614   5.541  0.00  0.00    +0.000 C 
BRANCH   7   8
ATOM      8  N   UNL     1      48.616   1.812   5.747  0.00  0.00    +0.000 NA
ATOM      9  H   UNL     1      49.063   1.643   4.847  0.00  0.00    +0.000 HD
ATOM     10  H   UNL     1      48.342   0.900   6.110  0.00  0.00    +0.000 HD
ENDBRANCH   7   8
ENDBRANCH   1   7
BRANCH   4  11
ATOM     11  C   UNL     1      44.167   2.942  10.406  0.00  0.00    +0.000 C 
BRANCH  11  12
ATOM     12  C   UNL     1      43.985   4.342  11.003  0.00  0.00    +0.000 C 
BRANCH  12  13
ATOM     13  C   UNL     1      45.171   4.789  11.819  0.00  0.00    +0.000 A 
ATOM     14  C   UNL     1      45.603   4.058  12.925  0.00  0.00    +0.000 A 
ATOM     15  C   UNL     1      46.675   4.538  13.673  0.00  0.00    +0.000 A 
ATOM     16  C   UNL     1      47.286   5.729  13.298  0.00  0.00    +0.000 A 
ATOM     17  C   UNL     1      46.799   6.385  12.183  0.00  0.00    +0.000 A 
ATOM     18  F   UNL     1      47.376   7.540  11.820  0.00  0.00    +0.000 F 
ATOM     19  N   UNL     1      45.767   5.942  11.436  0.00  0.00    +0.000 NA
ENDBRANCH  12  13
ENDBRANCH  11  12
ENDBRANCH   4  11
TORSDOF 5
ENDMDL
MODEL 4
REMARK VINA RESULT:    -7.009      2.747      6.100
REMARK INTER + INTRA:          -9.493
REMARK INTER:                  -8.966
REMARK INTRA:                  -0.527
REMARK UNBOUND:                -0.639
REMARK  Name = 
REMARK  5 active torsions:
REMARK  status: ('A' for Active; 'I' for Inactive)
REMARK    1  A    between atoms: N_1  and  C_2
REMARK    2  A    between atoms: C_2  and  C_3
REMARK    3  A    between atoms: C_6  and  C_7
REMARK    4  A    between atoms: C_7  and  C_8
REMARK    5  A    between atoms: C_8  and  C_9
REMARK                            x       y       z     vdW  Elec       q    Type
REMARK                         _______ _______ _______ _____ _____    ______ ____
ROOT
ATOM      1  C   UNL     1      45.427   7.300  12.367  0.00  0.00    +0.000 A 
ATOM      2  C   UNL     1      46.178   6.280  12.966  0.00  0.00    +0.000 A 
ATOM      3  C   UNL     1      45.990   4.943  12.603  0.00  0.00    +0.000 A 
ATOM      4  C   UNL     1      45.028   4.585  11.650  0.00  0.00    +0.000 A 
ATOM      5  C   UNL     1      44.292   5.612  11.036  0.00  0.00    +0.000 A 
ATOM      6  C   UNL     1      44.486   6.950  11.394  0.00  0.00    +0.000 A 
ENDROOT
BRANCH   1   7
ATOM      7  C   UNL     1      45.628   8.738  12.772  0.00  0.00    +0.000 C 
BRANCH   7   8
ATOM      8  N   UNL     1      46.496   8.854  13.938  0.00  0.00    +0.000 NA
ATOM      9  H   UNL     1      46.305   9.736  14.410  0.00  0.00    +0.000 HD
ATOM     10  H   UNL     1      47.464   8.897  13.622  0.00  0.00    +0.000 HD
ENDBRANCH   7   8
ENDBRANCH   1   7
BRANCH   4  11
ATOM     11  C   UNL     1      44.802   3.153  11.205  0.00  0.00    +0.000 C 
BRANCH  11  12
ATOM     12  C   UNL     1      44.265   2.996   9.779  0.00  0.00    +0.000 C 
BRANCH  12  13
ATOM     13  C   UNL     1      45.346   2.666   8.780  0.00  0.00    +0.000 A 
ATOM     14  C   UNL     1      45.912   3.655   7.976  0.00  0.00    +0.000 A 
ATOM     15  C   UNL     1      46.874   3.290   7.037  0.00  0.00    +0.000 A 
ATOM     16  C   UNL     1      47.245   1.955   6.927  0.00  0.00    +0.000 A 
ATOM     17  C   UNL     1      46.638   1.041   7.769  0.00  0.00    +0.000 A 
ATOM     18  F   UNL     1      46.983  -0.250   7.663  0.00  0.00    +0.000 F 
ATOM     19  N   UNL     1      45.709   1.365   8.692  0.00  0.00    +0.000 NA
ENDBRANCH  12  13
ENDBRANCH  11  12
ENDBRANCH   4  11
TORSDOF 5
ENDMDL
MODEL 5
REMARK VINA RESULT:    -6.104      2.634      6.318
REMARK INTER + INTRA:          -8.349
REMARK INTER:                  -7.922
REMARK INTRA:                  -0.427
REMARK UNBOUND:                -0.639
REMARK  Name = 
REMARK  5 active torsions:
REMARK  status: ('A' for Active; 'I' for Inactive)
REMARK    1  A    between atoms: N_1  and  C_2
REMARK    2  A    between atoms: C_2  and  C_3
REMARK    3  A    between atoms: C_6  and  C_7
REMARK    4  A    between atoms: C_7  and  C_8
REMARK    5  A    between atoms: C_8  and  C_9
REMARK                            x       y       z     vdW  Elec       q    Type
REMARK                         _______ _______ _______ _____ _____    ______ ____
ROOT
ATOM      1  C   UNL     1      47.244   4.612  14.832  0.00  0.00    +0.000 A 
ATOM      2  C   UNL     1      47.546   5.891  14.348  0.00  0.00    +0.000 A 
ATOM      3  C   UNL     1      47.046   6.331  13.119  0.00  0.00    +0.000 A 
ATOM      4  C   UNL     1      46.249   5.494  12.327  0.00  0.00    +0.000 A 
ATOM      5  C   UNL     1      45.930   4.220  12.825  0.00  0.00    +0.000 A 
ATOM      6  C   UNL     1      46.425   3.783  14.058  0.00  0.00    +0.000 A 
ENDROOT
BRANCH   1   7
ATOM      7  C   UNL     1      47.797   4.142  16.153  0.00  0.00    +0.000 C 
BRANCH   7   8
ATOM      8  N   UNL     1      46.753   3.586  17.007  0.00  0.00    +0.000 NA
ATOM      9  H   UNL     1      45.844   3.766  16.585  0.00  0.00    +0.000 HD
ATOM     10  H   UNL     1      46.762   4.081  17.898  0.00  0.00    +0.000 HD
ENDBRANCH   7   8
ENDBRANCH   1   7
BRANCH   4  11
ATOM     11  C   UNL     1      45.662   5.931  10.998  0.00  0.00    +0.000 C 
BRANCH  11  12
ATOM     12  C   UNL     1      44.550   5.028  10.454  0.00  0.00    +0.000 C 
BRANCH  12  13
ATOM     13  C   UNL     1      45.055   4.014   9.457  0.00  0.00    +0.000 A 
ATOM     14  C   UNL     1      44.920   2.646   9.688  0.00  0.00    +0.000 A 
ATOM     15  C   UNL     1      45.443   1.751   8.758  0.00  0.00    +0.000 A 
ATOM     16  C   UNL     1      46.084   2.244   7.627  0.00  0.00    +0.000 A 
ATOM     17  C   UNL     1      46.167   3.615   7.474  0.00  0.00    +0.000 A 
ATOM     18  F   UNL     1      46.792   4.099   6.391  0.00  0.00    +0.000 F 
ATOM     19  N   UNL     1      45.664   4.506   8.353  0.00  0.00    +0.000 NA
ENDBRANCH  12  13
ENDBRANCH  11  12
ENDBRANCH   4  11
TORSDOF 5
ENDMDL
MODEL 6
REMARK VINA RESULT:    -5.796      2.682      3.241
REMARK INTER + INTRA:          -7.961
REMARK INTER:                  -7.537
REMARK INTRA:                  -0.424
REMARK UNBOUND:                -0.639
REMARK  Name = 
REMARK  5 active torsions:
REMARK  status: ('A' for Active; 'I' for Inactive)
REMARK    1  A    between atoms: N_1  and  C_2
REMARK    2  A    between atoms: C_2  and  C_3
REMARK    3  A    between atoms: C_6  and  C_7
REMARK    4  A    between atoms: C_7  and  C_8
REMARK    5  A    between atoms: C_8  and  C_9
REMARK                            x       y       z     vdW  Elec       q    Type
REMARK                         _______ _______ _______ _____ _____    ______ ____
ROOT
ATOM      1  C   UNL     1      46.069   2.774   7.782  0.00  0.00    +0.000 A 
ATOM      2  C   UNL     1      45.451   1.915   8.700  0.00  0.00    +0.000 A 
ATOM      3  C   UNL     1      44.708   2.423   9.770  0.00  0.00    +0.000 A 
ATOM      4  C   UNL     1      44.584   3.804   9.968  0.00  0.00    +0.000 A 
ATOM      5  C   UNL     1      45.186   4.662   9.033  0.00  0.00    +0.000 A 
ATOM      6  C   UNL     1      45.923   4.154   7.959  0.00  0.00    +0.000 A 
ENDROOT
BRANCH   1   7
ATOM      7  C   UNL     1      46.877   2.219   6.638  0.00  0.00    +0.000 C 
BRANCH   7   8
ATOM      8  N   UNL     1      47.181   3.244   5.646  0.00  0.00    +0.000 NA
ATOM      9  H   UNL     1      46.715   4.111   5.906  0.00  0.00    +0.000 HD
ATOM     10  H   UNL     1      46.787   2.960   4.750  0.00  0.00    +0.000 HD
ENDBRANCH   7   8
ENDBRANCH   1   7
BRANCH   4  11
ATOM     11  C   UNL     1      43.771   4.405  11.099  0.00  0.00    +0.000 C 
BRANCH  11  12
ATOM     12  C   UNL     1      43.437   5.891  10.937  0.00  0.00    +0.000 C 
BRANCH  12  13
ATOM     13  C   UNL     1      44.440   6.793  11.612  0.00  0.00    +0.000 A 
ATOM     14  C   UNL     1      45.404   6.279  12.478  0.00  0.00    +0.000 A 
ATOM     15  C   UNL     1      46.278   7.160  13.111  0.00  0.00    +0.000 A 
ATOM     16  C   UNL     1      46.167   8.523  12.864  0.00  0.00    +0.000 A 
ATOM     17  C   UNL     1      45.186   8.946  11.986  0.00  0.00    +0.000 A 
ATOM     18  F   UNL     1      45.066  10.260  11.750  0.00  0.00    +0.000 F 
ATOM     19  N   UNL     1      44.331   8.117  11.353  0.00  0.00    +0.000 NA
ENDBRANCH  12  13
ENDBRANCH  11  12
ENDBRANCH   4  11
TORSDOF 5
ENDMDL
MODEL 7
REMARK VINA RESULT:    -5.735      3.060      6.201
REMARK INTER + INTRA:          -7.883
REMARK INTER:                  -7.395
REMARK INTRA:                  -0.488
REMARK UNBOUND:                -0.639
REMARK  Name = 
REMARK  5 active torsions:
REMARK  status: ('A' for Active; 'I' for Inactive)
REMARK    1  A    between atoms: N_1  and  C_2
REMARK    2  A    between atoms: C_2  and  C_3
REMARK    3  A    between atoms: C_6  and  C_7
REMARK    4  A    between atoms: C_7  and  C_8
REMARK    5  A    between atoms: C_8  and  C_9
REMARK                            x       y       z     vdW  Elec       q    Type
REMARK                         _______ _______ _______ _____ _____    ______ ____
ROOT
ATOM      1  C   UNL     1      48.502   7.230  13.012  0.00  0.00    +0.000 A 
ATOM      2  C   UNL     1      47.903   7.397  11.757  0.00  0.00    +0.000 A 
ATOM      3  C   UNL     1      46.795   6.631  11.382  0.00  0.00    +0.000 A 
ATOM      4  C   UNL     1      46.270   5.658  12.241  0.00  0.00    +0.000 A 
ATOM      5  C   UNL     1      46.859   5.508  13.508  0.00  0.00    +0.000 A 
ATOM      6  C   UNL     1      47.963   6.280  13.885  0.00  0.00    +0.000 A 
ENDROOT
BRANCH   1   7
ATOM      7  C   UNL     1      49.702   8.052  13.404  0.00  0.00    +0.000 C 
BRANCH   7   8
ATOM      8  N   UNL     1      49.945   8.000  14.841  0.00  0.00    +0.000 NA
ATOM      9  H   UNL     1      50.943   8.101  15.015  0.00  0.00    +0.000 HD
ATOM     10  H   UNL     1      49.683   7.077  15.184  0.00  0.00    +0.000 HD
ENDBRANCH   7   8
ENDBRANCH   1   7
BRANCH   4  11
ATOM     11  C   UNL     1      45.057   4.817  11.892  0.00  0.00    +0.000 C 
BRANCH  11  12
ATOM     12  C   UNL     1      44.514   5.022  10.474  0.00  0.00    +0.000 C 
BRANCH  12  13
ATOM     13  C   UNL     1      45.049   4.010   9.492  0.00  0.00    +0.000 A 
ATOM     14  C   UNL     1      44.979   2.642   9.754  0.00  0.00    +0.000 A 
ATOM     15  C   UNL     1      45.528   1.751   8.835  0.00  0.00    +0.000 A 
ATOM     16  C   UNL     1      46.129   2.247   7.684  0.00  0.00    +0.000 A 
ATOM     17  C   UNL     1      46.149   3.617   7.500  0.00  0.00    +0.000 A 
ATOM     18  F   UNL     1      46.735   4.103   6.397  0.00  0.00    +0.000 F 
ATOM     19  N   UNL     1      45.619   4.503   8.368  0.00  0.00    +0.000 NA
ENDBRANCH  12  13
ENDBRANCH  11  12
ENDBRANCH   4  11
TORSDOF 5
ENDMDL
MODEL 8
REMARK VINA RESULT:    -5.654      2.522      6.458
REMARK INTER + INTRA:          -7.780
REMARK INTER:                  -7.338
REMARK INTRA:                  -0.442
REMARK UNBOUND:                -0.639
REMARK  Name = 
REMARK  5 active torsions:
REMARK  status: ('A' for Active; 'I' for Inactive)
REMARK    1  A    between atoms: N_1  and  C_2
REMARK    2  A    between atoms: C_2  and  C_3
REMARK    3  A    between atoms: C_6  and  C_7
REMARK    4  A    between atoms: C_7  and  C_8
REMARK    5  A    between atoms: C_8  and  C_9
REMARK                            x       y       z     vdW  Elec       q    Type
REMARK                         _______ _______ _______ _____ _____    ______ ____
ROOT
ATOM      1  C   UNL     1      47.527   4.854  15.316  0.00  0.00    +0.000 A 
ATOM      2  C   UNL     1      46.691   4.058  14.524  0.00  0.00    +0.000 A 
ATOM      3  C   UNL     1      46.261   4.495  13.267  0.00  0.00    +0.000 A 
ATOM      4  C   UNL     1      46.635   5.753  12.778  0.00  0.00    +0.000 A 
ATOM      5  C   UNL     1      47.493   6.540  13.564  0.00  0.00    +0.000 A 
ATOM      6  C   UNL     1      47.928   6.099  14.818  0.00  0.00    +0.000 A 
ENDROOT
BRANCH   1   7
ATOM      7  C   UNL     1      47.977   4.380  16.673  0.00  0.00    +0.000 C 
BRANCH   7   8
ATOM      8  N   UNL     1      46.850   4.203  17.583  0.00  0.00    +0.000 NA
ATOM      9  H   UNL     1      46.379   5.097  17.709  0.00  0.00    +0.000 HD
ATOM     10  H   UNL     1      47.208   3.933  18.498  0.00  0.00    +0.000 HD
ENDBRANCH   7   8
ENDBRANCH   1   7
BRANCH   4  11
ATOM     11  C   UNL     1      46.216   6.264  11.413  0.00  0.00    +0.000 C 
BRANCH  11  12
ATOM     12  C   UNL     1      44.958   5.608  10.834  0.00  0.00    +0.000 C 
BRANCH  12  13
ATOM     13  C   UNL     1      45.267   4.594   9.761  0.00  0.00    +0.000 A 
ATOM     14  C   UNL     1      46.011   4.940   8.634  0.00  0.00    +0.000 A 
ATOM     15  C   UNL     1      46.231   3.979   7.650  0.00  0.00    +0.000 A 
ATOM     16  C   UNL     1      45.704   2.703   7.818  0.00  0.00    +0.000 A 
ATOM     17  C   UNL     1      44.984   2.444   8.970  0.00  0.00    +0.000 A 
ATOM     18  F   UNL     1      44.465   1.219   9.134  0.00  0.00    +0.000 F 
ATOM     19  N   UNL     1      44.762   3.352   9.942  0.00  0.00    +0.000 NA
ENDBRANCH  12  13
ENDBRANCH  11  12
ENDBRANCH   4  11
TORSDOF 5
ENDMDL
MODEL 9
REMARK VINA RESULT:    -5.492      2.614      4.136
REMARK INTER + INTRA:          -7.576
REMARK INTER:                  -7.274
REMARK INTRA:                  -0.302
REMARK UNBOUND:                -0.639
REMARK  Name = 
REMARK  5 active torsions:
REMARK  status: ('A' for Active; 'I' for Inactive)
REMARK    1  A    between atoms: N_1  and  C_2
REMARK    2  A    between atoms: C_2  and  C_3
REMARK    3  A    between atoms: C_6  and  C_7
REMARK    4  A    between atoms: C_7  and  C_8
REMARK    5  A    between atoms: C_8  and  C_9
REMARK                            x       y       z     vdW  Elec       q    Type
REMARK                         _______ _______ _______ _____ _____    ______ ____
ROOT
ATOM      1  C   UNL     1      45.031   4.088   9.699  0.00  0.00    +0.000 A 
ATOM      2  C   UNL     1      44.843   3.178  10.747  0.00  0.00    +0.000 A 
ATOM      3  C   UNL     1      45.142   3.532  12.067  0.00  0.00    +0.000 A 
ATOM      4  C   UNL     1      45.661   4.796  12.372  0.00  0.00    +0.000 A 
ATOM      5  C   UNL     1      45.828   5.714  11.321  0.00  0.00    +0.000 A 
ATOM      6  C   UNL     1      45.523   5.362  10.003  0.00  0.00    +0.000 A 
ENDROOT
BRANCH   1   7
ATOM      7  C   UNL     1      44.718   3.696   8.278  0.00  0.00    +0.000 C 
BRANCH   7   8
ATOM      8  N   UNL     1      45.856   3.918   7.394  0.00  0.00    +0.000 NA
ATOM      9  H   UNL     1      46.400   4.706   7.740  0.00  0.00    +0.000 HD
ATOM     10  H   UNL     1      45.508   4.188   6.475  0.00  0.00    +0.000 HD
ENDBRANCH   7   8
ENDBRANCH   1   7
BRANCH   4  11
ATOM     11  C   UNL     1      45.979   5.237  13.788  0.00  0.00    +0.000 C 
BRANCH  11  12
ATOM     12  C   UNL     1      47.451   5.105  14.192  0.00  0.00    +0.000 C 
BRANCH  12  13
ATOM     13  C   UNL     1      47.631   4.803  15.659  0.00  0.00    +0.000 A 
ATOM     14  C   UNL     1      48.389   5.637  16.480  0.00  0.00    +0.000 A 
ATOM     15  C   UNL     1      48.562   5.289  17.818  0.00  0.00    +0.000 A 
ATOM     16  C   UNL     1      47.975   4.124  18.298  0.00  0.00    +0.000 A 
ATOM     17  C   UNL     1      47.233   3.360  17.417  0.00  0.00    +0.000 A 
ATOM     18  F   UNL     1      46.671   2.230  17.870  0.00  0.00    +0.000 F 
ATOM     19  N   UNL     1      47.043   3.674  16.119  0.00  0.00    +0.000 NA
ENDBRANCH  12  13
ENDBRANCH  11  12
ENDBRANCH   4  11
TORSDOF 5
ENDMDL
