MODEL 1
REMARK VINA RESULT:    -7.708      0.000      0.000
REMARK INTER + INTRA:         -10.311
REMARK INTER:                  -9.736
REMARK INTRA:                  -0.575
REMARK UNBOUND:                -0.575
REMARK  Name = 
REMARK  5 active torsions:
REMARK  status: ('A' for Active; 'I' for Inactive)
REMARK    1  A    between atoms: N_1  and  C_2
REMARK    2  A    between atoms: C_2  and  C_3
REMARK    3  A    between atoms: C_3  and  C_4
REMARK    4  A    between atoms: C_7  and  C_8
REMARK    5  A    between atoms: C_8  and  N_9
REMARK                            x       y       z     vdW  Elec       q    Type
REMARK                         _______ _______ _______ _____ _____    ______ ____
ROOT
ATOM      1  C   UNL     1      45.967   2.398   8.109  0.00  0.00    +0.000 A 
ATOM      2  C   UNL     1      45.103   1.793   9.031  0.00  0.00    +0.000 A 
ATOM      3  C   UNL     1      44.284   2.573   9.847  0.00  0.00    +0.000 A 
ATOM      4  C   UNL     1      44.311   3.974   9.763  0.00  0.00    +0.000 A 
ATOM      5  C   UNL     1      45.165   4.575   8.831  0.00  0.00    +0.000 A 
ATOM      6  C   UNL     1      45.978   3.795   8.005  0.00  0.00    +0.000 A 
ENDROOT
BRANCH   1   7
ATOM      7  C   UNL     1      46.887   1.562   7.249  0.00  0.00    +0.000 C 
BRANCH   7   8
ATOM      8  C   UNL     1      48.109   2.338   6.743  0.00  0.00    +0.000 C 
BRANCH   8   9
ATOM      9  N   UNL     1      48.437   1.939   5.371  0.00  0.00    +0.000 NA
ATOM     10  H   UNL     1      48.998   1.088   5.393  0.00  0.00    +0.000 HD
ATOM     11  H   UNL     1      49.021   2.650   4.934  0.00  0.00    +0.000 HD
ENDBRANCH   8   9
ENDBRANCH   7   8
ENDBRANCH   1   7
BRANCH   4  12
ATOM     12  C   UNL     1      43.397   4.812  10.618  0.00  0.00    +0.000 C 
BRANCH  12  13
ATOM     13  N   UNL     1      44.064   5.742  11.522  0.00  0.00    +0.000 N 
ATOM     14  C   UNL     1      44.125   7.103  11.371  0.00  0.00    +0.000 A 
ATOM     15  N   UNL     1      45.164   7.617  11.992  0.00  0.00    +0.000 NA
ATOM     16  C   UNL     1      45.782   6.554  12.601  0.00  0.00    +0.000 A 
ATOM     17  C   UNL     1      46.986   6.510  13.318  0.00  0.00    +0.000 A 
ATOM     18  C   UNL     1      47.412   5.287  13.851  0.00  0.00    +0.000 A 
ATOM     19  C   UNL     1      46.631   4.138  13.710  0.00  0.00    +0.000 A 
ATOM     20  C   UNL     1      45.433   4.160  12.986  0.00  0.00    +0.000 A 
ATOM     21  C   UNL     1      45.057   5.379  12.410  0.00  0.00    +0.000 A 
ENDBRANCH  12  13
ENDBRANCH   4  12
TORSDOF 5
ENDMDL
MODEL 2
REMARK VINA RESULT:    -6.534      2.195      6.383
REMARK INTER + INTRA:          -8.829
REMARK INTER:                  -8.903
REMARK INTRA:                   0.075
REMARK UNBOUND:                -0.575
REMARK  Name = 
REMARK  5 active torsions:
REMARK  status: ('A' for Active; 'I' for Inactive)
REMARK    1  A    between atoms: N_1  and  C_2
REMARK    2  A    between atoms: C_2  and  C_3
REMARK    3  A    between atoms: C_3  and  C_4
REMARK    4  A    between atoms: C_7  and  C_8
REMARK    5  A    between atoms: C_8  and  N_9
REMARK                            x       y       z     vdW  Elec       q    Type
REMARK                         _______ _______ _______ _____ _____    ______ ____
ROOT
ATOM      1  C   UNL     1      46.922   5.073  14.021  0.00  0.00    +0.000 A 
ATOM      2  C   UNL     1      46.138   4.010  13.552  0.00  0.00    +0.000 A 
ATOM      3  C   UNL     1      45.549   4.071  12.289  0.00  0.00    +0.000 A 
ATOM      4  C   UNL     1      45.727   5.195  11.468  0.00  0.00    +0.000 A 
ATOM      5  C   UNL     1      46.522   6.249  11.933  0.00  0.00    +0.000 A 
ATOM      6  C   UNL     1      47.122   6.185  13.193  0.00  0.00    +0.000 A 
ENDROOT
BRANCH   1   7
ATOM      7  C   UNL     1      47.531   5.032  15.404  0.00  0.00    +0.000 C 
BRANCH   7   8
ATOM      8  C   UNL     1      47.498   3.635  16.035  0.00  0.00    +0.000 C 
BRANCH   8   9
ATOM      9  N   UNL     1      46.730   3.655  17.284  0.00  0.00    +0.000 NA
ATOM     10  H   UNL     1      47.109   4.374  17.901  0.00  0.00    +0.000 HD
ATOM     11  H   UNL     1      46.847   2.772  17.777  0.00  0.00    +0.000 HD
ENDBRANCH   8   9
ENDBRANCH   7   8
ENDBRANCH   1   7
BRANCH   4  12
ATOM     12  C   UNL     1      45.122   5.241  10.089  0.00  0.00    +0.000 C 
BRANCH  12  13
ATOM     13  N   UNL     1      44.904   3.944   9.458  0.00  0.00    +0.000 N 
ATOM     14  C   UNL     1      44.148   2.921   9.968  0.00  0.00    +0.000 A 
ATOM     15  N   UNL     1      44.522   1.754   9.492  0.00  0.00    +0.000 NA
ATOM     16  C   UNL     1      45.536   2.032   8.610  0.00  0.00    +0.000 A 
ATOM     17  C   UNL     1      46.360   1.156   7.888  0.00  0.00    +0.000 A 
ATOM     18  C   UNL     1      47.337   1.692   7.040  0.00  0.00    +0.000 A 
ATOM     19  C   UNL     1      47.462   3.073   6.880  0.00  0.00    +0.000 A 
ATOM     20  C   UNL     1      46.657   3.963   7.601  0.00  0.00    +0.000 A 
ATOM     21  C   UNL     1      45.729   3.407   8.490  0.00  0.00    +0.000 A 
ENDBRANCH  12  13
ENDBRANCH   4  12
TORSDOF 5
ENDMDL
MODEL 3
REMARK VINA RESULT:    -6.483      1.622      2.366
REMARK INTER + INTRA:          -8.764
REMARK INTER:                  -8.279
REMARK INTRA:                  -0.486
REMARK UNBOUND:                -0.575
REMARK  Name = 
REMARK  5 active torsions:
REMARK  status: ('A' for Active; 'I' for Inactive)
REMARK    1  A    between atoms: N_1  and  C_2
REMARK    2  A    between atoms: C_2  and  C_3
REMARK    3  A    between atoms: C_3  and  C_4
REMARK    4  A    between atoms: C_7  and  C_8
REMARK    5  A    between atoms: C_8  and  N_9
REMARK                            x       y       z     vdW  Elec       q    Type
REMARK                         _______ _______ _______ _____ _____    ______ ____
ROOT
ATOM      1  C   UNL     1      45.872   3.218   7.704  0.00  0.00    +0.000 A 
ATOM      2  C   UNL     1      45.314   2.450   8.735  0.00  0.00    +0.000 A 
ATOM      3  C   UNL     1      45.032   3.029   9.972  0.00  0.00    +0.000 A 
ATOM      4  C   UNL     1      45.302   4.386  10.209  0.00  0.00    +0.000 A 
ATOM      5  C   UNL     1      45.846   5.153   9.173  0.00  0.00    +0.000 A 
ATOM      6  C   UNL     1      46.119   4.579   7.929  0.00  0.00    +0.000 A 
ENDROOT
BRANCH   1   7
ATOM      7  C   UNL     1      46.218   2.590   6.374  0.00  0.00    +0.000 C 
BRANCH   7   8
ATOM      8  C   UNL     1      47.468   1.704   6.433  0.00  0.00    +0.000 C 
BRANCH   8   9
ATOM      9  N   UNL     1      48.674   2.505   6.197  0.00  0.00    +0.000 NA
ATOM     10  H   UNL     1      49.102   2.217   5.316  0.00  0.00    +0.000 HD
ATOM     11  H   UNL     1      49.364   2.312   6.921  0.00  0.00    +0.000 HD
ENDBRANCH   8   9
ENDBRANCH   7   8
ENDBRANCH   1   7
BRANCH   4  12
ATOM     12  C   UNL     1      44.960   5.017  11.533  0.00  0.00    +0.000 C 
BRANCH  12  13
ATOM     13  N   UNL     1      46.037   5.031  12.517  0.00  0.00    +0.000 N 
ATOM     14  C   UNL     1      46.058   4.330  13.694  0.00  0.00    +0.000 A 
ATOM     15  N   UNL     1      46.846   4.892  14.584  0.00  0.00    +0.000 NA
ATOM     16  C   UNL     1      47.388   5.981  13.948  0.00  0.00    +0.000 A 
ATOM     17  C   UNL     1      48.223   6.988  14.453  0.00  0.00    +0.000 A 
ATOM     18  C   UNL     1      48.649   8.008  13.593  0.00  0.00    +0.000 A 
ATOM     19  C   UNL     1      48.286   8.001  12.245  0.00  0.00    +0.000 A 
ATOM     20  C   UNL     1      47.443   7.011  11.725  0.00  0.00    +0.000 A 
ATOM     21  C   UNL     1      46.979   6.036  12.617  0.00  0.00    +0.000 A 
ENDBRANCH  12  13
ENDBRANCH   4  12
TORSDOF 5
ENDMDL
MODEL 4
REMARK VINA RESULT:    -6.476      2.118      6.166
REMARK INTER + INTRA:          -8.755
REMARK INTER:                  -8.209
REMARK INTRA:                  -0.546
REMARK UNBOUND:                -0.575
REMARK  Name = 
REMARK  5 active torsions:
REMARK  status: ('A' for Active; 'I' for Inactive)
REMARK    1  A    between atoms: N_1  and  C_2
REMARK    2  A    between atoms: C_2  and  C_3
REMARK    3  A    between atoms: C_3  and  C_4
REMARK    4  A    between atoms: C_7  and  C_8
REMARK    5  A    between atoms: C_8  and  N_9
REMARK                            x       y       z     vdW  Elec       q    Type
REMARK                         _______ _______ _______ _____ _____    ______ ____
ROOT
ATOM      1  C   UNL     1      47.737   6.435  13.321  0.00  0.00    +0.000 A 
ATOM      2  C   UNL     1      47.447   7.150  12.151  0.00  0.00    +0.000 A 
ATOM      3  C   UNL     1      46.253   6.928  11.465  0.00  0.00    +0.000 A 
ATOM      4  C   UNL     1      45.323   5.985  11.930  0.00  0.00    +0.000 A 
ATOM      5  C   UNL     1      45.609   5.282  13.106  0.00  0.00    +0.000 A 
ATOM      6  C   UNL     1      46.799   5.512  13.801  0.00  0.00    +0.000 A 
ENDROOT
BRANCH   1   7
ATOM      7  C   UNL     1      49.046   6.641  14.047  0.00  0.00    +0.000 C 
BRANCH   7   8
ATOM      8  C   UNL     1      48.879   6.764  15.566  0.00  0.00    +0.000 C 
BRANCH   8   9
ATOM      9  N   UNL     1      49.369   5.555  16.235  0.00  0.00    +0.000 NA
ATOM     10  H   UNL     1      48.718   5.293  16.976  0.00  0.00    +0.000 HD
ATOM     11  H   UNL     1      50.256   5.749  16.696  0.00  0.00    +0.000 HD
ENDBRANCH   8   9
ENDBRANCH   7   8
ENDBRANCH   1   7
BRANCH   4  12
ATOM     12  C   UNL     1      44.017   5.776  11.210  0.00  0.00    +0.000 C 
BRANCH  12  13
ATOM     13  N   UNL     1      43.826   4.450  10.633  0.00  0.00    +0.000 N 
ATOM     14  C   UNL     1      43.236   3.382  11.257  0.00  0.00    +0.000 A 
ATOM     15  N   UNL     1      43.639   2.237  10.752  0.00  0.00    +0.000 NA
ATOM     16  C   UNL     1      44.497   2.575   9.735  0.00  0.00    +0.000 A 
ATOM     17  C   UNL     1      45.287   1.751   8.920  0.00  0.00    +0.000 A 
ATOM     18  C   UNL     1      46.091   2.342   7.939  0.00  0.00    +0.000 A 
ATOM     19  C   UNL     1      46.076   3.724   7.742  0.00  0.00    +0.000 A 
ATOM     20  C   UNL     1      45.304   4.564   8.554  0.00  0.00    +0.000 A 
ATOM     21  C   UNL     1      44.554   3.957   9.570  0.00  0.00    +0.000 A 
ENDBRANCH  12  13
ENDBRANCH   4  12
TORSDOF 5
ENDMDL
MODEL 5
REMARK VINA RESULT:    -6.421      1.422      2.710
REMARK INTER + INTRA:          -8.686
REMARK INTER:                  -8.229
REMARK INTRA:                  -0.457
REMARK UNBOUND:                -0.575
REMARK  Name = 
REMARK  5 active torsions:
REMARK  status: ('A' for Active; 'I' for Inactive)
REMARK    1  A    between atoms: N_1  and  C_2
REMARK    2  A    between atoms: C_2  and  C_3
REMARK    3  A    between atoms: C_3  and  C_4
REMARK    4  A    between atoms: C_7  and  C_8
REMARK    5  A    between atoms: C_8  and  N_9
REMARK                            x       y       z     vdW  Elec       q    Type
REMARK                         _______ _______ _______ _____ _____    ______ ____
ROOT
ATOM      1  C   UNL     1      45.893   2.575   8.010  0.00  0.00    +0.000 A 
ATOM      2  C   UNL     1      45.150   2.031   9.067  0.00  0.00    +0.000 A 
ATOM      3  C   UNL     1      44.637   2.858  10.067  0.00  0.00    +0.000 A 
ATOM      4  C   UNL     1      44.857   4.243  10.036  0.00  0.00    +0.000 A 
ATOM      5  C   UNL     1      45.588   4.785   8.973  0.00  0.00    +0.000 A 
ATOM      6  C   UNL     1      46.093   3.961   7.964  0.00  0.00    +0.000 A 
ENDROOT
BRANCH   1   7
ATOM      7  C   UNL     1      46.486   1.683   6.944  0.00  0.00    +0.000 C 
BRANCH   7   8
ATOM      8  C   UNL     1      48.011   1.799   6.841  0.00  0.00    +0.000 C 
BRANCH   8   9
ATOM      9  N   UNL     1      48.420   1.955   5.442  0.00  0.00    +0.000 NA
ATOM     10  H   UNL     1      48.292   1.069   4.953  0.00  0.00    +0.000 HD
ATOM     11  H   UNL     1      49.416   2.163   5.393  0.00  0.00    +0.000 HD
ENDBRANCH   8   9
ENDBRANCH   7   8
ENDBRANCH   1   7
BRANCH   4  12
ATOM     12  C   UNL     1      44.269   5.137  11.096  0.00  0.00    +0.000 C 
BRANCH  12  13
ATOM     13  N   UNL     1      45.147   6.196  11.580  0.00  0.00    +0.000 N 
ATOM     14  C   UNL     1      46.127   6.055  12.529  0.00  0.00    +0.000 A 
ATOM     15  N   UNL     1      46.395   7.195  13.127  0.00  0.00    +0.000 NA
ATOM     16  C   UNL     1      45.585   8.120  12.519  0.00  0.00    +0.000 A 
ATOM     17  C   UNL     1      45.390   9.476  12.822  0.00  0.00    +0.000 A 
ATOM     18  C   UNL     1      44.497  10.221  12.044  0.00  0.00    +0.000 A 
ATOM     19  C   UNL     1      43.843   9.640  10.956  0.00  0.00    +0.000 A 
ATOM     20  C   UNL     1      44.015   8.285  10.645  0.00  0.00    +0.000 A 
ATOM     21  C   UNL     1      44.865   7.543  11.474  0.00  0.00    +0.000 A 
ENDBRANCH  12  13
ENDBRANCH   4  12
TORSDOF 5
ENDMDL
MODEL 6
REMARK VINA RESULT:    -6.295      1.991      6.528
REMARK INTER + INTRA:          -8.527
REMARK INTER:                  -8.042
REMARK INTRA:                  -0.485
REMARK UNBOUND:                -0.575
REMARK  Name = 
REMARK  5 active torsions:
REMARK  status: ('A' for Active; 'I' for Inactive)
REMARK    1  A    between atoms: N_1  and  C_2
REMARK    2  A    between atoms: C_2  and  C_3
REMARK    3  A    between atoms: C_3  and  C_4
REMARK    4  A    between atoms: C_7  and  C_8
REMARK    5  A    between atoms: C_8  and  N_9
REMARK                            x       y       z     vdW  Elec       q    Type
REMARK                         _______ _______ _______ _____ _____    ______ ____
ROOT
ATOM      1  C   UNL     1      46.373   6.186  12.317  0.00  0.00    +0.000 A 
ATOM      2  C   UNL     1      46.678   6.518  10.990  0.00  0.00    +0.000 A 
ATOM      3  C   UNL     1      45.991   5.917   9.936  0.00  0.00    +0.000 A 
ATOM      4  C   UNL     1      44.987   4.967  10.182  0.00  0.00    +0.000 A 
ATOM      5  C   UNL     1      44.675   4.647  11.508  0.00  0.00    +0.000 A 
ATOM      6  C   UNL     1      45.354   5.257  12.566  0.00  0.00    +0.000 A 
ENDROOT
BRANCH   1   7
ATOM      7  C   UNL     1      47.139   6.803  13.464  0.00  0.00    +0.000 C 
BRANCH   7   8
ATOM      8  C   UNL     1      46.912   8.314  13.596  0.00  0.00    +0.000 C 
BRANCH   8   9
ATOM      9  N   UNL     1      47.373   8.788  14.905  0.00  0.00    +0.000 NA
ATOM     10  H   UNL     1      47.451   7.995  15.542  0.00  0.00    +0.000 HD
ATOM     11  H   UNL     1      46.677   9.410  15.312  0.00  0.00    +0.000 HD
ENDBRANCH   8   9
ENDBRANCH   7   8
ENDBRANCH   1   7
BRANCH   4  12
ATOM     12  C   UNL     1      44.220   4.348   9.043  0.00  0.00    +0.000 C 
BRANCH  12  13
ATOM     13  N   UNL     1      44.726   3.064   8.572  0.00  0.00    +0.000 N 
ATOM     14  C   UNL     1      44.605   1.865   9.227  0.00  0.00    +0.000 A 
ATOM     15  N   UNL     1      45.545   1.018   8.872  0.00  0.00    +0.000 NA
ATOM     16  C   UNL     1      46.284   1.677   7.921  0.00  0.00    +0.000 A 
ATOM     17  C   UNL     1      47.462   1.281   7.270  0.00  0.00    +0.000 A 
ATOM     18  C   UNL     1      48.034   2.141   6.326  0.00  0.00    +0.000 A 
ATOM     19  C   UNL     1      47.423   3.354   6.005  0.00  0.00    +0.000 A 
ATOM     20  C   UNL     1      46.255   3.773   6.653  0.00  0.00    +0.000 A 
ATOM     21  C   UNL     1      45.733   2.925   7.638  0.00  0.00    +0.000 A 
ENDBRANCH  12  13
ENDBRANCH   4  12
TORSDOF 5
ENDMDL
MODEL 7
REMARK VINA RESULT:    -6.149      2.117      6.579
REMARK INTER + INTRA:          -8.342
REMARK INTER:                  -8.411
REMARK INTRA:                   0.069
REMARK UNBOUND:                -0.575
REMARK  Name = 
REMARK  5 active torsions:
REMARK  status: ('A' for Active; 'I' for Inactive)
REMARK    1  A    between atoms: N_1  and  C_2
REMARK    2  A    between atoms: C_2  and  C_3
REMARK    3  A    between atoms: C_3  and  C_4
REMARK    4  A    between atoms: C_7  and  C_8
REMARK    5  A    between atoms: C_8  and  N_9
REMARK                            x       y       z     vdW  Elec       q    Type
REMARK                         _______ _______ _______ _____ _____    ______ ____
ROOT
ATOM      1  C   UNL     1      47.445   5.208  14.873  0.00  0.00    +0.000 A 
ATOM      2  C   UNL     1      47.705   6.399  14.182  0.00  0.00    +0.000 A 
ATOM      3  C   UNL     1      47.033   6.686  12.993  0.00  0.00    +0.000 A 
ATOM      4  C   UNL     1      46.091   5.789  12.467  0.00  0.00    +0.000 A 
ATOM      5  C   UNL     1      45.824   4.607  13.166  0.00  0.00    +0.000 A 
ATOM      6  C   UNL     1      46.487   4.323  14.362  0.00  0.00    +0.000 A 
ENDROOT
BRANCH   1   7
ATOM      7  C   UNL     1      48.197   4.870  16.139  0.00  0.00    +0.000 C 
BRANCH   7   8
ATOM      8  C   UNL     1      47.375   4.028  17.122  0.00  0.00    +0.000 C 
BRANCH   8   9
ATOM      9  N   UNL     1      46.740   4.888  18.126  0.00  0.00    +0.000 NA
ATOM     10  H   UNL     1      47.263   4.828  19.000  0.00  0.00    +0.000 HD
ATOM     11  H   UNL     1      45.804   4.545  18.334  0.00  0.00    +0.000 HD
ENDBRANCH   8   9
ENDBRANCH   7   8
ENDBRANCH   1   7
BRANCH   4  12
ATOM     12  C   UNL     1      45.339   6.120  11.204  0.00  0.00    +0.000 C 
BRANCH  12  13
ATOM     13  N   UNL     1      44.632   5.004  10.586  0.00  0.00    +0.000 N 
ATOM     14  C   UNL     1      43.676   4.228  11.188  0.00  0.00    +0.000 A 
ATOM     15  N   UNL     1      43.588   3.041  10.629  0.00  0.00    +0.000 NA
ATOM     16  C   UNL     1      44.495   3.060   9.599  0.00  0.00    +0.000 A 
ATOM     17  C   UNL     1      44.885   2.029   8.732  0.00  0.00    +0.000 A 
ATOM     18  C   UNL     1      45.844   2.300   7.748  0.00  0.00    +0.000 A 
ATOM     19  C   UNL     1      46.372   3.584   7.603  0.00  0.00    +0.000 A 
ATOM     20  C   UNL     1      46.006   4.622   8.467  0.00  0.00    +0.000 A 
ATOM     21  C   UNL     1      45.092   4.313   9.483  0.00  0.00    +0.000 A 
ENDBRANCH  12  13
ENDBRANCH   4  12
TORSDOF 5
ENDMDL
MODEL 8
REMARK VINA RESULT:    -5.738      2.417      3.824
REMARK INTER + INTRA:          -7.823
REMARK INTER:                  -7.275
REMARK INTRA:                  -0.548
REMARK UNBOUND:                -0.575
REMARK  Name = 
REMARK  5 active torsions:
REMARK  status: ('A' for Active; 'I' for Inactive)
REMARK    1  A    between atoms: N_1  and  C_2
REMARK    2  A    between atoms: C_2  and  C_3
REMARK    3  A    between atoms: C_3  and  C_4
REMARK    4  A    between atoms: C_7  and  C_8
REMARK    5  A    between atoms: C_8  and  N_9
REMARK                            x       y       z     vdW  Elec       q    Type
REMARK                         _______ _______ _______ _____ _____    ______ ____
ROOT
ATOM      1  C   UNL     1      44.979   3.457   9.794  0.00  0.00    +0.000 A 
ATOM      2  C   UNL     1      45.349   4.771   9.475  0.00  0.00    +0.000 A 
ATOM      3  C   UNL     1      45.634   5.689  10.486  0.00  0.00    +0.000 A 
ATOM      4  C   UNL     1      45.554   5.317  11.837  0.00  0.00    +0.000 A 
ATOM      5  C   UNL     1      45.197   4.001  12.152  0.00  0.00    +0.000 A 
ATOM      6  C   UNL     1      44.922   3.077  11.141  0.00  0.00    +0.000 A 
ENDROOT
BRANCH   1   7
ATOM      7  C   UNL     1      44.629   2.468   8.706  0.00  0.00    +0.000 C 
BRANCH   7   8
ATOM      8  C   UNL     1      45.732   1.433   8.456  0.00  0.00    +0.000 C 
BRANCH   8   9
ATOM      9  N   UNL     1      46.770   1.993   7.583  0.00  0.00    +0.000 NA
ATOM     10  H   UNL     1      47.520   1.311   7.473  0.00  0.00    +0.000 HD
ATOM     11  H   UNL     1      47.192   2.807   8.026  0.00  0.00    +0.000 HD
ENDBRANCH   8   9
ENDBRANCH   7   8
ENDBRANCH   1   7
BRANCH   4  12
ATOM     12  C   UNL     1      45.901   6.299  12.925  0.00  0.00    +0.000 C 
BRANCH  12  13
ATOM     13  N   UNL     1      47.275   6.237  13.410  0.00  0.00    +0.000 N 
ATOM     14  C   UNL     1      47.673   5.768  14.635  0.00  0.00    +0.000 A 
ATOM     15  N   UNL     1      48.827   6.280  15.002  0.00  0.00    +0.000 NA
ATOM     16  C   UNL     1      49.213   7.084  13.959  0.00  0.00    +0.000 A 
ATOM     17  C   UNL     1      50.316   7.943  13.852  0.00  0.00    +0.000 A 
ATOM     18  C   UNL     1      50.496   8.669  12.669  0.00  0.00    +0.000 A 
ATOM     19  C   UNL     1      49.618   8.509  11.595  0.00  0.00    +0.000 A 
ATOM     20  C   UNL     1      48.504   7.666  11.687  0.00  0.00    +0.000 A 
ATOM     21  C   UNL     1      48.309   6.997  12.902  0.00  0.00    +0.000 A 
ENDBRANCH  12  13
ENDBRANCH   4  12
TORSDOF 5
ENDMDL
MODEL 9
REMARK VINA RESULT:    -5.213      4.810      7.756
REMARK INTER + INTRA:          -7.160
REMARK INTER:                  -6.765
REMARK INTRA:                  -0.395
REMARK UNBOUND:                -0.575
REMARK  Name = 
REMARK  5 active torsions:
REMARK  status: ('A' for Active; 'I' for Inactive)
REMARK    1  A    between atoms: N_1  and  C_2
REMARK    2  A    between atoms: C_2  and  C_3
REMARK    3  A    between atoms: C_3  and  C_4
REMARK    4  A    between atoms: C_7  and  C_8
REMARK    5  A    between atoms: C_8  and  N_9
REMARK                            x       y       z     vdW  Elec       q    Type
REMARK                         _______ _______ _______ _____ _____    ______ ____
ROOT
ATOM      1  C   UNL     1      51.016   2.762  17.557  0.00  0.00    +0.000 A 
ATOM      2  C   UNL     1      50.098   1.937  16.892  0.00  0.00    +0.000 A 
ATOM      3  C   UNL     1      48.896   2.460  16.415  0.00  0.00    +0.000 A 
ATOM      4  C   UNL     1      48.581   3.816  16.595  0.00  0.00    +0.000 A 
ATOM      5  C   UNL     1      49.505   4.640  17.247  0.00  0.00    +0.000 A 
ATOM      6  C   UNL     1      50.715   4.121  17.715  0.00  0.00    +0.000 A 
ENDROOT
BRANCH   1   7
ATOM      7  C   UNL     1      52.302   2.195  18.112  0.00  0.00    +0.000 C 
BRANCH   7   8
ATOM      8  C   UNL     1      52.717   0.878  17.445  0.00  0.00    +0.000 C 
BRANCH   8   9
ATOM      9  N   UNL     1      52.659  -0.225  18.409  0.00  0.00    +0.000 NA
ATOM     10  H   UNL     1      51.963  -0.011  19.124  0.00  0.00    +0.000 HD
ATOM     11  H   UNL     1      53.549  -0.304  18.898  0.00  0.00    +0.000 HD
ENDBRANCH   8   9
ENDBRANCH   7   8
ENDBRANCH   1   7
BRANCH   4  12
ATOM     12  C   UNL     1      47.300   4.386  16.044  0.00  0.00    +0.000 C 
BRANCH  12  13
ATOM     13  N   UNL     1      47.411   5.033  14.742  0.00  0.00    +0.000 N 
ATOM     14  C   UNL     1      47.877   6.302  14.514  0.00  0.00    +0.000 A 
ATOM     15  N   UNL     1      47.408   6.800  13.392  0.00  0.00    +0.000 NA
ATOM     16  C   UNL     1      46.636   5.803  12.850  0.00  0.00    +0.000 A 
ATOM     17  C   UNL     1      45.824   5.821  11.706  0.00  0.00    +0.000 A 
ATOM     18  C   UNL     1      45.124   4.660  11.356  0.00  0.00    +0.000 A 
ATOM     19  C   UNL     1      45.264   3.490  12.104  0.00  0.00    +0.000 A 
ATOM     20  C   UNL     1      46.059   3.456  13.256  0.00  0.00    +0.000 A 
ATOM     21  C   UNL     1      46.701   4.645  13.623  0.00  0.00    +0.000 A 
ENDBRANCH  12  13
ENDBRANCH   4  12
TORSDOF 5
ENDMDL
