MODEL 1
REMARK VINA RESULT:    -6.287      0.000      0.000
REMARK INTER + INTRA:         -10.359
REMARK INTER:                  -9.227
REMARK INTRA:                  -1.132
REMARK UNBOUND:                -1.132
REMARK  Name = 
REMARK  12 active torsions:
REMARK  status: ('A' for Active; 'I' for Inactive)
REMARK    1  A    between atoms: C_1  and  C_2
REMARK    2  A    between atoms: C_2  and  C_3
REMARK    3  A    between atoms: C_2  and  C_17
REMARK    4  A    between atoms: C_3  and  N_4
REMARK    5  A    between atoms: C_8  and  O_10
REMARK    6  A    between atoms: O_10  and  C_11
REMARK    7  A    between atoms: C_11  and  C_12
REMARK    8  A    between atoms: C_11  and  C_13
REMARK    9  A    between atoms: C_11  and  C_14
REMARK   10  A    between atoms: C_20  and  C_21
REMARK   11  A    between atoms: C_21  and  N_22
REMARK   12  A    between atoms: C_23  and  C_25
REMARK                            x       y       z     vdW  Elec       q    Type
REMARK                         _______ _______ _______ _____ _____    ______ ____
ROOT
ATOM      1  C   UNL     1      50.499   8.468  12.798  0.00  0.00    +0.000 A 
ATOM      2  C   UNL     1      49.713   9.180  13.726  0.00  0.00    +0.000 A 
ATOM      3  C   UNL     1      48.331   9.076  13.767  0.00  0.00    +0.000 A 
ATOM      4  C   UNL     1      47.666   8.272  12.856  0.00  0.00    +0.000 A 
ATOM      5  C   UNL     1      48.410   7.636  11.853  0.00  0.00    +0.000 A 
ATOM      6  C   UNL     1      49.804   7.732  11.826  0.00  0.00    +0.000 A 
ENDROOT
BRANCH   1   8
ATOM      7  C   UNL     1      52.592   9.346  14.017  0.00  0.00    +0.000 C 
ATOM      8  C   UNL     1      52.030   8.545  12.823  0.00  0.00    +0.000 C 
BRANCH   8   9
ATOM      9  C   UNL     1      52.646   9.165  11.527  0.00  0.00    +0.000 C 
BRANCH   9  10
ATOM     10  N   UNL     1      53.726   8.389  10.893  0.00  0.00    +0.000 NA
ATOM     11  C   UNL     1      54.526   9.129   9.901  0.00  0.00    +0.000 C 
ATOM     12  C   UNL     1      53.755   9.415   8.608  0.00  0.00    +0.000 C 
ATOM     13  N   UNL     1      53.184   8.182   8.081  0.00  0.00    +0.000 N 
ATOM     14  C   UNL     1      53.309   7.757   6.779  0.00  0.00    +0.000 C 
ATOM     15  O   UNL     1      52.779   6.736   6.376  0.00  0.00    +0.000 OA
ATOM     16  C   UNL     1      52.451   7.333   9.022  0.00  0.00    +0.000 C 
ATOM     17  C   UNL     1      53.247   7.125  10.316  0.00  0.00    +0.000 C 
BRANCH  14  18
ATOM     18  O   UNL     1      54.098   8.565   6.020  0.00  0.00    +0.000 OA
BRANCH  18  19
ATOM     19  C   UNL     1      53.478   9.278   4.921  0.00  0.00    +0.000 C 
ATOM     20  C   UNL     1      52.037   9.672   5.273  0.00  0.00    +0.000 C 
ATOM     21  C   UNL     1      54.297  10.564   4.721  0.00  0.00    +0.000 C 
ATOM     22  C   UNL     1      53.569   8.465   3.622  0.00  0.00    +0.000 C 
ENDBRANCH  18  19
ENDBRANCH  14  18
ENDBRANCH   9  10
ENDBRANCH   8   9
ENDBRANCH   1   8
BRANCH   4  23
ATOM     23  C   UNL     1      46.177   8.148  12.922  0.00  0.00    +0.000 C 
BRANCH  23  24
ATOM     24  N   UNL     1      45.768   6.813  12.585  0.00  0.00    +0.000 N 
ATOM     25  C   UNL     1      44.795   6.590  11.652  0.00  0.00    +0.000 C 
ATOM     26  O   UNL     1      44.255   7.508  11.040  0.00  0.00    +0.000 OA
ATOM     27  H   UNL     1      46.046   6.072  13.220  0.00  0.00    +0.000 HD
BRANCH  25  28
ATOM     28  C   UNL     1      44.475   5.188  11.376  0.00  0.00    +0.000 A 
ATOM     29  C   UNL     1      43.715   4.470  12.288  0.00  0.00    +0.000 A 
ATOM     30  S   UNL     1      43.400   2.867  11.798  0.00  0.00    +0.000 S 
ATOM     31  C   UNL     1      44.306   3.067  10.371  0.00  0.00    +0.000 A 
ATOM     32  N   UNL     1      44.463   2.040   9.494  0.00  0.00    +0.000 NA
ATOM     33  C   UNL     1      45.195   2.321   8.468  0.00  0.00    +0.000 A 
ATOM     34  N   UNL     1      45.780   3.538   8.236  0.00  0.00    +0.000 N 
ATOM     35  C   UNL     1      45.623   4.614   9.077  0.00  0.00    +0.000 A 
ATOM     36  O   UNL     1      46.118   5.705   8.812  0.00  0.00    +0.000 OA
ATOM     37  C   UNL     1      44.823   4.345  10.257  0.00  0.00    +0.000 A 
ATOM     38  H   UNL     1      46.328   3.700   7.403  0.00  0.00    +0.000 HD
ENDBRANCH  25  28
ENDBRANCH  23  24
ENDBRANCH   4  23
TORSDOF 8
ENDMDL
MODEL 2
REMARK VINA RESULT:    -6.259      1.407      2.012
REMARK INTER + INTRA:         -10.318
REMARK INTER:                  -9.443
REMARK INTRA:                  -0.875
REMARK UNBOUND:                -1.132
REMARK  Name = 
REMARK  12 active torsions:
REMARK  status: ('A' for Active; 'I' for Inactive)
REMARK    1  A    between atoms: C_1  and  C_2
REMARK    2  A    between atoms: C_2  and  C_3
REMARK    3  A    between atoms: C_2  and  C_17
REMARK    4  A    between atoms: C_3  and  N_4
REMARK    5  A    between atoms: C_8  and  O_10
REMARK    6  A    between atoms: O_10  and  C_11
REMARK    7  A    between atoms: C_11  and  C_12
REMARK    8  A    between atoms: C_11  and  C_13
REMARK    9  A    between atoms: C_11  and  C_14
REMARK   10  A    between atoms: C_20  and  C_21
REMARK   11  A    between atoms: C_21  and  N_22
REMARK   12  A    between atoms: C_23  and  C_25
REMARK                            x       y       z     vdW  Elec       q    Type
REMARK                         _______ _______ _______ _____ _____    ______ ____
ROOT
ATOM      1  C   UNL     1      50.663   8.723  11.408  0.00  0.00    +0.000 A 
ATOM      2  C   UNL     1      49.858   9.839  11.714  0.00  0.00    +0.000 A 
ATOM      3  C   UNL     1      48.535   9.719  12.109  0.00  0.00    +0.000 A 
ATOM      4  C   UNL     1      47.943   8.468  12.190  0.00  0.00    +0.000 A 
ATOM      5  C   UNL     1      48.685   7.348  11.789  0.00  0.00    +0.000 A 
ATOM      6  C   UNL     1      50.023   7.475  11.406  0.00  0.00    +0.000 A 
ENDROOT
BRANCH   1   8
ATOM      7  C   UNL     1      52.539  10.326  10.667  0.00  0.00    +0.000 C 
ATOM      8  C   UNL     1      52.143   8.882  11.045  0.00  0.00    +0.000 C 
BRANCH   8   9
ATOM      9  C   UNL     1      52.600   7.961   9.867  0.00  0.00    +0.000 C 
BRANCH   9  10
ATOM     10  N   UNL     1      53.585   8.544   8.939  0.00  0.00    +0.000 NA
ATOM     11  C   UNL     1      53.087   8.791   7.575  0.00  0.00    +0.000 C 
ATOM     12  C   UNL     1      52.863   7.501   6.779  0.00  0.00    +0.000 C 
ATOM     13  N   UNL     1      54.066   6.678   6.811  0.00  0.00    +0.000 N 
ATOM     14  C   UNL     1      54.661   6.121   5.704  0.00  0.00    +0.000 C 
ATOM     15  O   UNL     1      55.646   5.406   5.786  0.00  0.00    +0.000 OA
ATOM     16  C   UNL     1      54.687   6.458   8.119  0.00  0.00    +0.000 C 
ATOM     17  C   UNL     1      54.836   7.775   8.890  0.00  0.00    +0.000 C 
BRANCH  14  18
ATOM     18  O   UNL     1      54.066   6.478   4.534  0.00  0.00    +0.000 OA
BRANCH  18  19
ATOM     19  C   UNL     1      54.851   7.231   3.576  0.00  0.00    +0.000 C 
ATOM     20  C   UNL     1      55.774   6.300   2.779  0.00  0.00    +0.000 C 
ATOM     21  C   UNL     1      53.849   7.872   2.601  0.00  0.00    +0.000 C 
ATOM     22  C   UNL     1      55.614   8.369   4.270  0.00  0.00    +0.000 C 
ENDBRANCH  18  19
ENDBRANCH  14  18
ENDBRANCH   9  10
ENDBRANCH   8   9
ENDBRANCH   1   8
BRANCH   4  23
ATOM     23  C   UNL     1      46.522   8.345  12.639  0.00  0.00    +0.000 C 
BRANCH  23  24
ATOM     24  N   UNL     1      46.044   7.007  12.432  0.00  0.00    +0.000 N 
ATOM     25  C   UNL     1      44.972   6.761  11.620  0.00  0.00    +0.000 C 
ATOM     26  O   UNL     1      44.396   7.658  11.011  0.00  0.00    +0.000 OA
ATOM     27  H   UNL     1      46.367   6.296  13.080  0.00  0.00    +0.000 HD
BRANCH  25  28
ATOM     28  C   UNL     1      44.587   5.357  11.469  0.00  0.00    +0.000 A 
ATOM     29  C   UNL     1      43.857   4.737  12.473  0.00  0.00    +0.000 A 
ATOM     30  S   UNL     1      43.457   3.117  12.123  0.00  0.00    +0.000 S 
ATOM     31  C   UNL     1      44.284   3.176  10.636  0.00  0.00    +0.000 A 
ATOM     32  N   UNL     1      44.352   2.083   9.831  0.00  0.00    +0.000 NA
ATOM     33  C   UNL     1      45.032   2.259   8.747  0.00  0.00    +0.000 A 
ATOM     34  N   UNL     1      45.645   3.432   8.392  0.00  0.00    +0.000 N 
ATOM     35  C   UNL     1      45.577   4.571   9.158  0.00  0.00    +0.000 A 
ATOM     36  O   UNL     1      46.094   5.620   8.785  0.00  0.00    +0.000 OA
ATOM     37  C   UNL     1      44.839   4.421  10.398  0.00  0.00    +0.000 A 
ATOM     38  H   UNL     1      46.148   3.511   7.520  0.00  0.00    +0.000 HD
ENDBRANCH  25  28
ENDBRANCH  23  24
ENDBRANCH   4  23
TORSDOF 8
ENDMDL
MODEL 3
REMARK VINA RESULT:    -6.114      5.815      9.574
REMARK INTER + INTRA:         -10.105
REMARK INTER:                  -8.737
REMARK INTRA:                  -1.369
REMARK UNBOUND:                -1.132
REMARK  Name = 
REMARK  12 active torsions:
REMARK  status: ('A' for Active; 'I' for Inactive)
REMARK    1  A    between atoms: C_1  and  C_2
REMARK    2  A    between atoms: C_2  and  C_3
REMARK    3  A    between atoms: C_2  and  C_17
REMARK    4  A    between atoms: C_3  and  N_4
REMARK    5  A    between atoms: C_8  and  O_10
REMARK    6  A    between atoms: O_10  and  C_11
REMARK    7  A    between atoms: C_11  and  C_12
REMARK    8  A    between atoms: C_11  and  C_13
REMARK    9  A    between atoms: C_11  and  C_14
REMARK   10  A    between atoms: C_20  and  C_21
REMARK   11  A    between atoms: C_21  and  N_22
REMARK   12  A    between atoms: C_23  and  C_25
REMARK                            x       y       z     vdW  Elec       q    Type
REMARK                         _______ _______ _______ _____ _____    ______ ____
ROOT
ATOM      1  C   UNL     1      49.723   8.859  15.014  0.00  0.00    +0.000 A 
ATOM      2  C   UNL     1      50.948   9.314  15.543  0.00  0.00    +0.000 A 
ATOM      3  C   UNL     1      51.383   8.974  16.814  0.00  0.00    +0.000 A 
ATOM      4  C   UNL     1      50.595   8.181  17.631  0.00  0.00    +0.000 A 
ATOM      5  C   UNL     1      49.325   7.802  17.175  0.00  0.00    +0.000 A 
ATOM      6  C   UNL     1      48.897   8.135  15.887  0.00  0.00    +0.000 A 
ENDROOT
BRANCH   1   8
ATOM      7  C   UNL     1      49.633  10.637  13.151  0.00  0.00    +0.000 C 
ATOM      8  C   UNL     1      49.301   9.191  13.578  0.00  0.00    +0.000 C 
BRANCH   8   9
ATOM      9  C   UNL     1      47.777   8.975  13.309  0.00  0.00    +0.000 C 
BRANCH   9  10
ATOM     10  N   UNL     1      47.441   8.073  12.193  0.00  0.00    +0.000 NA
ATOM     11  C   UNL     1      46.001   7.831  11.998  0.00  0.00    +0.000 C 
ATOM     12  C   UNL     1      45.389   6.957  13.097  0.00  0.00    +0.000 C 
ATOM     13  N   UNL     1      46.163   5.730  13.251  0.00  0.00    +0.000 N 
ATOM     14  C   UNL     1      45.624   4.466  13.279  0.00  0.00    +0.000 C 
ATOM     15  O   UNL     1      46.310   3.471  13.449  0.00  0.00    +0.000 OA
ATOM     16  C   UNL     1      47.616   5.869  13.356  0.00  0.00    +0.000 C 
ATOM     17  C   UNL     1      48.165   6.796  12.264  0.00  0.00    +0.000 C 
BRANCH  14  18
ATOM     18  O   UNL     1      44.280   4.446  13.065  0.00  0.00    +0.000 OA
BRANCH  18  19
ATOM     19  C   UNL     1      43.810   4.055  11.752  0.00  0.00    +0.000 C 
ATOM     20  C   UNL     1      43.318   2.601  11.761  0.00  0.00    +0.000 C 
ATOM     21  C   UNL     1      42.616   4.969  11.428  0.00  0.00    +0.000 C 
ATOM     22  C   UNL     1      44.888   4.309  10.687  0.00  0.00    +0.000 C 
ENDBRANCH  18  19
ENDBRANCH  14  18
ENDBRANCH   9  10
ENDBRANCH   8   9
ENDBRANCH   1   8
BRANCH   4  23
ATOM     23  C   UNL     1      51.082   7.800  18.993  0.00  0.00    +0.000 C 
BRANCH  23  24
ATOM     24  N   UNL     1      51.514   6.431  19.007  0.00  0.00    +0.000 N 
ATOM     25  C   UNL     1      52.807   6.099  18.710  0.00  0.00    +0.000 C 
ATOM     26  O   UNL     1      53.656   6.948  18.454  0.00  0.00    +0.000 OA
ATOM     27  H   UNL     1      50.792   5.718  19.007  0.00  0.00    +0.000 HD
BRANCH  25  28
ATOM     28  C   UNL     1      53.138   4.674  18.775  0.00  0.00    +0.000 A 
ATOM     29  C   UNL     1      54.297   4.272  19.424  0.00  0.00    +0.000 A 
ATOM     30  S   UNL     1      54.514   2.581  19.443  0.00  0.00    +0.000 S 
ATOM     31  C   UNL     1      53.088   2.332  18.548  0.00  0.00    +0.000 A 
ATOM     32  N   UNL     1      52.696   1.080  18.192  0.00  0.00    +0.000 NA
ATOM     33  C   UNL     1      51.611   1.038  17.492  0.00  0.00    +0.000 A 
ATOM     34  N   UNL     1      50.879   2.135  17.121  0.00  0.00    +0.000 N 
ATOM     35  C   UNL     1      51.218   3.416  17.484  0.00  0.00    +0.000 A 
ATOM     36  O   UNL     1      50.511   4.371  17.178  0.00  0.00    +0.000 OA
ATOM     37  C   UNL     1      52.442   3.520  18.256  0.00  0.00    +0.000 A 
ATOM     38  H   UNL     1      50.028   2.033  16.587  0.00  0.00    +0.000 HD
ENDBRANCH  25  28
ENDBRANCH  23  24
ENDBRANCH   4  23
TORSDOF 8
ENDMDL
MODEL 4
REMARK VINA RESULT:    -6.010      5.072      8.699
REMARK INTER + INTRA:          -9.953
REMARK INTER:                  -8.620
REMARK INTRA:                  -1.334
REMARK UNBOUND:                -1.132
REMARK  Name = 
REMARK  12 active torsions:
REMARK  status: ('A' for Active; 'I' for Inactive)
REMARK    1  A    between atoms: C_1  and  C_2
REMARK    2  A    between atoms: C_2  and  C_3
REMARK    3  A    between atoms: C_2  and  C_17
REMARK    4  A    between atoms: C_3  and  N_4
REMARK    5  A    between atoms: C_8  and  O_10
REMARK    6  A    between atoms: O_10  and  C_11
REMARK    7  A    between atoms: C_11  and  C_12
REMARK    8  A    between atoms: C_11  and  C_13
REMARK    9  A    between atoms: C_11  and  C_14
REMARK   10  A    between atoms: C_20  and  C_21
REMARK   11  A    between atoms: C_21  and  N_22
REMARK   12  A    between atoms: C_23  and  C_25
REMARK                            x       y       z     vdW  Elec       q    Type
REMARK                         _______ _______ _______ _____ _____    ______ ____
ROOT
ATOM      1  C   UNL     1      49.838   9.501  13.112  0.00  0.00    +0.000 A 
ATOM      2  C   UNL     1      50.632   8.402  13.497  0.00  0.00    +0.000 A 
ATOM      3  C   UNL     1      51.135   8.259  14.780  0.00  0.00    +0.000 A 
ATOM      4  C   UNL     1      50.888   9.230  15.737  0.00  0.00    +0.000 A 
ATOM      5  C   UNL     1      50.193  10.386  15.356  0.00  0.00    +0.000 A 
ATOM      6  C   UNL     1      49.676  10.518  14.064  0.00  0.00    +0.000 A 
ENDROOT
BRANCH   1   8
ATOM      7  C   UNL     1      49.639  10.875  10.941  0.00  0.00    +0.000 C 
ATOM      8  C   UNL     1      49.235   9.597  11.706  0.00  0.00    +0.000 C 
BRANCH   8   9
ATOM      9  C   UNL     1      47.673   9.530  11.690  0.00  0.00    +0.000 C 
BRANCH   9  10
ATOM     10  N   UNL     1      47.057   8.625  12.675  0.00  0.00    +0.000 NA
ATOM     11  C   UNL     1      47.301   7.190  12.442  0.00  0.00    +0.000 C 
ATOM     12  C   UNL     1      46.539   6.646  11.229  0.00  0.00    +0.000 C 
ATOM     13  N   UNL     1      45.124   6.979  11.335  0.00  0.00    +0.000 N 
ATOM     14  C   UNL     1      44.096   6.079  11.175  0.00  0.00    +0.000 C 
ATOM     15  O   UNL     1      42.925   6.415  11.234  0.00  0.00    +0.000 OA
ATOM     16  C   UNL     1      44.789   8.366  11.660  0.00  0.00    +0.000 C 
ATOM     17  C   UNL     1      45.619   8.873  12.847  0.00  0.00    +0.000 C 
BRANCH  14  18
ATOM     18  O   UNL     1      44.522   4.801  10.983  0.00  0.00    +0.000 OA
BRANCH  18  19
ATOM     19  C   UNL     1      44.231   3.829  12.018  0.00  0.00    +0.000 C 
ATOM     20  C   UNL     1      43.404   2.666  11.454  0.00  0.00    +0.000 C 
ATOM     21  C   UNL     1      45.587   3.277  12.488  0.00  0.00    +0.000 C 
ATOM     22  C   UNL     1      43.561   4.501  13.226  0.00  0.00    +0.000 C 
ENDBRANCH  18  19
ENDBRANCH  14  18
ENDBRANCH   9  10
ENDBRANCH   8   9
ENDBRANCH   1   8
BRANCH   4  23
ATOM     23  C   UNL     1      51.416   9.057  17.126  0.00  0.00    +0.000 C 
BRANCH  23  24
ATOM     24  N   UNL     1      50.932   7.832  17.698  0.00  0.00    +0.000 N 
ATOM     25  C   UNL     1      49.791   7.810  18.450  0.00  0.00    +0.000 C 
ATOM     26  O   UNL     1      49.116   8.818  18.641  0.00  0.00    +0.000 OA
ATOM     27  H   UNL     1      51.578   7.049  17.727  0.00  0.00    +0.000 HD
BRANCH  25  28
ATOM     28  C   UNL     1      49.383   6.501  18.965  0.00  0.00    +0.000 A 
ATOM     29  C   UNL     1      49.436   6.258  20.330  0.00  0.00    +0.000 A 
ATOM     30  S   UNL     1      48.891   4.703  20.766  0.00  0.00    +0.000 S 
ATOM     31  C   UNL     1      48.606   4.287  19.140  0.00  0.00    +0.000 A 
ATOM     32  N   UNL     1      48.147   3.052  18.806  0.00  0.00    +0.000 NA
ATOM     33  C   UNL     1      48.001   2.861  17.536  0.00  0.00    +0.000 A 
ATOM     34  N   UNL     1      48.268   3.796  16.571  0.00  0.00    +0.000 N 
ATOM     35  C   UNL     1      48.703   5.067  16.863  0.00  0.00    +0.000 A 
ATOM     36  O   UNL     1      48.882   5.897  15.977  0.00  0.00    +0.000 OA
ATOM     37  C   UNL     1      48.902   5.327  18.277  0.00  0.00    +0.000 A 
ATOM     38  H   UNL     1      48.116   3.591  15.594  0.00  0.00    +0.000 HD
ENDBRANCH  25  28
ENDBRANCH  23  24
ENDBRANCH   4  23
TORSDOF 8
ENDMDL
MODEL 5
REMARK VINA RESULT:    -5.991      4.351      7.258
REMARK INTER + INTRA:          -9.924
REMARK INTER:                  -8.909
REMARK INTRA:                  -1.015
REMARK UNBOUND:                -1.132
REMARK  Name = 
REMARK  12 active torsions:
REMARK  status: ('A' for Active; 'I' for Inactive)
REMARK    1  A    between atoms: C_1  and  C_2
REMARK    2  A    between atoms: C_2  and  C_3
REMARK    3  A    between atoms: C_2  and  C_17
REMARK    4  A    between atoms: C_3  and  N_4
REMARK    5  A    between atoms: C_8  and  O_10
REMARK    6  A    between atoms: O_10  and  C_11
REMARK    7  A    between atoms: C_11  and  C_12
REMARK    8  A    between atoms: C_11  and  C_13
REMARK    9  A    between atoms: C_11  and  C_14
REMARK   10  A    between atoms: C_20  and  C_21
REMARK   11  A    between atoms: C_21  and  N_22
REMARK   12  A    between atoms: C_23  and  C_25
REMARK                            x       y       z     vdW  Elec       q    Type
REMARK                         _______ _______ _______ _____ _____    ______ ____
ROOT
ATOM      1  C   UNL     1      48.151   8.866  12.717  0.00  0.00    +0.000 A 
ATOM      2  C   UNL     1      46.819   9.293  12.890  0.00  0.00    +0.000 A 
ATOM      3  C   UNL     1      45.734   8.458  12.675  0.00  0.00    +0.000 A 
ATOM      4  C   UNL     1      45.933   7.155  12.247  0.00  0.00    +0.000 A 
ATOM      5  C   UNL     1      47.239   6.734  11.963  0.00  0.00    +0.000 A 
ATOM      6  C   UNL     1      48.330   7.576  12.196  0.00  0.00    +0.000 A 
ENDROOT
BRANCH   1   8
ATOM      7  C   UNL     1      49.711  10.733  11.870  0.00  0.00    +0.000 C 
ATOM      8  C   UNL     1      49.333   9.790  13.032  0.00  0.00    +0.000 C 
BRANCH   8   9
ATOM      9  C   UNL     1      50.633   9.025  13.440  0.00  0.00    +0.000 C 
BRANCH   9  10
ATOM     10  N   UNL     1      51.100   9.240  14.821  0.00  0.00    +0.000 NA
ATOM     11  C   UNL     1      51.714   8.064  15.462  0.00  0.00    +0.000 C 
ATOM     12  C   UNL     1      50.695   6.974  15.808  0.00  0.00    +0.000 C 
ATOM     13  N   UNL     1      49.597   7.541  16.581  0.00  0.00    +0.000 N 
ATOM     14  C   UNL     1      49.118   7.017  17.759  0.00  0.00    +0.000 C 
ATOM     15  O   UNL     1      48.169   7.507  18.348  0.00  0.00    +0.000 OA
ATOM     16  C   UNL     1      48.987   8.769  16.067  0.00  0.00    +0.000 C 
ATOM     17  C   UNL     1      50.055   9.802  15.688  0.00  0.00    +0.000 C 
BRANCH  14  18
ATOM     18  O   UNL     1      49.825   5.942  18.199  0.00  0.00    +0.000 OA
BRANCH  18  19
ATOM     19  C   UNL     1      49.168   4.650  18.190  0.00  0.00    +0.000 C 
ATOM     20  C   UNL     1      48.021   4.631  17.170  0.00  0.00    +0.000 C 
ATOM     21  C   UNL     1      50.228   3.627  17.747  0.00  0.00    +0.000 C 
ATOM     22  C   UNL     1      48.711   4.260  19.603  0.00  0.00    +0.000 C 
ENDBRANCH  18  19
ENDBRANCH  14  18
ENDBRANCH   9  10
ENDBRANCH   8   9
ENDBRANCH   1   8
BRANCH   4  23
ATOM     23  C   UNL     1      44.758   6.253  12.039  0.00  0.00    +0.000 C 
BRANCH  23  24
ATOM     24  N   UNL     1      45.124   5.131  11.221  0.00  0.00    +0.000 N 
ATOM     25  C   UNL     1      44.208   4.525  10.408  0.00  0.00    +0.000 C 
ATOM     26  O   UNL     1      43.051   4.928  10.314  0.00  0.00    +0.000 OA
ATOM     27  H   UNL     1      45.998   4.664  11.442  0.00  0.00    +0.000 HD
BRANCH  25  28
ATOM     28  C   UNL     1      44.700   3.404   9.605  0.00  0.00    +0.000 A 
ATOM     29  C   UNL     1      44.171   2.137   9.805  0.00  0.00    +0.000 A 
ATOM     30  S   UNL     1      44.824   0.955   8.764  0.00  0.00    +0.000 S 
ATOM     31  C   UNL     1      45.866   2.089   8.040  0.00  0.00    +0.000 A 
ATOM     32  N   UNL     1      46.735   1.714   7.064  0.00  0.00    +0.000 NA
ATOM     33  C   UNL     1      47.486   2.668   6.622  0.00  0.00    +0.000 A 
ATOM     34  N   UNL     1      47.442   3.964   7.064  0.00  0.00    +0.000 N 
ATOM     35  C   UNL     1      46.559   4.396   8.024  0.00  0.00    +0.000 A 
ATOM     36  O   UNL     1      46.511   5.575   8.359  0.00  0.00    +0.000 OA
ATOM     37  C   UNL     1      45.705   3.357   8.569  0.00  0.00    +0.000 A 
ATOM     38  H   UNL     1      48.045   4.669   6.664  0.00  0.00    +0.000 HD
ENDBRANCH  25  28
ENDBRANCH  23  24
ENDBRANCH   4  23
TORSDOF 8
ENDMDL
MODEL 6
REMARK VINA RESULT:    -5.974      5.407      9.275
REMARK INTER + INTRA:          -9.900
REMARK INTER:                  -9.235
REMARK INTRA:                  -0.665
REMARK UNBOUND:                -1.132
REMARK  Name = 
REMARK  12 active torsions:
REMARK  status: ('A' for Active; 'I' for Inactive)
REMARK    1  A    between atoms: C_1  and  C_2
REMARK    2  A    between atoms: C_2  and  C_3
REMARK    3  A    between atoms: C_2  and  C_17
REMARK    4  A    between atoms: C_3  and  N_4
REMARK    5  A    between atoms: C_8  and  O_10
REMARK    6  A    between atoms: O_10  and  C_11
REMARK    7  A    between atoms: C_11  and  C_12
REMARK    8  A    between atoms: C_11  and  C_13
REMARK    9  A    between atoms: C_11  and  C_14
REMARK   10  A    between atoms: C_20  and  C_21
REMARK   11  A    between atoms: C_21  and  N_22
REMARK   12  A    between atoms: C_23  and  C_25
REMARK                            x       y       z     vdW  Elec       q    Type
REMARK                         _______ _______ _______ _____ _____    ______ ____
ROOT
ATOM      1  C   UNL     1      49.667   9.191  13.657  0.00  0.00    +0.000 A 
ATOM      2  C   UNL     1      50.439   8.097  14.099  0.00  0.00    +0.000 A 
ATOM      3  C   UNL     1      50.676   7.845  15.441  0.00  0.00    +0.000 A 
ATOM      4  C   UNL     1      50.171   8.699  16.409  0.00  0.00    +0.000 A 
ATOM      5  C   UNL     1      49.492   9.854  15.998  0.00  0.00    +0.000 A 
ATOM      6  C   UNL     1      49.243  10.094  14.643  0.00  0.00    +0.000 A 
ENDROOT
BRANCH   1   8
ATOM      7  C   UNL     1      49.595  10.850  11.688  0.00  0.00    +0.000 C 
ATOM      8  C   UNL     1      49.361   9.403  12.171  0.00  0.00    +0.000 C 
BRANCH   8   9
ATOM      9  C   UNL     1      47.898   9.021  11.773  0.00  0.00    +0.000 C 
BRANCH   9  10
ATOM     10  N   UNL     1      47.171   8.173  12.734  0.00  0.00    +0.000 NA
ATOM     11  C   UNL     1      47.251   6.724  12.473  0.00  0.00    +0.000 C 
ATOM     12  C   UNL     1      46.446   6.295  11.242  0.00  0.00    +0.000 C 
ATOM     13  N   UNL     1      45.077   6.786  11.341  0.00  0.00    +0.000 N 
ATOM     14  C   UNL     1      43.955   6.014  11.153  0.00  0.00    +0.000 C 
ATOM     15  O   UNL     1      42.830   6.480  11.208  0.00  0.00    +0.000 OA
ATOM     16  C   UNL     1      44.900   8.196  11.692  0.00  0.00    +0.000 C 
ATOM     17  C   UNL     1      45.769   8.581  12.897  0.00  0.00    +0.000 C 
BRANCH  14  18
ATOM     18  O   UNL     1      44.233   4.699  10.939  0.00  0.00    +0.000 OA
BRANCH  18  19
ATOM     19  C   UNL     1      44.031   3.777  12.038  0.00  0.00    +0.000 C 
ATOM     20  C   UNL     1      43.281   2.525  11.566  0.00  0.00    +0.000 C 
ATOM     21  C   UNL     1      45.432   3.354  12.513  0.00  0.00    +0.000 C 
ATOM     22  C   UNL     1      43.335   4.476  13.216  0.00  0.00    +0.000 C 
ENDBRANCH  18  19
ENDBRANCH  14  18
ENDBRANCH   9  10
ENDBRANCH   8   9
ENDBRANCH   1   8
BRANCH   4  23
ATOM     23  C   UNL     1      50.413   8.408  17.856  0.00  0.00    +0.000 C 
BRANCH  23  24
ATOM     24  N   UNL     1      51.209   7.221  18.004  0.00  0.00    +0.000 N 
ATOM     25  C   UNL     1      50.727   6.131  18.673  0.00  0.00    +0.000 C 
ATOM     26  O   UNL     1      49.593   6.102  19.144  0.00  0.00    +0.000 OA
ATOM     27  H   UNL     1      52.202   7.304  17.811  0.00  0.00    +0.000 HD
BRANCH  25  28
ATOM     28  C   UNL     1      51.619   4.972  18.743  0.00  0.00    +0.000 A 
ATOM     29  C   UNL     1      52.824   5.078  19.423  0.00  0.00    +0.000 A 
ATOM     30  S   UNL     1      53.723   3.629  19.443  0.00  0.00    +0.000 S 
ATOM     31  C   UNL     1      52.552   2.824  18.507  0.00  0.00    +0.000 A 
ATOM     32  N   UNL     1      52.725   1.527  18.136  0.00  0.00    +0.000 NA
ATOM     33  C   UNL     1      51.774   1.049  17.405  0.00  0.00    +0.000 A 
ATOM     34  N   UNL     1      50.661   1.748  17.017  0.00  0.00    +0.000 N 
ATOM     35  C   UNL     1      50.428   3.049  17.393  0.00  0.00    +0.000 A 
ATOM     36  O   UNL     1      49.395   3.629  17.070  0.00  0.00    +0.000 OA
ATOM     37  C   UNL     1      51.478   3.641  18.201  0.00  0.00    +0.000 A 
ATOM     38  H   UNL     1      49.942   1.310  16.459  0.00  0.00    +0.000 HD
ENDBRANCH  25  28
ENDBRANCH  23  24
ENDBRANCH   4  23
TORSDOF 8
ENDMDL
MODEL 7
REMARK VINA RESULT:    -5.955      1.915      2.458
REMARK INTER + INTRA:          -9.872
REMARK INTER:                  -9.020
REMARK INTRA:                  -0.851
REMARK UNBOUND:                -1.132
REMARK  Name = 
REMARK  12 active torsions:
REMARK  status: ('A' for Active; 'I' for Inactive)
REMARK    1  A    between atoms: C_1  and  C_2
REMARK    2  A    between atoms: C_2  and  C_3
REMARK    3  A    between atoms: C_2  and  C_17
REMARK    4  A    between atoms: C_3  and  N_4
REMARK    5  A    between atoms: C_8  and  O_10
REMARK    6  A    between atoms: O_10  and  C_11
REMARK    7  A    between atoms: C_11  and  C_12
REMARK    8  A    between atoms: C_11  and  C_13
REMARK    9  A    between atoms: C_11  and  C_14
REMARK   10  A    between atoms: C_20  and  C_21
REMARK   11  A    between atoms: C_21  and  N_22
REMARK   12  A    between atoms: C_23  and  C_25
REMARK                            x       y       z     vdW  Elec       q    Type
REMARK                         _______ _______ _______ _____ _____    ______ ____
ROOT
ATOM      1  C   UNL     1      50.433   8.848  12.237  0.00  0.00    +0.000 A 
ATOM      2  C   UNL     1      49.541   9.937  12.325  0.00  0.00    +0.000 A 
ATOM      3  C   UNL     1      48.188   9.774  12.576  0.00  0.00    +0.000 A 
ATOM      4  C   UNL     1      47.655   8.503  12.724  0.00  0.00    +0.000 A 
ATOM      5  C   UNL     1      48.496   7.397  12.535  0.00  0.00    +0.000 A 
ATOM      6  C   UNL     1      49.862   7.568  12.297  0.00  0.00    +0.000 A 
ENDROOT
BRANCH   1   8
ATOM      7  C   UNL     1      52.426  10.468  12.441  0.00  0.00    +0.000 C 
ATOM      8  C   UNL     1      51.936   9.063  12.030  0.00  0.00    +0.000 C 
BRANCH   8   9
ATOM      9  C   UNL     1      52.404   8.829  10.558  0.00  0.00    +0.000 C 
BRANCH   9  10
ATOM     10  N   UNL     1      53.860   8.724  10.354  0.00  0.00    +0.000 NA
ATOM     11  C   UNL     1      54.294   8.716   8.946  0.00  0.00    +0.000 C 
ATOM     12  C   UNL     1      53.938   7.414   8.220  0.00  0.00    +0.000 C 
ATOM     13  N   UNL     1      54.425   6.268   8.978  0.00  0.00    +0.000 N 
ATOM     14  C   UNL     1      55.163   5.237   8.446  0.00  0.00    +0.000 C 
ATOM     15  O   UNL     1      55.514   4.278   9.114  0.00  0.00    +0.000 OA
ATOM     16  C   UNL     1      54.123   6.240  10.410  0.00  0.00    +0.000 C 
ATOM     17  C   UNL     1      54.449   7.585  11.071  0.00  0.00    +0.000 C 
BRANCH  14  18
ATOM     18  O   UNL     1      55.478   5.417   7.135  0.00  0.00    +0.000 OA
BRANCH  18  19
ATOM     19  C   UNL     1      54.850   4.546   6.162  0.00  0.00    +0.000 C 
ATOM     20  C   UNL     1      54.744   5.241   4.798  0.00  0.00    +0.000 C 
ATOM     21  C   UNL     1      55.773   3.324   6.014  0.00  0.00    +0.000 C 
ATOM     22  C   UNL     1      53.493   4.041   6.676  0.00  0.00    +0.000 C 
ENDBRANCH  18  19
ENDBRANCH  14  18
ENDBRANCH   9  10
ENDBRANCH   8   9
ENDBRANCH   1   8
BRANCH   4  23
ATOM     23  C   UNL     1      46.198   8.337  13.018  0.00  0.00    +0.000 C 
BRANCH  23  24
ATOM     24  N   UNL     1      45.785   6.986  12.759  0.00  0.00    +0.000 N 
ATOM     25  C   UNL     1      44.860   6.708  11.791  0.00  0.00    +0.000 C 
ATOM     26  O   UNL     1      44.370   7.585  11.085  0.00  0.00    +0.000 OA
ATOM     27  H   UNL     1      46.014   6.290  13.461  0.00  0.00    +0.000 HD
BRANCH  25  28
ATOM     28  C   UNL     1      44.530   5.294  11.603  0.00  0.00    +0.000 A 
ATOM     29  C   UNL     1      43.867   4.607  12.610  0.00  0.00    +0.000 A 
ATOM     30  S   UNL     1      43.525   2.984  12.215  0.00  0.00    +0.000 S 
ATOM     31  C   UNL     1      44.289   3.133  10.701  0.00  0.00    +0.000 A 
ATOM     32  N   UNL     1      44.373   2.073   9.854  0.00  0.00    +0.000 NA
ATOM     33  C   UNL     1      45.002   2.318   8.753  0.00  0.00    +0.000 A 
ATOM     34  N   UNL     1      45.549   3.529   8.419  0.00  0.00    +0.000 N 
ATOM     35  C   UNL     1      45.461   4.636   9.229  0.00  0.00    +0.000 A 
ATOM     36  O   UNL     1      45.918   5.719   8.875  0.00  0.00    +0.000 OA
ATOM     37  C   UNL     1      44.780   4.409  10.489  0.00  0.00    +0.000 A 
ATOM     38  H   UNL     1      46.014   3.661   7.532  0.00  0.00    +0.000 HD
ENDBRANCH  25  28
ENDBRANCH  23  24
ENDBRANCH   4  23
TORSDOF 8
ENDMDL
MODEL 8
REMARK VINA RESULT:    -5.878      4.721      6.944
REMARK INTER + INTRA:          -9.759
REMARK INTER:                  -8.867
REMARK INTRA:                  -0.892
REMARK UNBOUND:                -1.132
REMARK  Name = 
REMARK  12 active torsions:
REMARK  status: ('A' for Active; 'I' for Inactive)
REMARK    1  A    between atoms: C_1  and  C_2
REMARK    2  A    between atoms: C_2  and  C_3
REMARK    3  A    between atoms: C_2  and  C_17
REMARK    4  A    between atoms: C_3  and  N_4
REMARK    5  A    between atoms: C_8  and  O_10
REMARK    6  A    between atoms: O_10  and  C_11
REMARK    7  A    between atoms: C_11  and  C_12
REMARK    8  A    between atoms: C_11  and  C_13
REMARK    9  A    between atoms: C_11  and  C_14
REMARK   10  A    between atoms: C_20  and  C_21
REMARK   11  A    between atoms: C_21  and  N_22
REMARK   12  A    between atoms: C_23  and  C_25
REMARK                            x       y       z     vdW  Elec       q    Type
REMARK                         _______ _______ _______ _____ _____    ______ ____
ROOT
ATOM      1  C   UNL     1      46.010   7.258  12.757  0.00  0.00    +0.000 A 
ATOM      2  C   UNL     1      44.905   7.138  11.890  0.00  0.00    +0.000 A 
ATOM      3  C   UNL     1      44.305   5.921  11.611  0.00  0.00    +0.000 A 
ATOM      4  C   UNL     1      44.804   4.754  12.169  0.00  0.00    +0.000 A 
ATOM      5  C   UNL     1      45.966   4.827  12.949  0.00  0.00    +0.000 A 
ATOM      6  C   UNL     1      46.559   6.059  13.238  0.00  0.00    +0.000 A 
ENDROOT
BRANCH   1   8
ATOM      7  C   UNL     1      46.084   9.776  12.218  0.00  0.00    +0.000 C 
ATOM      8  C   UNL     1      46.608   8.626  13.104  0.00  0.00    +0.000 C 
BRANCH   8   9
ATOM      9  C   UNL     1      48.169   8.664  13.025  0.00  0.00    +0.000 C 
BRANCH   9  10
ATOM     10  N   UNL     1      48.858   9.249  14.189  0.00  0.00    +0.000 NA
ATOM     11  C   UNL     1      50.323   9.342  14.064  0.00  0.00    +0.000 C 
ATOM     12  C   UNL     1      51.016   7.978  14.139  0.00  0.00    +0.000 C 
ATOM     13  N   UNL     1      50.585   7.262  15.334  0.00  0.00    +0.000 N 
ATOM     14  C   UNL     1      51.435   6.669  16.238  0.00  0.00    +0.000 C 
ATOM     15  O   UNL     1      51.024   6.047  17.203  0.00  0.00    +0.000 OA
ATOM     16  C   UNL     1      49.145   7.202  15.591  0.00  0.00    +0.000 C 
ATOM     17  C   UNL     1      48.498   8.585  15.449  0.00  0.00    +0.000 C 
BRANCH  14  18
ATOM     18  O   UNL     1      52.750   6.878  15.961  0.00  0.00    +0.000 OA
BRANCH  18  19
ATOM     19  C   UNL     1      53.515   7.690  16.885  0.00  0.00    +0.000 C 
ATOM     20  C   UNL     1      52.689   8.890  17.367  0.00  0.00    +0.000 C 
ATOM     21  C   UNL     1      53.824   6.795  18.097  0.00  0.00    +0.000 C 
ATOM     22  C   UNL     1      54.857   8.107  16.265  0.00  0.00    +0.000 C 
ENDBRANCH  18  19
ENDBRANCH  14  18
ENDBRANCH   9  10
ENDBRANCH   8   9
ENDBRANCH   1   8
BRANCH   4  23
ATOM     23  C   UNL     1      44.136   3.447  11.881  0.00  0.00    +0.000 C 
BRANCH  23  24
ATOM     24  N   UNL     1      44.890   2.701  10.912  0.00  0.00    +0.000 N 
ATOM     25  C   UNL     1      44.641   2.833   9.575  0.00  0.00    +0.000 C 
ATOM     26  O   UNL     1      43.796   3.612   9.142  0.00  0.00    +0.000 OA
ATOM     27  H   UNL     1      45.432   1.914  11.256  0.00  0.00    +0.000 HD
BRANCH  25  28
ATOM     28  C   UNL     1      45.485   2.038   8.680  0.00  0.00    +0.000 A 
ATOM     29  C   UNL     1      45.419   0.654   8.732  0.00  0.00    +0.000 A 
ATOM     30  S   UNL     1      46.435  -0.119   7.601  0.00  0.00    +0.000 S 
ATOM     31  C   UNL     1      47.028   1.372   7.033  0.00  0.00    +0.000 A 
ATOM     32  N   UNL     1      47.972   1.422   6.056  0.00  0.00    +0.000 NA
ATOM     33  C   UNL     1      48.352   2.615   5.740  0.00  0.00    +0.000 A 
ATOM     34  N   UNL     1      47.870   3.764   6.309  0.00  0.00    +0.000 N 
ATOM     35  C   UNL     1      46.894   3.765   7.276  0.00  0.00    +0.000 A 
ATOM     36  O   UNL     1      46.447   4.815   7.727  0.00  0.00    +0.000 OA
ATOM     37  C   UNL     1      46.445   2.446   7.682  0.00  0.00    +0.000 A 
ATOM     38  H   UNL     1      48.196   4.670   6.004  0.00  0.00    +0.000 HD
ENDBRANCH  25  28
ENDBRANCH  23  24
ENDBRANCH   4  23
TORSDOF 8
ENDMDL
MODEL 9
REMARK VINA RESULT:    -5.670      4.422      7.594
REMARK INTER + INTRA:          -9.453
REMARK INTER:                  -8.627
REMARK INTRA:                  -0.826
REMARK UNBOUND:                -1.132
REMARK  Name = 
REMARK  12 active torsions:
REMARK  status: ('A' for Active; 'I' for Inactive)
REMARK    1  A    between atoms: C_1  and  C_2
REMARK    2  A    between atoms: C_2  and  C_3
REMARK    3  A    between atoms: C_2  and  C_17
REMARK    4  A    between atoms: C_3  and  N_4
REMARK    5  A    between atoms: C_8  and  O_10
REMARK    6  A    between atoms: O_10  and  C_11
REMARK    7  A    between atoms: C_11  and  C_12
REMARK    8  A    between atoms: C_11  and  C_13
REMARK    9  A    between atoms: C_11  and  C_14
REMARK   10  A    between atoms: C_20  and  C_21
REMARK   11  A    between atoms: C_21  and  N_22
REMARK   12  A    between atoms: C_23  and  C_25
REMARK                            x       y       z     vdW  Elec       q    Type
REMARK                         _______ _______ _______ _____ _____    ______ ____
ROOT
ATOM      1  C   UNL     1      50.451   9.162  14.362  0.00  0.00    +0.000 A 
ATOM      2  C   UNL     1      50.642   8.480  13.142  0.00  0.00    +0.000 A 
ATOM      3  C   UNL     1      49.632   8.334  12.204  0.00  0.00    +0.000 A 
ATOM      4  C   UNL     1      48.368   8.842  12.456  0.00  0.00    +0.000 A 
ATOM      5  C   UNL     1      48.118   9.430  13.704  0.00  0.00    +0.000 A 
ATOM      6  C   UNL     1      49.144   9.588  14.640  0.00  0.00    +0.000 A 
ENDROOT
BRANCH   1   8
ATOM      7  C   UNL     1      52.912   8.661  14.935  0.00  0.00    +0.000 C 
ATOM      8  C   UNL     1      51.605   9.371  15.348  0.00  0.00    +0.000 C 
BRANCH   8   9
ATOM      9  C   UNL     1      51.275   8.908  16.804  0.00  0.00    +0.000 C 
BRANCH   9  10
ATOM     10  N   UNL     1      51.438   7.468  17.074  0.00  0.00    +0.000 NA
ATOM     11  C   UNL     1      50.617   6.580  16.232  0.00  0.00    +0.000 C 
ATOM     12  C   UNL     1      49.126   6.639  16.579  0.00  0.00    +0.000 C 
ATOM     13  N   UNL     1      48.935   6.416  18.007  0.00  0.00    +0.000 N 
ATOM     14  C   UNL     1      48.041   5.519  18.545  0.00  0.00    +0.000 C 
ATOM     15  O   UNL     1      47.889   5.397  19.749  0.00  0.00    +0.000 OA
ATOM     16  C   UNL     1      49.779   7.189  18.921  0.00  0.00    +0.000 C 
ATOM     17  C   UNL     1      51.251   7.136  18.493  0.00  0.00    +0.000 C 
BRANCH  14  18
ATOM     18  O   UNL     1      47.388   4.779  17.608  0.00  0.00    +0.000 OA
BRANCH  18  19
ATOM     19  C   UNL     1      47.930   3.477  17.278  0.00  0.00    +0.000 C 
ATOM     20  C   UNL     1      49.352   3.321  17.835  0.00  0.00    +0.000 C 
ATOM     21  C   UNL     1      47.023   2.442  17.966  0.00  0.00    +0.000 C 
ATOM     22  C   UNL     1      47.856   3.222  15.765  0.00  0.00    +0.000 C 
ENDBRANCH  18  19
ENDBRANCH  14  18
ENDBRANCH   9  10
ENDBRANCH   8   9
ENDBRANCH   1   8
BRANCH   4  23
ATOM     23  C   UNL     1      47.290   8.700  11.429  0.00  0.00    +0.000 C 
BRANCH  23  24
ATOM     24  N   UNL     1      46.617   7.441  11.579  0.00  0.00    +0.000 N 
ATOM     25  C   UNL     1      45.252   7.368  11.566  0.00  0.00    +0.000 C 
ATOM     26  O   UNL     1      44.547   8.359  11.394  0.00  0.00    +0.000 OA
ATOM     27  H   UNL     1      47.166   6.662  11.928  0.00  0.00    +0.000 HD
BRANCH  25  28
ATOM     28  C   UNL     1      44.676   6.029  11.708  0.00  0.00    +0.000 A 
ATOM     29  C   UNL     1      43.969   5.709  12.858  0.00  0.00    +0.000 A 
ATOM     30  S   UNL     1      43.333   4.127  12.847  0.00  0.00    +0.000 S 
ATOM     31  C   UNL     1      44.018   3.803  11.323  0.00  0.00    +0.000 A 
ATOM     32  N   UNL     1      43.869   2.586  10.735  0.00  0.00    +0.000 NA
ATOM     33  C   UNL     1      44.463   2.468   9.594  0.00  0.00    +0.000 A 
ATOM     34  N   UNL     1      45.187   3.458   8.984  0.00  0.00    +0.000 N 
ATOM     35  C   UNL     1      45.337   4.713   9.525  0.00  0.00    +0.000 A 
ATOM     36  O   UNL     1      45.948   5.593   8.927  0.00  0.00    +0.000 OA
ATOM     37  C   UNL     1      44.704   4.893  10.818  0.00  0.00    +0.000 A 
ATOM     38  H   UNL     1      45.613   3.308   8.081  0.00  0.00    +0.000 HD
ENDBRANCH  25  28
ENDBRANCH  23  24
ENDBRANCH   4  23
TORSDOF 8
ENDMDL
