MODEL 1
REMARK VINA RESULT:    -8.308      0.000      0.000
REMARK INTER + INTRA:         -11.993
REMARK INTER:                 -10.979
REMARK INTRA:                  -1.014
REMARK UNBOUND:                -1.014
REMARK  Name = 
REMARK  6 active torsions:
REMARK  status: ('A' for Active; 'I' for Inactive)
REMARK    1  A    between atoms: C_2  and  C_3
REMARK    2  A    between atoms: C_6  and  N_7
REMARK    3  A    between atoms: N_7  and  C_8
REMARK    4  A    between atoms: C_8  and  C_9
REMARK    5  A    between atoms: C_14  and  C_15
REMARK    6  A    between atoms: C_20  and  O_21
REMARK                            x       y       z     vdW  Elec       q    Type
REMARK                         _______ _______ _______ _____ _____    ______ ____
ROOT
ATOM      1  C   UNL     1      45.047   5.144  12.242  0.00  0.00    +0.000 A 
ATOM      2  C   UNL     1      45.550   4.139  13.071  0.00  0.00    +0.000 A 
ATOM      3  C   UNL     1      46.799   4.289  13.665  0.00  0.00    +0.000 A 
ATOM      4  F   UNL     1      47.305   3.281  14.390  0.00  0.00    +0.000 F 
ATOM      5  C   UNL     1      47.560   5.443  13.483  0.00  0.00    +0.000 A 
ATOM      6  C   UNL     1      47.063   6.517  12.734  0.00  0.00    +0.000 A 
ATOM      7  C   UNL     1      45.801   6.336  12.138  0.00  0.00    +0.000 A 
ENDROOT
BRANCH   6   8
ATOM      8  C   UNL     1      47.844   7.766  12.533  0.00  0.00    +0.000 A 
ATOM      9  C   UNL     1      48.837   7.829  11.534  0.00  0.00    +0.000 A 
ATOM     10  C   UNL     1      49.623   8.972  11.347  0.00  0.00    +0.000 A 
ATOM     11  C   UNL     1      49.422  10.095  12.141  0.00  0.00    +0.000 A 
ATOM     12  C   UNL     1      48.427  10.081  13.114  0.00  0.00    +0.000 A 
ATOM     13  C   UNL     1      47.653   8.931  13.307  0.00  0.00    +0.000 A 
BRANCH  13  14
ATOM     14  O   UNL     1      46.702   8.952  14.295  0.00  0.00    +0.000 OA
ATOM     15  H   UNL     1      47.100   9.287  15.114  0.00  0.00    +0.000 HD
ENDBRANCH  13  14
ENDBRANCH   6   8
BRANCH   1  16
ATOM     16  C   UNL     1      43.858   4.943  11.311  0.00  0.00    +0.000 C 
ATOM     17  C   UNL     1      42.665   4.106  11.712  0.00  0.00    +0.000 C 
ATOM     18  C   UNL     1      42.536   5.594  11.692  0.00  0.00    +0.000 C 
BRANCH  16  19
ATOM     19  N   UNL     1      44.240   5.146   9.902  0.00  0.00    +0.000 N 
ATOM     20  H   UNL     1      44.525   6.096   9.668  0.00  0.00    +0.000 HD
BRANCH  19  24
ATOM     21  C   UNL     1      46.688   2.868   7.553  0.00  0.00    +0.000 A 
ATOM     22  C   UNL     1      46.761   4.248   7.580  0.00  0.00    +0.000 A 
ATOM     23  N   UNL     1      45.988   4.997   8.402  0.00  0.00    +0.000 NA
ATOM     24  C   UNL     1      45.125   4.330   9.202  0.00  0.00    +0.000 A 
ATOM     25  C   UNL     1      45.091   2.939   9.195  0.00  0.00    +0.000 A 
ATOM     26  N   UNL     1      45.861   2.174   8.372  0.00  0.00    +0.000 NA
BRANCH  21  28
ATOM     27  N   UNL     1      48.131   1.514   5.879  0.00  0.00    +0.000 NA
ATOM     28  C   UNL     1      47.457   2.114   6.603  0.00  0.00    +0.000 C 
ENDBRANCH  21  28
ENDBRANCH  19  24
ENDBRANCH  16  19
ENDBRANCH   1  16
TORSDOF 6
ENDMDL
MODEL 2
REMARK VINA RESULT:    -7.786      2.217      3.735
REMARK INTER + INTRA:         -11.303
REMARK INTER:                 -11.139
REMARK INTRA:                  -0.165
REMARK UNBOUND:                -1.014
REMARK  Name = 
REMARK  6 active torsions:
REMARK  status: ('A' for Active; 'I' for Inactive)
REMARK    1  A    between atoms: C_2  and  C_3
REMARK    2  A    between atoms: C_6  and  N_7
REMARK    3  A    between atoms: N_7  and  C_8
REMARK    4  A    between atoms: C_8  and  C_9
REMARK    5  A    between atoms: C_14  and  C_15
REMARK    6  A    between atoms: C_20  and  O_21
REMARK                            x       y       z     vdW  Elec       q    Type
REMARK                         _______ _______ _______ _____ _____    ______ ____
ROOT
ATOM      1  C   UNL     1      45.558   5.149  12.251  0.00  0.00    +0.000 A 
ATOM      2  C   UNL     1      46.244   6.188  11.619  0.00  0.00    +0.000 A 
ATOM      3  C   UNL     1      47.334   6.783  12.245  0.00  0.00    +0.000 A 
ATOM      4  F   UNL     1      47.930   7.834  11.664  0.00  0.00    +0.000 F 
ATOM      5  C   UNL     1      47.789   6.347  13.489  0.00  0.00    +0.000 A 
ATOM      6  C   UNL     1      47.192   5.251  14.125  0.00  0.00    +0.000 A 
ATOM      7  C   UNL     1      46.087   4.673  13.473  0.00  0.00    +0.000 A 
ENDROOT
BRANCH   6   8
ATOM      8  C   UNL     1      47.662   4.753  15.444  0.00  0.00    +0.000 A 
ATOM      9  C   UNL     1      47.576   3.380  15.757  0.00  0.00    +0.000 A 
ATOM     10  C   UNL     1      47.965   2.882  17.005  0.00  0.00    +0.000 A 
ATOM     11  C   UNL     1      48.473   3.742  17.972  0.00  0.00    +0.000 A 
ATOM     12  C   UNL     1      48.605   5.098  17.687  0.00  0.00    +0.000 A 
ATOM     13  C   UNL     1      48.201   5.593  16.442  0.00  0.00    +0.000 A 
BRANCH  13  14
ATOM     14  O   UNL     1      48.324   6.940  16.213  0.00  0.00    +0.000 OA
ATOM     15  H   UNL     1      48.554   7.385  17.045  0.00  0.00    +0.000 HD
ENDBRANCH  13  14
ENDBRANCH   6   8
BRANCH   1  16
ATOM     16  C   UNL     1      44.188   4.657  11.801  0.00  0.00    +0.000 C 
ATOM     17  C   UNL     1      43.401   3.647  12.605  0.00  0.00    +0.000 C 
ATOM     18  C   UNL     1      42.975   5.078  12.620  0.00  0.00    +0.000 C 
BRANCH  16  19
ATOM     19  N   UNL     1      44.011   4.816  10.347  0.00  0.00    +0.000 N 
ATOM     20  H   UNL     1      44.002   5.780  10.019  0.00  0.00    +0.000 HD
BRANCH  19  24
ATOM     21  C   UNL     1      46.367   2.669   7.788  0.00  0.00    +0.000 A 
ATOM     22  C   UNL     1      45.532   2.065   8.710  0.00  0.00    +0.000 A 
ATOM     23  N   UNL     1      44.710   2.778   9.518  0.00  0.00    +0.000 NA
ATOM     24  C   UNL     1      44.745   4.124   9.386  0.00  0.00    +0.000 A 
ATOM     25  C   UNL     1      45.559   4.716   8.426  0.00  0.00    +0.000 A 
ATOM     26  N   UNL     1      46.391   4.012   7.610  0.00  0.00    +0.000 NA
BRANCH  21  28
ATOM     27  N   UNL     1      48.016   1.292   6.339  0.00  0.00    +0.000 NA
ATOM     28  C   UNL     1      47.290   1.885   7.016  0.00  0.00    +0.000 C 
ENDBRANCH  21  28
ENDBRANCH  19  24
ENDBRANCH  16  19
ENDBRANCH   1  16
TORSDOF 6
ENDMDL
MODEL 3
REMARK VINA RESULT:    -7.756      2.021      2.593
REMARK INTER + INTRA:         -11.264
REMARK INTER:                 -10.453
REMARK INTRA:                  -0.810
REMARK UNBOUND:                -1.014
REMARK  Name = 
REMARK  6 active torsions:
REMARK  status: ('A' for Active; 'I' for Inactive)
REMARK    1  A    between atoms: C_2  and  C_3
REMARK    2  A    between atoms: C_6  and  N_7
REMARK    3  A    between atoms: N_7  and  C_8
REMARK    4  A    between atoms: C_8  and  C_9
REMARK    5  A    between atoms: C_14  and  C_15
REMARK    6  A    between atoms: C_20  and  O_21
REMARK                            x       y       z     vdW  Elec       q    Type
REMARK                         _______ _______ _______ _____ _____    ______ ____
ROOT
ATOM      1  C   UNL     1      44.980   5.936  11.527  0.00  0.00    +0.000 A 
ATOM      2  C   UNL     1      44.068   6.943  11.203  0.00  0.00    +0.000 A 
ATOM      3  C   UNL     1      44.414   8.278  11.382  0.00  0.00    +0.000 A 
ATOM      4  F   UNL     1      43.499   9.229  11.147  0.00  0.00    +0.000 F 
ATOM      5  C   UNL     1      45.673   8.649  11.852  0.00  0.00    +0.000 A 
ATOM      6  C   UNL     1      46.655   7.683  12.107  0.00  0.00    +0.000 A 
ATOM      7  C   UNL     1      46.276   6.340  11.924  0.00  0.00    +0.000 A 
ENDROOT
BRANCH   6   8
ATOM      8  C   UNL     1      48.011   8.046  12.595  0.00  0.00    +0.000 A 
ATOM      9  C   UNL     1      49.139   7.851  11.770  0.00  0.00    +0.000 A 
ATOM     10  C   UNL     1      50.435   8.138  12.213  0.00  0.00    +0.000 A 
ATOM     11  C   UNL     1      50.639   8.650  13.489  0.00  0.00    +0.000 A 
ATOM     12  C   UNL     1      49.547   8.887  14.319  0.00  0.00    +0.000 A 
ATOM     13  C   UNL     1      48.254   8.586  13.876  0.00  0.00    +0.000 A 
BRANCH  13  14
ATOM     14  O   UNL     1      47.209   8.811  14.736  0.00  0.00    +0.000 OA
ATOM     15  H   UNL     1      47.309   8.240  15.515  0.00  0.00    +0.000 HD
ENDBRANCH  13  14
ENDBRANCH   6   8
BRANCH   1  16
ATOM     16  C   UNL     1      44.593   4.469  11.665  0.00  0.00    +0.000 C 
ATOM     17  C   UNL     1      45.218   3.575  12.711  0.00  0.00    +0.000 C 
ATOM     18  C   UNL     1      43.815   4.052  12.906  0.00  0.00    +0.000 C 
BRANCH  16  19
ATOM     19  N   UNL     1      44.037   3.940  10.407  0.00  0.00    +0.000 N 
ATOM     20  H   UNL     1      43.314   4.518   9.981  0.00  0.00    +0.000 HD
BRANCH  19  24
ATOM     21  C   UNL     1      46.541   2.538   7.496  0.00  0.00    +0.000 A 
ATOM     22  C   UNL     1      45.945   1.706   8.426  0.00  0.00    +0.000 A 
ATOM     23  N   UNL     1      45.072   2.165   9.353  0.00  0.00    +0.000 NA
ATOM     24  C   UNL     1      44.807   3.492   9.335  0.00  0.00    +0.000 A 
ATOM     25  C   UNL     1      45.380   4.311   8.368  0.00  0.00    +0.000 A 
ATOM     26  N   UNL     1      46.262   3.862   7.432  0.00  0.00    +0.000 NA
BRANCH  21  28
ATOM     27  N   UNL     1      48.284   1.571   5.840  0.00  0.00    +0.000 NA
ATOM     28  C   UNL     1      47.531   2.029   6.590  0.00  0.00    +0.000 C 
ENDBRANCH  21  28
ENDBRANCH  19  24
ENDBRANCH  16  19
ENDBRANCH   1  16
TORSDOF 6
ENDMDL
MODEL 4
REMARK VINA RESULT:    -6.978      3.809      7.079
REMARK INTER + INTRA:         -10.236
REMARK INTER:                 -10.265
REMARK INTRA:                   0.028
REMARK UNBOUND:                -1.014
REMARK  Name = 
REMARK  6 active torsions:
REMARK  status: ('A' for Active; 'I' for Inactive)
REMARK    1  A    between atoms: C_2  and  C_3
REMARK    2  A    between atoms: C_6  and  N_7
REMARK    3  A    between atoms: N_7  and  C_8
REMARK    4  A    between atoms: C_8  and  C_9
REMARK    5  A    between atoms: C_14  and  C_15
REMARK    6  A    between atoms: C_20  and  O_21
REMARK                            x       y       z     vdW  Elec       q    Type
REMARK                         _______ _______ _______ _____ _____    ______ ____
ROOT
ATOM      1  C   UNL     1      45.488   6.325  11.768  0.00  0.00    +0.000 A 
ATOM      2  C   UNL     1      44.116   6.356  12.033  0.00  0.00    +0.000 A 
ATOM      3  C   UNL     1      43.241   5.612  11.249  0.00  0.00    +0.000 A 
ATOM      4  F   UNL     1      41.921   5.718  11.461  0.00  0.00    +0.000 F 
ATOM      5  C   UNL     1      43.699   4.800  10.213  0.00  0.00    +0.000 A 
ATOM      6  C   UNL     1      45.070   4.664   9.963  0.00  0.00    +0.000 A 
ATOM      7  C   UNL     1      45.933   5.432  10.766  0.00  0.00    +0.000 A 
ENDROOT
BRANCH   6   8
ATOM      8  C   UNL     1      45.591   3.794   8.876  0.00  0.00    +0.000 A 
ATOM      9  C   UNL     1      46.263   4.362   7.773  0.00  0.00    +0.000 A 
ATOM     10  C   UNL     1      46.726   3.579   6.709  0.00  0.00    +0.000 A 
ATOM     11  C   UNL     1      46.549   2.201   6.728  0.00  0.00    +0.000 A 
ATOM     12  C   UNL     1      45.921   1.602   7.816  0.00  0.00    +0.000 A 
ATOM     13  C   UNL     1      45.447   2.390   8.871  0.00  0.00    +0.000 A 
BRANCH  13  14
ATOM     14  O   UNL     1      44.811   1.761   9.911  0.00  0.00    +0.000 OA
ATOM     15  H   UNL     1      43.861   1.707   9.718  0.00  0.00    +0.000 HD
ENDBRANCH  13  14
ENDBRANCH   6   8
BRANCH   1  16
ATOM     16  C   UNL     1      46.475   7.328  12.351  0.00  0.00    +0.000 C 
ATOM     17  C   UNL     1      46.538   8.758  11.864  0.00  0.00    +0.000 C 
ATOM     18  C   UNL     1      45.918   8.469  13.192  0.00  0.00    +0.000 C 
BRANCH  16  19
ATOM     19  N   UNL     1      47.634   6.651  12.958  0.00  0.00    +0.000 N 
ATOM     20  H   UNL     1      48.470   7.226  13.044  0.00  0.00    +0.000 HD
BRANCH  19  24
ATOM     21  C   UNL     1      47.823   4.417  16.376  0.00  0.00    +0.000 A 
ATOM     22  C   UNL     1      48.548   5.582  16.211  0.00  0.00    +0.000 A 
ATOM     23  N   UNL     1      48.440   6.351  15.100  0.00  0.00    +0.000 NA
ATOM     24  C   UNL     1      47.585   5.921  14.144  0.00  0.00    +0.000 A 
ATOM     25  C   UNL     1      46.831   4.769  14.340  0.00  0.00    +0.000 A 
ATOM     26  N   UNL     1      46.933   3.986  15.450  0.00  0.00    +0.000 NA
BRANCH  21  28
ATOM     27  N   UNL     1      48.268   2.936  18.456  0.00  0.00    +0.000 NA
ATOM     28  C   UNL     1      48.035   3.582  17.525  0.00  0.00    +0.000 C 
ENDBRANCH  21  28
ENDBRANCH  19  24
ENDBRANCH  16  19
ENDBRANCH   1  16
TORSDOF 6
ENDMDL
MODEL 5
REMARK VINA RESULT:    -6.908      4.242      7.220
REMARK INTER + INTRA:         -10.143
REMARK INTER:                  -9.330
REMARK INTRA:                  -0.813
REMARK UNBOUND:                -1.014
REMARK  Name = 
REMARK  6 active torsions:
REMARK  status: ('A' for Active; 'I' for Inactive)
REMARK    1  A    between atoms: C_2  and  C_3
REMARK    2  A    between atoms: C_6  and  N_7
REMARK    3  A    between atoms: N_7  and  C_8
REMARK    4  A    between atoms: C_8  and  C_9
REMARK    5  A    between atoms: C_14  and  C_15
REMARK    6  A    between atoms: C_20  and  O_21
REMARK                            x       y       z     vdW  Elec       q    Type
REMARK                         _______ _______ _______ _____ _____    ______ ____
ROOT
ATOM      1  C   UNL     1      45.702   5.061  12.994  0.00  0.00    +0.000 A 
ATOM      2  C   UNL     1      44.365   5.374  13.248  0.00  0.00    +0.000 A 
ATOM      3  C   UNL     1      43.396   5.111  12.286  0.00  0.00    +0.000 A 
ATOM      4  F   UNL     1      42.130   5.494  12.510  0.00  0.00    +0.000 F 
ATOM      5  C   UNL     1      43.717   4.507  11.071  0.00  0.00    +0.000 A 
ATOM      6  C   UNL     1      45.028   4.093  10.803  0.00  0.00    +0.000 A 
ATOM      7  C   UNL     1      45.990   4.377  11.790  0.00  0.00    +0.000 A 
ENDROOT
BRANCH   6   8
ATOM      8  C   UNL     1      45.400   3.433   9.524  0.00  0.00    +0.000 A 
ATOM      9  C   UNL     1      45.305   2.033   9.393  0.00  0.00    +0.000 A 
ATOM     10  C   UNL     1      45.691   1.374   8.220  0.00  0.00    +0.000 A 
ATOM     11  C   UNL     1      46.164   2.101   7.134  0.00  0.00    +0.000 A 
ATOM     12  C   UNL     1      46.240   3.488   7.215  0.00  0.00    +0.000 A 
ATOM     13  C   UNL     1      45.866   4.141   8.395  0.00  0.00    +0.000 A 
BRANCH  13  14
ATOM     14  O   UNL     1      45.981   5.508   8.440  0.00  0.00    +0.000 OA
ATOM     15  H   UNL     1      46.149   5.783   9.356  0.00  0.00    +0.000 HD
ENDBRANCH  13  14
ENDBRANCH   6   8
BRANCH   1  16
ATOM     16  C   UNL     1      46.859   5.589  13.833  0.00  0.00    +0.000 C 
ATOM     17  C   UNL     1      48.166   6.019  13.208  0.00  0.00    +0.000 C 
ATOM     18  C   UNL     1      47.219   7.063  13.704  0.00  0.00    +0.000 C 
BRANCH  16  19
ATOM     19  N   UNL     1      46.770   5.117  15.226  0.00  0.00    +0.000 N 
ATOM     20  H   UNL     1      45.843   4.807  15.516  0.00  0.00    +0.000 HD
BRANCH  19  24
ATOM     21  C   UNL     1      49.596   2.601  16.772  0.00  0.00    +0.000 A 
ATOM     22  C   UNL     1      49.456   3.909  17.196  0.00  0.00    +0.000 A 
ATOM     23  N   UNL     1      48.482   4.723  16.724  0.00  0.00    +0.000 NA
ATOM     24  C   UNL     1      47.644   4.197  15.802  0.00  0.00    +0.000 A 
ATOM     25  C   UNL     1      47.770   2.867  15.413  0.00  0.00    +0.000 A 
ATOM     26  N   UNL     1      48.746   2.039  15.879  0.00  0.00    +0.000 NA
BRANCH  21  28
ATOM     27  N   UNL     1      51.564   1.104  17.550  0.00  0.00    +0.000 NA
ATOM     28  C   UNL     1      50.697   1.799  17.227  0.00  0.00    +0.000 C 
ENDBRANCH  21  28
ENDBRANCH  19  24
ENDBRANCH  16  19
ENDBRANCH   1  16
TORSDOF 6
ENDMDL
MODEL 6
REMARK VINA RESULT:    -6.542      4.370      7.281
REMARK INTER + INTRA:          -9.660
REMARK INTER:                  -8.988
REMARK INTRA:                  -0.672
REMARK UNBOUND:                -1.014
REMARK  Name = 
REMARK  6 active torsions:
REMARK  status: ('A' for Active; 'I' for Inactive)
REMARK    1  A    between atoms: C_2  and  C_3
REMARK    2  A    between atoms: C_6  and  N_7
REMARK    3  A    between atoms: N_7  and  C_8
REMARK    4  A    between atoms: C_8  and  C_9
REMARK    5  A    between atoms: C_14  and  C_15
REMARK    6  A    between atoms: C_20  and  O_21
REMARK                            x       y       z     vdW  Elec       q    Type
REMARK                         _______ _______ _______ _____ _____    ______ ____
ROOT
ATOM      1  C   UNL     1      46.873   7.287  13.283  0.00  0.00    +0.000 A 
ATOM      2  C   UNL     1      46.094   8.442  13.175  0.00  0.00    +0.000 A 
ATOM      3  C   UNL     1      45.090   8.515  12.216  0.00  0.00    +0.000 A 
ATOM      4  F   UNL     1      44.407   9.659  12.070  0.00  0.00    +0.000 F 
ATOM      5  C   UNL     1      44.811   7.445  11.368  0.00  0.00    +0.000 A 
ATOM      6  C   UNL     1      45.503   6.233  11.493  0.00  0.00    +0.000 A 
ATOM      7  C   UNL     1      46.518   6.188  12.466  0.00  0.00    +0.000 A 
ENDROOT
BRANCH   6   8
ATOM      8  C   UNL     1      45.220   5.069  10.613  0.00  0.00    +0.000 A 
ATOM      9  C   UNL     1      45.676   5.059   9.279  0.00  0.00    +0.000 A 
ATOM     10  C   UNL     1      45.388   4.001   8.409  0.00  0.00    +0.000 A 
ATOM     11  C   UNL     1      44.652   2.910   8.857  0.00  0.00    +0.000 A 
ATOM     12  C   UNL     1      44.215   2.869  10.177  0.00  0.00    +0.000 A 
ATOM     13  C   UNL     1      44.494   3.936  11.039  0.00  0.00    +0.000 A 
BRANCH  13  14
ATOM     14  O   UNL     1      44.021   3.866  12.325  0.00  0.00    +0.000 OA
ATOM     15  H   UNL     1      43.144   3.449  12.320  0.00  0.00    +0.000 HD
ENDBRANCH  13  14
ENDBRANCH   6   8
BRANCH   1  16
ATOM     16  C   UNL     1      48.177   7.228  14.068  0.00  0.00    +0.000 C 
ATOM     17  C   UNL     1      49.512   7.047  13.383  0.00  0.00    +0.000 C 
ATOM     18  C   UNL     1      49.149   8.391  13.923  0.00  0.00    +0.000 C 
BRANCH  16  19
ATOM     19  N   UNL     1      47.945   6.815  15.463  0.00  0.00    +0.000 N 
ATOM     20  H   UNL     1      46.977   6.880  15.774  0.00  0.00    +0.000 HD
BRANCH  19  24
ATOM     21  C   UNL     1      49.598   3.354  16.876  0.00  0.00    +0.000 A 
ATOM     22  C   UNL     1      50.182   4.590  17.077  0.00  0.00    +0.000 A 
ATOM     23  N   UNL     1      49.604   5.741  16.658  0.00  0.00    +0.000 NA
ATOM     24  C   UNL     1      48.416   5.627  16.020  0.00  0.00    +0.000 A 
ATOM     25  C   UNL     1      47.819   4.382  15.861  0.00  0.00    +0.000 A 
ATOM     26  N   UNL     1      48.391   3.217  16.275  0.00  0.00    +0.000 NA
BRANCH  21  28
ATOM     27  N   UNL     1      50.861   1.176  17.491  0.00  0.00    +0.000 NA
ATOM     28  C   UNL     1      50.286   2.151  17.253  0.00  0.00    +0.000 C 
ENDBRANCH  21  28
ENDBRANCH  19  24
ENDBRANCH  16  19
ENDBRANCH   1  16
TORSDOF 6
ENDMDL
MODEL 7
REMARK VINA RESULT:    -6.308      4.382      7.767
REMARK INTER + INTRA:          -9.351
REMARK INTER:                  -8.543
REMARK INTRA:                  -0.808
REMARK UNBOUND:                -1.014
REMARK  Name = 
REMARK  6 active torsions:
REMARK  status: ('A' for Active; 'I' for Inactive)
REMARK    1  A    between atoms: C_2  and  C_3
REMARK    2  A    between atoms: C_6  and  N_7
REMARK    3  A    between atoms: N_7  and  C_8
REMARK    4  A    between atoms: C_8  and  C_9
REMARK    5  A    between atoms: C_14  and  C_15
REMARK    6  A    between atoms: C_20  and  O_21
REMARK                            x       y       z     vdW  Elec       q    Type
REMARK                         _______ _______ _______ _____ _____    ______ ____
ROOT
ATOM      1  C   UNL     1      47.159   7.966  12.398  0.00  0.00    +0.000 A 
ATOM      2  C   UNL     1      46.250   9.027  12.394  0.00  0.00    +0.000 A 
ATOM      3  C   UNL     1      44.982   8.853  11.850  0.00  0.00    +0.000 A 
ATOM      4  F   UNL     1      44.151   9.903  11.778  0.00  0.00    +0.000 F 
ATOM      5  C   UNL     1      44.573   7.627  11.330  0.00  0.00    +0.000 A 
ATOM      6  C   UNL     1      45.413   6.508  11.389  0.00  0.00    +0.000 A 
ATOM      7  C   UNL     1      46.692   6.712  11.938  0.00  0.00    +0.000 A 
ENDROOT
BRANCH   6   8
ATOM      8  C   UNL     1      45.001   5.182  10.856  0.00  0.00    +0.000 A 
ATOM      9  C   UNL     1      44.295   4.276  11.674  0.00  0.00    +0.000 A 
ATOM     10  C   UNL     1      43.932   3.002  11.221  0.00  0.00    +0.000 A 
ATOM     11  C   UNL     1      44.247   2.607   9.927  0.00  0.00    +0.000 A 
ATOM     12  C   UNL     1      44.912   3.487   9.080  0.00  0.00    +0.000 A 
ATOM     13  C   UNL     1      45.285   4.755   9.542  0.00  0.00    +0.000 A 
BRANCH  13  14
ATOM     14  O   UNL     1      45.963   5.581   8.682  0.00  0.00    +0.000 OA
ATOM     15  H   UNL     1      45.361   6.271   8.361  0.00  0.00    +0.000 HD
ENDBRANCH  13  14
ENDBRANCH   6   8
BRANCH   1  16
ATOM     16  C   UNL     1      48.646   8.140  12.674  0.00  0.00    +0.000 C 
ATOM     17  C   UNL     1      49.699   7.458  11.830  0.00  0.00    +0.000 C 
ATOM     18  C   UNL     1      49.472   8.925  11.663  0.00  0.00    +0.000 C 
BRANCH  16  19
ATOM     19  N   UNL     1      48.890   8.530  14.074  0.00  0.00    +0.000 N 
ATOM     20  H   UNL     1      48.458   9.408  14.357  0.00  0.00    +0.000 HD
BRANCH  19  24
ATOM     21  C   UNL     1      48.703   6.132  17.379  0.00  0.00    +0.000 A 
ATOM     22  C   UNL     1      48.760   7.510  17.465  0.00  0.00    +0.000 A 
ATOM     23  N   UNL     1      48.765   8.305  16.368  0.00  0.00    +0.000 NA
ATOM     24  C   UNL     1      48.715   7.684  15.168  0.00  0.00    +0.000 A 
ATOM     25  C   UNL     1      48.616   6.299  15.095  0.00  0.00    +0.000 A 
ATOM     26  N   UNL     1      48.613   5.488  16.190  0.00  0.00    +0.000 NA
BRANCH  21  28
ATOM     27  N   UNL     1      48.802   4.650  19.503  0.00  0.00    +0.000 NA
ATOM     28  C   UNL     1      48.794   5.321  18.561  0.00  0.00    +0.000 C 
ENDBRANCH  21  28
ENDBRANCH  19  24
ENDBRANCH  16  19
ENDBRANCH   1  16
TORSDOF 6
ENDMDL
MODEL 8
REMARK VINA RESULT:    -6.137      3.471      5.966
REMARK INTER + INTRA:          -9.125
REMARK INTER:                  -8.337
REMARK INTRA:                  -0.788
REMARK UNBOUND:                -1.014
REMARK  Name = 
REMARK  6 active torsions:
REMARK  status: ('A' for Active; 'I' for Inactive)
REMARK    1  A    between atoms: C_2  and  C_3
REMARK    2  A    between atoms: C_6  and  N_7
REMARK    3  A    between atoms: N_7  and  C_8
REMARK    4  A    between atoms: C_8  and  C_9
REMARK    5  A    between atoms: C_14  and  C_15
REMARK    6  A    between atoms: C_20  and  O_21
REMARK                            x       y       z     vdW  Elec       q    Type
REMARK                         _______ _______ _______ _____ _____    ______ ____
ROOT
ATOM      1  C   UNL     1      48.386   8.271  14.250  0.00  0.00    +0.000 A 
ATOM      2  C   UNL     1      48.244   9.357  15.118  0.00  0.00    +0.000 A 
ATOM      3  C   UNL     1      48.358   9.166  16.491  0.00  0.00    +0.000 A 
ATOM      4  F   UNL     1      48.137  10.200  17.316  0.00  0.00    +0.000 F 
ATOM      5  C   UNL     1      48.645   7.915  17.034  0.00  0.00    +0.000 A 
ATOM      6  C   UNL     1      48.884   6.813  16.203  0.00  0.00    +0.000 A 
ATOM      7  C   UNL     1      48.756   7.031  14.819  0.00  0.00    +0.000 A 
ENDROOT
BRANCH   6   8
ATOM      8  C   UNL     1      49.207   5.468  16.750  0.00  0.00    +0.000 A 
ATOM      9  C   UNL     1      50.490   5.202  17.269  0.00  0.00    +0.000 A 
ATOM     10  C   UNL     1      50.843   3.935  17.749  0.00  0.00    +0.000 A 
ATOM     11  C   UNL     1      49.914   2.903  17.742  0.00  0.00    +0.000 A 
ATOM     12  C   UNL     1      48.626   3.138  17.268  0.00  0.00    +0.000 A 
ATOM     13  C   UNL     1      48.283   4.402  16.777  0.00  0.00    +0.000 A 
BRANCH  13  14
ATOM     14  O   UNL     1      47.011   4.582  16.295  0.00  0.00    +0.000 OA
ATOM     15  H   UNL     1      46.539   5.209  16.867  0.00  0.00    +0.000 HD
ENDBRANCH  13  14
ENDBRANCH   6   8
BRANCH   1  16
ATOM     16  C   UNL     1      47.972   8.314  12.784  0.00  0.00    +0.000 C 
ATOM     17  C   UNL     1      47.175   9.465  12.215  0.00  0.00    +0.000 C 
ATOM     18  C   UNL     1      48.628   9.357  11.889  0.00  0.00    +0.000 C 
BRANCH  16  19
ATOM     19  N   UNL     1      47.933   6.963  12.198  0.00  0.00    +0.000 N 
ATOM     20  H   UNL     1      48.649   6.325  12.543  0.00  0.00    +0.000 HD
BRANCH  19  24
ATOM     21  C   UNL     1      44.771   4.394  11.875  0.00  0.00    +0.000 A 
ATOM     22  C   UNL     1      45.613   4.399  12.971  0.00  0.00    +0.000 A 
ATOM     23  N   UNL     1      46.626   5.289  13.102  0.00  0.00    +0.000 NA
ATOM     24  C   UNL     1      46.783   6.182  12.098  0.00  0.00    +0.000 A 
ATOM     25  C   UNL     1      45.904   6.194  11.021  0.00  0.00    +0.000 A 
ATOM     26  N   UNL     1      44.884   5.302  10.876  0.00  0.00    +0.000 NA
BRANCH  21  28
ATOM     27  N   UNL     1      43.009   2.515  11.587  0.00  0.00    +0.000 NA
ATOM     28  C   UNL     1      43.768   3.376  11.730  0.00  0.00    +0.000 C 
ENDBRANCH  21  28
ENDBRANCH  19  24
ENDBRANCH  16  19
ENDBRANCH   1  16
TORSDOF 6
ENDMDL
MODEL 9
REMARK VINA RESULT:    -6.107      4.991      7.481
REMARK INTER + INTRA:          -9.085
REMARK INTER:                  -8.074
REMARK INTRA:                  -1.011
REMARK UNBOUND:                -1.014
REMARK  Name = 
REMARK  6 active torsions:
REMARK  status: ('A' for Active; 'I' for Inactive)
REMARK    1  A    between atoms: C_2  and  C_3
REMARK    2  A    between atoms: C_6  and  N_7
REMARK    3  A    between atoms: N_7  and  C_8
REMARK    4  A    between atoms: C_8  and  C_9
REMARK    5  A    between atoms: C_14  and  C_15
REMARK    6  A    between atoms: C_20  and  O_21
REMARK                            x       y       z     vdW  Elec       q    Type
REMARK                         _______ _______ _______ _____ _____    ______ ____
ROOT
ATOM      1  C   UNL     1      49.130   6.789  16.810  0.00  0.00    +0.000 A 
ATOM      2  C   UNL     1      48.237   6.949  17.872  0.00  0.00    +0.000 A 
ATOM      3  C   UNL     1      48.181   5.994  18.882  0.00  0.00    +0.000 A 
ATOM      4  F   UNL     1      47.261   6.117  19.849  0.00  0.00    +0.000 F 
ATOM      5  C   UNL     1      49.023   4.883  18.884  0.00  0.00    +0.000 A 
ATOM      6  C   UNL     1      49.997   4.722  17.890  0.00  0.00    +0.000 A 
ATOM      7  C   UNL     1      50.027   5.698  16.877  0.00  0.00    +0.000 A 
ENDROOT
BRANCH   6   8
ATOM      8  C   UNL     1      50.919   3.556  17.871  0.00  0.00    +0.000 A 
ATOM      9  C   UNL     1      52.176   3.634  18.506  0.00  0.00    +0.000 A 
ATOM     10  C   UNL     1      53.088   2.573  18.468  0.00  0.00    +0.000 A 
ATOM     11  C   UNL     1      52.759   1.393  17.812  0.00  0.00    +0.000 A 
ATOM     12  C   UNL     1      51.514   1.267  17.204  0.00  0.00    +0.000 A 
ATOM     13  C   UNL     1      50.611   2.336  17.232  0.00  0.00    +0.000 A 
BRANCH  13  14
ATOM     14  O   UNL     1      49.405   2.177  16.597  0.00  0.00    +0.000 OA
ATOM     15  H   UNL     1      49.224   2.963  16.057  0.00  0.00    +0.000 HD
ENDBRANCH  13  14
ENDBRANCH   6   8
BRANCH   1  16
ATOM     16  C   UNL     1      49.048   7.596  15.521  0.00  0.00    +0.000 C 
ATOM     17  C   UNL     1      48.618   9.045  15.514  0.00  0.00    +0.000 C 
ATOM     18  C   UNL     1      50.061   8.714  15.314  0.00  0.00    +0.000 C 
BRANCH  16  19
ATOM     19  N   UNL     1      48.880   6.718  14.349  0.00  0.00    +0.000 N 
ATOM     20  H   UNL     1      49.508   5.917  14.319  0.00  0.00    +0.000 HD
BRANCH  19  24
ATOM     21  C   UNL     1      45.133   5.510  13.249  0.00  0.00    +0.000 A 
ATOM     22  C   UNL     1      45.668   6.721  12.851  0.00  0.00    +0.000 A 
ATOM     23  N   UNL     1      46.931   7.094  13.169  0.00  0.00    +0.000 NA
ATOM     24  C   UNL     1      47.655   6.221  13.908  0.00  0.00    +0.000 A 
ATOM     25  C   UNL     1      47.120   4.989  14.267  0.00  0.00    +0.000 A 
ATOM     26  N   UNL     1      45.851   4.603  13.956  0.00  0.00    +0.000 NA
BRANCH  21  28
ATOM     27  N   UNL     1      42.658   4.889  12.799  0.00  0.00    +0.000 NA
ATOM     28  C   UNL     1      43.761   5.191  12.972  0.00  0.00    +0.000 C 
ENDBRANCH  21  28
ENDBRANCH  19  24
ENDBRANCH  16  19
ENDBRANCH   1  16
TORSDOF 6
ENDMDL
