MODEL 1
REMARK VINA RESULT:    -8.932      0.000      0.000
REMARK INTER + INTRA:         -13.165
REMARK INTER:                 -12.065
REMARK INTRA:                  -1.100
REMARK UNBOUND:                -1.100
REMARK  Name = 
REMARK  7 active torsions:
REMARK  status: ('A' for Active; 'I' for Inactive)
REMARK    1  A    between atoms: C_1  and  C_2
REMARK    2  A    between atoms: C_2  and  N_3
REMARK    3  A    between atoms: C_2  and  C_16
REMARK    4  A    between atoms: C_4  and  C_6
REMARK    5  A    between atoms: C_19  and  O_20
REMARK    6  A    between atoms: O_20  and  C_21
REMARK    7  A    between atoms: C_21  and  C_22
REMARK                            x       y       z     vdW  Elec       q    Type
REMARK                         _______ _______ _______ _____ _____    ______ ____
ROOT
ATOM      1  C   UNL     1      45.856   9.092  13.121  0.00  0.00    +0.000 C 
ATOM      2  C   UNL     1      46.795   7.889  12.966  0.00  0.00    +0.000 C 
ENDROOT
BRANCH   2   3
ATOM      3  C   UNL     1      46.083   6.787  12.196  0.00  0.00    +0.000 A 
ATOM      4  C   UNL     1      46.335   6.555  10.838  0.00  0.00    +0.000 A 
ATOM      5  C   UNL     1      45.723   5.482  10.180  0.00  0.00    +0.000 A 
ATOM      6  C   UNL     1      44.867   4.623  10.872  0.00  0.00    +0.000 A 
ATOM      7  C   UNL     1      44.558   4.893  12.205  0.00  0.00    +0.000 A 
ATOM      8  C   UNL     1      45.174   5.951  12.864  0.00  0.00    +0.000 A 
BRANCH   6   9
ATOM      9  O   UNL     1      44.398   3.541  10.176  0.00  0.00    +0.000 OA
BRANCH   9  10
ATOM     10  C   UNL     1      44.439   3.699   8.754  0.00  0.00    +0.000 C 
BRANCH  10  11
ATOM     11  C   UNL     1      45.591   2.925   8.167  0.00  0.00    +0.000 A 
ATOM     12  C   UNL     1      45.730   1.557   8.436  0.00  0.00    +0.000 A 
ATOM     13  C   UNL     1      46.736   0.816   7.819  0.00  0.00    +0.000 A 
ATOM     14  C   UNL     1      47.609   1.433   6.928  0.00  0.00    +0.000 A 
ATOM     15  C   UNL     1      47.483   2.795   6.656  0.00  0.00    +0.000 A 
ATOM     16  C   UNL     1      46.476   3.539   7.271  0.00  0.00    +0.000 A 
ENDBRANCH  10  11
ENDBRANCH   9  10
ENDBRANCH   6   9
ENDBRANCH   2   3
BRANCH   2  17
ATOM     17  N   UNL     1      47.238   7.343  14.243  0.00  0.00    +0.000 N 
ATOM     18  C   UNL     1      48.453   6.748  14.437  0.00  0.00    +0.000 C 
ATOM     19  O   UNL     1      49.300   6.659  13.552  0.00  0.00    +0.000 OA
ATOM     20  H   UNL     1      46.497   7.121  14.902  0.00  0.00    +0.000 HD
BRANCH  18  21
ATOM     21  C   UNL     1      48.738   6.278  15.800  0.00  0.00    +0.000 A 
ATOM     22  C   UNL     1      49.619   6.994  16.600  0.00  0.00    +0.000 A 
ATOM     23  S   UNL     1      49.823   6.330  18.157  0.00  0.00    +0.000 S 
ATOM     24  C   UNL     1      48.777   5.036  17.801  0.00  0.00    +0.000 A 
ATOM     25  N   UNL     1      48.538   4.058  18.716  0.00  0.00    +0.000 NA
ATOM     26  C   UNL     1      47.755   3.119  18.300  0.00  0.00    +0.000 A 
ATOM     27  N   UNL     1      47.177   3.077  17.058  0.00  0.00    +0.000 N 
ATOM     28  C   UNL     1      47.354   4.066  16.118  0.00  0.00    +0.000 A 
ATOM     29  O   UNL     1      46.767   4.044  15.042  0.00  0.00    +0.000 OA
ATOM     30  C   UNL     1      48.254   5.127  16.524  0.00  0.00    +0.000 A 
ATOM     31  H   UNL     1      46.558   2.323  16.802  0.00  0.00    +0.000 HD
ENDBRANCH  18  21
ENDBRANCH   2  17
TORSDOF 6
ENDMDL
MODEL 2
REMARK VINA RESULT:    -8.488      1.886      2.538
REMARK INTER + INTRA:         -12.565
REMARK INTER:                 -11.431
REMARK INTRA:                  -1.134
REMARK UNBOUND:                -1.100
REMARK  Name = 
REMARK  7 active torsions:
REMARK  status: ('A' for Active; 'I' for Inactive)
REMARK    1  A    between atoms: C_1  and  C_2
REMARK    2  A    between atoms: C_2  and  N_3
REMARK    3  A    between atoms: C_2  and  C_16
REMARK    4  A    between atoms: C_4  and  C_6
REMARK    5  A    between atoms: C_19  and  O_20
REMARK    6  A    between atoms: O_20  and  C_21
REMARK    7  A    between atoms: C_21  and  C_22
REMARK                            x       y       z     vdW  Elec       q    Type
REMARK                         _______ _______ _______ _____ _____    ______ ____
ROOT
ATOM      1  C   UNL     1      47.555   8.334  13.523  0.00  0.00    +0.000 C 
ATOM      2  C   UNL     1      47.885   6.839  13.615  0.00  0.00    +0.000 C 
ENDROOT
BRANCH   2   3
ATOM      3  C   UNL     1      46.884   6.048  12.787  0.00  0.00    +0.000 A 
ATOM      4  C   UNL     1      46.546   6.425  11.481  0.00  0.00    +0.000 A 
ATOM      5  C   UNL     1      45.683   5.630  10.717  0.00  0.00    +0.000 A 
ATOM      6  C   UNL     1      45.160   4.447  11.243  0.00  0.00    +0.000 A 
ATOM      7  C   UNL     1      45.436   4.106  12.567  0.00  0.00    +0.000 A 
ATOM      8  C   UNL     1      46.303   4.888  13.323  0.00  0.00    +0.000 A 
BRANCH   6   9
ATOM      9  O   UNL     1      44.411   3.682  10.390  0.00  0.00    +0.000 OA
BRANCH   9  10
ATOM     10  C   UNL     1      44.503   4.076   9.018  0.00  0.00    +0.000 C 
BRANCH  10  11
ATOM     11  C   UNL     1      45.427   3.157   8.261  0.00  0.00    +0.000 A 
ATOM     12  C   UNL     1      46.244   3.664   7.242  0.00  0.00    +0.000 A 
ATOM     13  C   UNL     1      47.170   2.840   6.606  0.00  0.00    +0.000 A 
ATOM     14  C   UNL     1      47.289   1.505   6.982  0.00  0.00    +0.000 A 
ATOM     15  C   UNL     1      46.477   0.988   7.992  0.00  0.00    +0.000 A 
ATOM     16  C   UNL     1      45.551   1.812   8.632  0.00  0.00    +0.000 A 
ENDBRANCH  10  11
ENDBRANCH   9  10
ENDBRANCH   6   9
ENDBRANCH   2   3
BRANCH   2  17
ATOM     17  N   UNL     1      47.852   6.330  14.981  0.00  0.00    +0.000 N 
ATOM     18  C   UNL     1      48.949   6.255  15.793  0.00  0.00    +0.000 C 
ATOM     19  O   UNL     1      50.059   6.654  15.450  0.00  0.00    +0.000 OA
ATOM     20  H   UNL     1      47.063   5.728  15.203  0.00  0.00    +0.000 HD
BRANCH  18  21
ATOM     21  C   UNL     1      48.722   5.739  17.149  0.00  0.00    +0.000 A 
ATOM     22  C   UNL     1      48.889   4.384  17.403  0.00  0.00    +0.000 A 
ATOM     23  S   UNL     1      48.609   3.952  19.028  0.00  0.00    +0.000 S 
ATOM     24  C   UNL     1      48.210   5.553  19.441  0.00  0.00    +0.000 A 
ATOM     25  N   UNL     1      47.827   5.873  20.707  0.00  0.00    +0.000 NA
ATOM     26  C   UNL     1      47.518   7.117  20.871  0.00  0.00    +0.000 A 
ATOM     27  N   UNL     1      47.570   8.071  19.889  0.00  0.00    +0.000 N 
ATOM     28  C   UNL     1      47.993   7.802  18.607  0.00  0.00    +0.000 A 
ATOM     29  O   UNL     1      48.103   8.687  17.766  0.00  0.00    +0.000 OA
ATOM     30  C   UNL     1      48.320   6.411  18.362  0.00  0.00    +0.000 A 
ATOM     31  H   UNL     1      47.332   9.031  20.089  0.00  0.00    +0.000 HD
ENDBRANCH  18  21
ENDBRANCH   2  17
TORSDOF 6
ENDMDL
MODEL 3
REMARK VINA RESULT:    -8.180      1.700      2.326
REMARK INTER + INTRA:         -12.150
REMARK INTER:                 -10.998
REMARK INTRA:                  -1.151
REMARK UNBOUND:                -1.100
REMARK  Name = 
REMARK  7 active torsions:
REMARK  status: ('A' for Active; 'I' for Inactive)
REMARK    1  A    between atoms: C_1  and  C_2
REMARK    2  A    between atoms: C_2  and  N_3
REMARK    3  A    between atoms: C_2  and  C_16
REMARK    4  A    between atoms: C_4  and  C_6
REMARK    5  A    between atoms: C_19  and  O_20
REMARK    6  A    between atoms: O_20  and  C_21
REMARK    7  A    between atoms: C_21  and  C_22
REMARK                            x       y       z     vdW  Elec       q    Type
REMARK                         _______ _______ _______ _____ _____    ______ ____
ROOT
ATOM      1  C   UNL     1      48.557   8.426  13.000  0.00  0.00    +0.000 C 
ATOM      2  C   UNL     1      48.536   7.005  13.576  0.00  0.00    +0.000 C 
ENDROOT
BRANCH   2   3
ATOM      3  C   UNL     1      47.442   6.198  12.894  0.00  0.00    +0.000 A 
ATOM      4  C   UNL     1      47.012   4.964  13.399  0.00  0.00    +0.000 A 
ATOM      5  C   UNL     1      45.948   4.286  12.794  0.00  0.00    +0.000 A 
ATOM      6  C   UNL     1      45.295   4.836  11.689  0.00  0.00    +0.000 A 
ATOM      7  C   UNL     1      45.766   6.028  11.139  0.00  0.00    +0.000 A 
ATOM      8  C   UNL     1      46.815   6.710  11.747  0.00  0.00    +0.000 A 
BRANCH   6   9
ATOM      9  O   UNL     1      44.200   4.155  11.229  0.00  0.00    +0.000 OA
BRANCH   9  10
ATOM     10  C   UNL     1      43.912   4.379   9.845  0.00  0.00    +0.000 C 
BRANCH  10  11
ATOM     11  C   UNL     1      44.826   3.557   8.973  0.00  0.00    +0.000 A 
ATOM     12  C   UNL     1      45.646   4.184   8.025  0.00  0.00    +0.000 A 
ATOM     13  C   UNL     1      46.563   3.441   7.284  0.00  0.00    +0.000 A 
ATOM     14  C   UNL     1      46.669   2.067   7.484  0.00  0.00    +0.000 A 
ATOM     15  C   UNL     1      45.854   1.432   8.421  0.00  0.00    +0.000 A 
ATOM     16  C   UNL     1      44.937   2.174   9.165  0.00  0.00    +0.000 A 
ENDBRANCH  10  11
ENDBRANCH   9  10
ENDBRANCH   6   9
ENDBRANCH   2   3
BRANCH   2  17
ATOM     17  N   UNL     1      48.297   6.975  15.015  0.00  0.00    +0.000 N 
ATOM     18  C   UNL     1      49.281   6.802  15.947  0.00  0.00    +0.000 C 
ATOM     19  O   UNL     1      50.468   6.695  15.650  0.00  0.00    +0.000 OA
ATOM     20  H   UNL     1      47.344   6.760  15.293  0.00  0.00    +0.000 HD
BRANCH  18  21
ATOM     21  C   UNL     1      48.857   6.826  17.353  0.00  0.00    +0.000 A 
ATOM     22  C   UNL     1      48.405   8.014  17.912  0.00  0.00    +0.000 A 
ATOM     23  S   UNL     1      47.932   7.866  19.543  0.00  0.00    +0.000 S 
ATOM     24  C   UNL     1      48.357   6.220  19.574  0.00  0.00    +0.000 A 
ATOM     25  N   UNL     1      48.232   5.487  20.714  0.00  0.00    +0.000 NA
ATOM     26  C   UNL     1      48.627   4.261  20.605  0.00  0.00    +0.000 A 
ATOM     27  N   UNL     1      49.119   3.698  19.457  0.00  0.00    +0.000 N 
ATOM     28  C   UNL     1      49.221   4.388  18.270  0.00  0.00    +0.000 A 
ATOM     29  O   UNL     1      49.594   3.843  17.238  0.00  0.00    +0.000 OA
ATOM     30  C   UNL     1      48.823   5.780  18.348  0.00  0.00    +0.000 A 
ATOM     31  H   UNL     1      49.393   2.728  19.434  0.00  0.00    +0.000 HD
ENDBRANCH  18  21
ENDBRANCH   2  17
TORSDOF 6
ENDMDL
MODEL 4
REMARK VINA RESULT:    -7.946      2.796      4.177
REMARK INTER + INTRA:         -11.834
REMARK INTER:                 -10.595
REMARK INTRA:                  -1.238
REMARK UNBOUND:                -1.100
REMARK  Name = 
REMARK  7 active torsions:
REMARK  status: ('A' for Active; 'I' for Inactive)
REMARK    1  A    between atoms: C_1  and  C_2
REMARK    2  A    between atoms: C_2  and  N_3
REMARK    3  A    between atoms: C_2  and  C_16
REMARK    4  A    between atoms: C_4  and  C_6
REMARK    5  A    between atoms: C_19  and  O_20
REMARK    6  A    between atoms: O_20  and  C_21
REMARK    7  A    between atoms: C_21  and  C_22
REMARK                            x       y       z     vdW  Elec       q    Type
REMARK                         _______ _______ _______ _____ _____    ______ ____
ROOT
ATOM      1  C   UNL     1      47.150   4.536  14.888  0.00  0.00    +0.000 C 
ATOM      2  C   UNL     1      46.728   5.706  13.990  0.00  0.00    +0.000 C 
ENDROOT
BRANCH   2   3
ATOM      3  C   UNL     1      45.947   5.174  12.799  0.00  0.00    +0.000 A 
ATOM      4  C   UNL     1      45.896   5.866  11.582  0.00  0.00    +0.000 A 
ATOM      5  C   UNL     1      45.234   5.309  10.481  0.00  0.00    +0.000 A 
ATOM      6  C   UNL     1      44.631   4.054  10.578  0.00  0.00    +0.000 A 
ATOM      7  C   UNL     1      44.618   3.394  11.807  0.00  0.00    +0.000 A 
ATOM      8  C   UNL     1      45.284   3.940  12.899  0.00  0.00    +0.000 A 
BRANCH   6   9
ATOM      9  O   UNL     1      44.101   3.543   9.424  0.00  0.00    +0.000 OA
BRANCH   9  10
ATOM     10  C   UNL     1      44.572   2.232   9.095  0.00  0.00    +0.000 C 
BRANCH  10  11
ATOM     11  C   UNL     1      45.698   2.308   8.096  0.00  0.00    +0.000 A 
ATOM     12  C   UNL     1      46.576   1.227   7.943  0.00  0.00    +0.000 A 
ATOM     13  C   UNL     1      47.559   1.251   6.955  0.00  0.00    +0.000 A 
ATOM     14  C   UNL     1      47.672   2.353   6.112  0.00  0.00    +0.000 A 
ATOM     15  C   UNL     1      46.806   3.437   6.259  0.00  0.00    +0.000 A 
ATOM     16  C   UNL     1      45.821   3.415   7.246  0.00  0.00    +0.000 A 
ENDBRANCH  10  11
ENDBRANCH   9  10
ENDBRANCH   6   9
ENDBRANCH   2   3
BRANCH   2  17
ATOM     17  N   UNL     1      47.860   6.477  13.488  0.00  0.00    +0.000 N 
ATOM     18  C   UNL     1      47.871   7.840  13.392  0.00  0.00    +0.000 C 
ATOM     19  O   UNL     1      46.933   8.541  13.762  0.00  0.00    +0.000 OA
ATOM     20  H   UNL     1      48.514   5.961  12.907  0.00  0.00    +0.000 HD
BRANCH  18  21
ATOM     21  C   UNL     1      49.109   8.448  12.886  0.00  0.00    +0.000 A 
ATOM     22  C   UNL     1      49.062   9.265  11.765  0.00  0.00    +0.000 A 
ATOM     23  S   UNL     1      50.578   9.907  11.323  0.00  0.00    +0.000 S 
ATOM     24  C   UNL     1      51.359   9.080  12.587  0.00  0.00    +0.000 A 
ATOM     25  N   UNL     1      52.706   9.168  12.754  0.00  0.00    +0.000 NA
ATOM     26  C   UNL     1      53.169   8.459  13.730  0.00  0.00    +0.000 A 
ATOM     27  N   UNL     1      52.407   7.682  14.562  0.00  0.00    +0.000 N 
ATOM     28  C   UNL     1      51.037   7.598  14.459  0.00  0.00    +0.000 A 
ATOM     29  O   UNL     1      50.369   6.956  15.261  0.00  0.00    +0.000 OA
ATOM     30  C   UNL     1      50.470   8.349  13.356  0.00  0.00    +0.000 A 
ATOM     31  H   UNL     1      52.830   7.167  15.319  0.00  0.00    +0.000 HD
ENDBRANCH  18  21
ENDBRANCH   2  17
TORSDOF 6
ENDMDL
MODEL 5
REMARK VINA RESULT:    -7.799      2.688      4.604
REMARK INTER + INTRA:         -11.635
REMARK INTER:                 -10.320
REMARK INTRA:                  -1.315
REMARK UNBOUND:                -1.100
REMARK  Name = 
REMARK  7 active torsions:
REMARK  status: ('A' for Active; 'I' for Inactive)
REMARK    1  A    between atoms: C_1  and  C_2
REMARK    2  A    between atoms: C_2  and  N_3
REMARK    3  A    between atoms: C_2  and  C_16
REMARK    4  A    between atoms: C_4  and  C_6
REMARK    5  A    between atoms: C_19  and  O_20
REMARK    6  A    between atoms: O_20  and  C_21
REMARK    7  A    between atoms: C_21  and  C_22
REMARK                            x       y       z     vdW  Elec       q    Type
REMARK                         _______ _______ _______ _____ _____    ______ ____
ROOT
ATOM      1  C   UNL     1      47.370   4.549  15.098  0.00  0.00    +0.000 C 
ATOM      2  C   UNL     1      47.000   5.703  14.158  0.00  0.00    +0.000 C 
ENDROOT
BRANCH   2   3
ATOM      3  C   UNL     1      46.317   5.146  12.918  0.00  0.00    +0.000 A 
ATOM      4  C   UNL     1      45.776   3.855  12.891  0.00  0.00    +0.000 A 
ATOM      5  C   UNL     1      45.084   3.402  11.762  0.00  0.00    +0.000 A 
ATOM      6  C   UNL     1      44.913   4.237  10.656  0.00  0.00    +0.000 A 
ATOM      7  C   UNL     1      45.511   5.496  10.650  0.00  0.00    +0.000 A 
ATOM      8  C   UNL     1      46.189   5.952  11.775  0.00  0.00    +0.000 A 
BRANCH   6   9
ATOM      9  O   UNL     1      44.133   3.750   9.641  0.00  0.00    +0.000 OA
BRANCH   9  10
ATOM     10  C   UNL     1      44.450   2.409   9.253  0.00  0.00    +0.000 C 
BRANCH  10  11
ATOM     11  C   UNL     1      45.560   2.400   8.234  0.00  0.00    +0.000 A 
ATOM     12  C   UNL     1      46.376   1.269   8.094  0.00  0.00    +0.000 A 
ATOM     13  C   UNL     1      47.340   1.216   7.088  0.00  0.00    +0.000 A 
ATOM     14  C   UNL     1      47.495   2.290   6.215  0.00  0.00    +0.000 A 
ATOM     15  C   UNL     1      46.692   3.422   6.349  0.00  0.00    +0.000 A 
ATOM     16  C   UNL     1      45.725   3.477   7.353  0.00  0.00    +0.000 A 
ENDBRANCH  10  11
ENDBRANCH   9  10
ENDBRANCH   6   9
ENDBRANCH   2   3
BRANCH   2  17
ATOM     17  N   UNL     1      48.155   6.485  13.732  0.00  0.00    +0.000 N 
ATOM     18  C   UNL     1      48.787   7.404  14.522  0.00  0.00    +0.000 C 
ATOM     19  O   UNL     1      48.457   7.620  15.685  0.00  0.00    +0.000 OA
ATOM     20  H   UNL     1      48.277   6.569  12.726  0.00  0.00    +0.000 HD
BRANCH  18  21
ATOM     21  C   UNL     1      49.951   8.079  13.934  0.00  0.00    +0.000 A 
ATOM     22  C   UNL     1      51.203   7.915  14.512  0.00  0.00    +0.000 A 
ATOM     23  S   UNL     1      52.448   8.746  13.697  0.00  0.00    +0.000 S 
ATOM     24  C   UNL     1      51.352   9.390  12.567  0.00  0.00    +0.000 A 
ATOM     25  N   UNL     1      51.773  10.240  11.591  0.00  0.00    +0.000 NA
ATOM     26  C   UNL     1      50.829  10.682  10.827  0.00  0.00    +0.000 A 
ATOM     27  N   UNL     1      49.507  10.341  10.941  0.00  0.00    +0.000 N 
ATOM     28  C   UNL     1      49.043   9.453  11.884  0.00  0.00    +0.000 A 
ATOM     29  O   UNL     1      47.868   9.106  11.919  0.00  0.00    +0.000 OA
ATOM     30  C   UNL     1      50.059   8.953  12.790  0.00  0.00    +0.000 A 
ATOM     31  H   UNL     1      48.822  10.709  10.298  0.00  0.00    +0.000 HD
ENDBRANCH  18  21
ENDBRANCH   2  17
TORSDOF 6
ENDMDL
MODEL 6
REMARK VINA RESULT:    -7.331      3.578      7.897
REMARK INTER + INTRA:         -11.003
REMARK INTER:                  -9.741
REMARK INTRA:                  -1.261
REMARK UNBOUND:                -1.100
REMARK  Name = 
REMARK  7 active torsions:
REMARK  status: ('A' for Active; 'I' for Inactive)
REMARK    1  A    between atoms: C_1  and  C_2
REMARK    2  A    between atoms: C_2  and  N_3
REMARK    3  A    between atoms: C_2  and  C_16
REMARK    4  A    between atoms: C_4  and  C_6
REMARK    5  A    between atoms: C_19  and  O_20
REMARK    6  A    between atoms: O_20  and  C_21
REMARK    7  A    between atoms: C_21  and  C_22
REMARK                            x       y       z     vdW  Elec       q    Type
REMARK                         _______ _______ _______ _____ _____    ______ ____
ROOT
ATOM      1  C   UNL     1      49.579   8.120  11.831  0.00  0.00    +0.000 C 
ATOM      2  C   UNL     1      48.312   7.740  12.607  0.00  0.00    +0.000 C 
ENDROOT
BRANCH   2   3
ATOM      3  C   UNL     1      48.696   7.250  13.995  0.00  0.00    +0.000 A 
ATOM      4  C   UNL     1      47.945   6.278  14.667  0.00  0.00    +0.000 A 
ATOM      5  C   UNL     1      48.371   5.791  15.909  0.00  0.00    +0.000 A 
ATOM      6  C   UNL     1      49.554   6.258  16.484  0.00  0.00    +0.000 A 
ATOM      7  C   UNL     1      50.266   7.278  15.853  0.00  0.00    +0.000 A 
ATOM      8  C   UNL     1      49.851   7.754  14.613  0.00  0.00    +0.000 A 
BRANCH   6   9
ATOM      9  O   UNL     1      49.947   5.650  17.646  0.00  0.00    +0.000 OA
BRANCH   9  10
ATOM     10  C   UNL     1      49.510   4.293  17.772  0.00  0.00    +0.000 C 
BRANCH  10  11
ATOM     11  C   UNL     1      50.686   3.351  17.728  0.00  0.00    +0.000 A 
ATOM     12  C   UNL     1      51.943   3.774  18.181  0.00  0.00    +0.000 A 
ATOM     13  C   UNL     1      53.011   2.880  18.235  0.00  0.00    +0.000 A 
ATOM     14  C   UNL     1      52.831   1.557  17.839  0.00  0.00    +0.000 A 
ATOM     15  C   UNL     1      51.586   1.126  17.382  0.00  0.00    +0.000 A 
ATOM     16  C   UNL     1      50.516   2.019  17.329  0.00  0.00    +0.000 A 
ENDBRANCH  10  11
ENDBRANCH   9  10
ENDBRANCH   6   9
ENDBRANCH   2   3
BRANCH   2  17
ATOM     17  N   UNL     1      47.533   6.695  11.952  0.00  0.00    +0.000 N 
ATOM     18  C   UNL     1      46.241   6.854  11.538  0.00  0.00    +0.000 C 
ATOM     19  O   UNL     1      45.633   7.915  11.647  0.00  0.00    +0.000 OA
ATOM     20  H   UNL     1      47.863   5.746  12.105  0.00  0.00    +0.000 HD
BRANCH  18  21
ATOM     21  C   UNL     1      45.623   5.699  10.873  0.00  0.00    +0.000 A 
ATOM     22  C   UNL     1      45.763   5.544   9.500  0.00  0.00    +0.000 A 
ATOM     23  S   UNL     1      45.007   4.144   8.889  0.00  0.00    +0.000 S 
ATOM     24  C   UNL     1      44.427   3.718  10.430  0.00  0.00    +0.000 A 
ATOM     25  N   UNL     1      43.653   2.613  10.606  0.00  0.00    +0.000 NA
ATOM     26  C   UNL     1      43.252   2.431  11.820  0.00  0.00    +0.000 A 
ATOM     27  N   UNL     1      43.566   3.245  12.877  0.00  0.00    +0.000 N 
ATOM     28  C   UNL     1      44.382   4.346  12.755  0.00  0.00    +0.000 A 
ATOM     29  O   UNL     1      44.710   5.015  13.728  0.00  0.00    +0.000 OA
ATOM     30  C   UNL     1      44.831   4.615  11.403  0.00  0.00    +0.000 A 
ATOM     31  H   UNL     1      43.235   3.034  13.806  0.00  0.00    +0.000 HD
ENDBRANCH  18  21
ENDBRANCH   2  17
TORSDOF 6
ENDMDL
MODEL 7
REMARK VINA RESULT:    -7.325      3.414      8.096
REMARK INTER + INTRA:         -10.995
REMARK INTER:                  -9.725
REMARK INTRA:                  -1.269
REMARK UNBOUND:                -1.100
REMARK  Name = 
REMARK  7 active torsions:
REMARK  status: ('A' for Active; 'I' for Inactive)
REMARK    1  A    between atoms: C_1  and  C_2
REMARK    2  A    between atoms: C_2  and  N_3
REMARK    3  A    between atoms: C_2  and  C_16
REMARK    4  A    between atoms: C_4  and  C_6
REMARK    5  A    between atoms: C_19  and  O_20
REMARK    6  A    between atoms: O_20  and  C_21
REMARK    7  A    between atoms: C_21  and  C_22
REMARK                            x       y       z     vdW  Elec       q    Type
REMARK                         _______ _______ _______ _____ _____    ______ ____
ROOT
ATOM      1  C   UNL     1      49.035   7.914  11.448  0.00  0.00    +0.000 C 
ATOM      2  C   UNL     1      48.027   7.609  12.563  0.00  0.00    +0.000 C 
ENDROOT
BRANCH   2   3
ATOM      3  C   UNL     1      48.775   7.334  13.859  0.00  0.00    +0.000 A 
ATOM      4  C   UNL     1      48.179   6.643  14.921  0.00  0.00    +0.000 A 
ATOM      5  C   UNL     1      48.920   6.336  16.069  0.00  0.00    +0.000 A 
ATOM      6  C   UNL     1      50.264   6.703  16.161  0.00  0.00    +0.000 A 
ATOM      7  C   UNL     1      50.841   7.453  15.137  0.00  0.00    +0.000 A 
ATOM      8  C   UNL     1      50.110   7.749  13.991  0.00  0.00    +0.000 A 
BRANCH   6   9
ATOM      9  O   UNL     1      50.938   6.269  17.271  0.00  0.00    +0.000 OA
BRANCH   9  10
ATOM     10  C   UNL     1      50.198   5.350  18.081  0.00  0.00    +0.000 C 
BRANCH  10  11
ATOM     11  C   UNL     1      50.731   3.950  17.919  0.00  0.00    +0.000 A 
ATOM     12  C   UNL     1      49.922   2.949  17.365  0.00  0.00    +0.000 A 
ATOM     13  C   UNL     1      50.440   1.678  17.122  0.00  0.00    +0.000 A 
ATOM     14  C   UNL     1      51.768   1.397  17.428  0.00  0.00    +0.000 A 
ATOM     15  C   UNL     1      52.582   2.385  17.985  0.00  0.00    +0.000 A 
ATOM     16  C   UNL     1      52.066   3.658  18.227  0.00  0.00    +0.000 A 
ENDBRANCH  10  11
ENDBRANCH   9  10
ENDBRANCH   6   9
ENDBRANCH   2   3
BRANCH   2  17
ATOM     17  N   UNL     1      47.181   6.458  12.270  0.00  0.00    +0.000 N 
ATOM     18  C   UNL     1      45.816   6.505  12.236  0.00  0.00    +0.000 C 
ATOM     19  O   UNL     1      45.181   7.541  12.411  0.00  0.00    +0.000 OA
ATOM     20  H   UNL     1      47.616   5.550  12.413  0.00  0.00    +0.000 HD
BRANCH  18  21
ATOM     21  C   UNL     1      45.130   5.251  11.897  0.00  0.00    +0.000 A 
ATOM     22  C   UNL     1      44.424   4.569  12.879  0.00  0.00    +0.000 A 
ATOM     23  S   UNL     1      43.670   3.147  12.318  0.00  0.00    +0.000 S 
ATOM     24  C   UNL     1      44.295   3.368  10.752  0.00  0.00    +0.000 A 
ATOM     25  N   UNL     1      44.052   2.462   9.767  0.00  0.00    +0.000 NA
ATOM     26  C   UNL     1      44.619   2.735   8.639  0.00  0.00    +0.000 A 
ATOM     27  N   UNL     1      45.394   3.840   8.402  0.00  0.00    +0.000 N 
ATOM     28  C   UNL     1      45.630   4.805   9.354  0.00  0.00    +0.000 A 
ATOM     29  O   UNL     1      46.264   5.822   9.097  0.00  0.00    +0.000 OA
ATOM     30  C   UNL     1      45.043   4.527  10.650  0.00  0.00    +0.000 A 
ATOM     31  H   UNL     1      45.793   4.005   7.490  0.00  0.00    +0.000 HD
ENDBRANCH  18  21
ENDBRANCH   2  17
TORSDOF 6
ENDMDL
MODEL 8
REMARK VINA RESULT:    -6.499      3.725      5.338
REMARK INTER + INTRA:          -9.878
REMARK INTER:                  -8.522
REMARK INTRA:                  -1.356
REMARK UNBOUND:                -1.100
REMARK  Name = 
REMARK  7 active torsions:
REMARK  status: ('A' for Active; 'I' for Inactive)
REMARK    1  A    between atoms: C_1  and  C_2
REMARK    2  A    between atoms: C_2  and  N_3
REMARK    3  A    between atoms: C_2  and  C_16
REMARK    4  A    between atoms: C_4  and  C_6
REMARK    5  A    between atoms: C_19  and  O_20
REMARK    6  A    between atoms: O_20  and  C_21
REMARK    7  A    between atoms: C_21  and  C_22
REMARK                            x       y       z     vdW  Elec       q    Type
REMARK                         _______ _______ _______ _____ _____    ______ ____
ROOT
ATOM      1  C   UNL     1      48.806   6.311  15.877  0.00  0.00    +0.000 C 
ATOM      2  C   UNL     1      48.779   7.295  14.701  0.00  0.00    +0.000 C 
ENDROOT
BRANCH   2   3
ATOM      3  C   UNL     1      47.771   6.820  13.667  0.00  0.00    +0.000 A 
ATOM      4  C   UNL     1      47.179   5.553  13.741  0.00  0.00    +0.000 A 
ATOM      5  C   UNL     1      46.195   5.178  12.819  0.00  0.00    +0.000 A 
ATOM      6  C   UNL     1      45.783   6.066  11.824  0.00  0.00    +0.000 A 
ATOM      7  C   UNL     1      46.420   7.300  11.701  0.00  0.00    +0.000 A 
ATOM      8  C   UNL     1      47.390   7.680  12.624  0.00  0.00    +0.000 A 
BRANCH   6   9
ATOM      9  O   UNL     1      44.743   5.654  11.033  0.00  0.00    +0.000 OA
BRANCH   9  10
ATOM     10  C   UNL     1      44.561   4.235  11.001  0.00  0.00    +0.000 C 
BRANCH  10  11
ATOM     11  C   UNL     1      45.107   3.659   9.719  0.00  0.00    +0.000 A 
ATOM     12  C   UNL     1      45.643   4.506   8.740  0.00  0.00    +0.000 A 
ATOM     13  C   UNL     1      46.238   3.974   7.597  0.00  0.00    +0.000 A 
ATOM     14  C   UNL     1      46.303   2.595   7.424  0.00  0.00    +0.000 A 
ATOM     15  C   UNL     1      45.769   1.742   8.390  0.00  0.00    +0.000 A 
ATOM     16  C   UNL     1      45.175   2.272   9.535  0.00  0.00    +0.000 A 
ENDBRANCH  10  11
ENDBRANCH   9  10
ENDBRANCH   6   9
ENDBRANCH   2   3
BRANCH   2  17
ATOM     17  N   UNL     1      50.075   7.437  14.046  0.00  0.00    +0.000 N 
ATOM     18  C   UNL     1      50.805   8.592  14.044  0.00  0.00    +0.000 C 
ATOM     19  O   UNL     1      50.446   9.607  14.635  0.00  0.00    +0.000 OA
ATOM     20  H   UNL     1      50.270   6.758  13.316  0.00  0.00    +0.000 HD
BRANCH  18  21
ATOM     21  C   UNL     1      52.101   8.543  13.355  0.00  0.00    +0.000 A 
ATOM     22  C   UNL     1      53.257   8.883  14.045  0.00  0.00    +0.000 A 
ATOM     23  S   UNL     1      54.676   8.752  13.109  0.00  0.00    +0.000 S 
ATOM     24  C   UNL     1      53.792   8.278  11.736  0.00  0.00    +0.000 A 
ATOM     25  N   UNL     1      54.415   8.040  10.550  0.00  0.00    +0.000 NA
ATOM     26  C   UNL     1      53.619   7.725   9.583  0.00  0.00    +0.000 A 
ATOM     27  N   UNL     1      52.258   7.613   9.697  0.00  0.00    +0.000 N 
ATOM     28  C   UNL     1      51.589   7.801  10.885  0.00  0.00    +0.000 A 
ATOM     29  O   UNL     1      50.381   7.622  10.979  0.00  0.00    +0.000 OA
ATOM     30  C   UNL     1      52.436   8.191  11.995  0.00  0.00    +0.000 A 
ATOM     31  H   UNL     1      51.694   7.344   8.905  0.00  0.00    +0.000 HD
ENDBRANCH  18  21
ENDBRANCH   2  17
TORSDOF 6
ENDMDL
MODEL 9
REMARK VINA RESULT:    -6.407      3.182      4.309
REMARK INTER + INTRA:          -9.755
REMARK INTER:                  -8.670
REMARK INTRA:                  -1.085
REMARK UNBOUND:                -1.100
REMARK  Name = 
REMARK  7 active torsions:
REMARK  status: ('A' for Active; 'I' for Inactive)
REMARK    1  A    between atoms: C_1  and  C_2
REMARK    2  A    between atoms: C_2  and  N_3
REMARK    3  A    between atoms: C_2  and  C_16
REMARK    4  A    between atoms: C_4  and  C_6
REMARK    5  A    between atoms: C_19  and  O_20
REMARK    6  A    between atoms: O_20  and  C_21
REMARK    7  A    between atoms: C_21  and  C_22
REMARK                            x       y       z     vdW  Elec       q    Type
REMARK                         _______ _______ _______ _____ _____    ______ ____
ROOT
ATOM      1  C   UNL     1      47.615   5.777  17.771  0.00  0.00    +0.000 C 
ATOM      2  C   UNL     1      48.736   6.257  16.841  0.00  0.00    +0.000 C 
ENDROOT
BRANCH   2   3
ATOM      3  C   UNL     1      48.262   6.185  15.398  0.00  0.00    +0.000 A 
ATOM      4  C   UNL     1      47.460   5.133  14.937  0.00  0.00    +0.000 A 
ATOM      5  C   UNL     1      46.975   5.138  13.624  0.00  0.00    +0.000 A 
ATOM      6  C   UNL     1      47.273   6.196  12.764  0.00  0.00    +0.000 A 
ATOM      7  C   UNL     1      48.129   7.209  13.196  0.00  0.00    +0.000 A 
ATOM      8  C   UNL     1      48.603   7.212  14.504  0.00  0.00    +0.000 A 
BRANCH   6   9
ATOM      9  O   UNL     1      46.670   6.169  11.535  0.00  0.00    +0.000 OA
BRANCH   9  10
ATOM     10  C   UNL     1      45.383   5.543  11.530  0.00  0.00    +0.000 C 
BRANCH  10  11
ATOM     11  C   UNL     1      45.275   4.562  10.391  0.00  0.00    +0.000 A 
ATOM     12  C   UNL     1      44.707   3.299  10.603  0.00  0.00    +0.000 A 
ATOM     13  C   UNL     1      44.515   2.424   9.534  0.00  0.00    +0.000 A 
ATOM     14  C   UNL     1      44.887   2.804   8.248  0.00  0.00    +0.000 A 
ATOM     15  C   UNL     1      45.458   4.057   8.027  0.00  0.00    +0.000 A 
ATOM     16  C   UNL     1      45.649   4.935   9.093  0.00  0.00    +0.000 A 
ENDBRANCH  10  11
ENDBRANCH   9  10
ENDBRANCH   6   9
ENDBRANCH   2   3
BRANCH   2  17
ATOM     17  N   UNL     1      49.956   5.467  16.963  0.00  0.00    +0.000 N 
ATOM     18  C   UNL     1      50.836   5.580  18.003  0.00  0.00    +0.000 C 
ATOM     19  O   UNL     1      50.650   6.335  18.953  0.00  0.00    +0.000 OA
ATOM     20  H   UNL     1      50.304   5.067  16.096  0.00  0.00    +0.000 HD
BRANCH  18  21
ATOM     21  C   UNL     1      51.999   4.684  17.971  0.00  0.00    +0.000 A 
ATOM     22  C   UNL     1      53.275   5.212  18.122  0.00  0.00    +0.000 A 
ATOM     23  S   UNL     1      54.510   4.039  18.084  0.00  0.00    +0.000 S 
ATOM     24  C   UNL     1      53.389   2.787  17.820  0.00  0.00    +0.000 A 
ATOM     25  N   UNL     1      53.802   1.502  17.654  0.00  0.00    +0.000 NA
ATOM     26  C   UNL     1      52.848   0.661  17.424  0.00  0.00    +0.000 A 
ATOM     27  N   UNL     1      51.518   0.987  17.360  0.00  0.00    +0.000 N 
ATOM     28  C   UNL     1      51.051   2.265  17.565  0.00  0.00    +0.000 A 
ATOM     29  O   UNL     1      49.852   2.519  17.576  0.00  0.00    +0.000 OA
ATOM     30  C   UNL     1      52.087   3.254  17.793  0.00  0.00    +0.000 A 
ATOM     31  H   UNL     1      50.820   0.278  17.195  0.00  0.00    +0.000 HD
ENDBRANCH  18  21
ENDBRANCH   2  17
TORSDOF 6
ENDMDL
