MODEL 1
REMARK VINA RESULT:    -8.147      0.000      0.000
REMARK INTER + INTRA:         -13.505
REMARK INTER:                 -11.957
REMARK INTRA:                  -1.548
REMARK UNBOUND:                -1.548
REMARK  Name = 
REMARK  8 active torsions:
REMARK  status: ('A' for Active; 'I' for Inactive)
REMARK    1  A    between atoms: C_2  and  C_22
REMARK    2  A    between atoms: N_3  and  C_4
REMARK    3  A    between atoms: C_4  and  C_5
REMARK    4  A    between atoms: C_8  and  C_9
REMARK    5  A    between atoms: C_9  and  C_10
REMARK    6  A    between atoms: C_10  and  N_11
REMARK    7  A    between atoms: N_11  and  C_12
REMARK    8  A    between atoms: C_12  and  C_13
REMARK                            x       y       z     vdW  Elec       q    Type
REMARK                         _______ _______ _______ _____ _____    ______ ____
ROOT
ATOM      1  C   UNL     1      47.772   7.747  12.813  0.00  0.00    +0.000 A 
ATOM      2  C   UNL     1      46.779   8.681  13.092  0.00  0.00    +0.000 A 
ATOM      3  C   UNL     1      45.507   8.499  12.553  0.00  0.00    +0.000 A 
ATOM      4  C   UNL     1      45.251   7.403  11.726  0.00  0.00    +0.000 A 
ATOM      5  C   UNL     1      46.311   6.539  11.479  0.00  0.00    +0.000 A 
ATOM      6  N   UNL     1      47.554   6.688  11.994  0.00  0.00    +0.000 NA
ENDROOT
BRANCH   1   7
ATOM      7  C   UNL     1      49.154   7.902  13.407  0.00  0.00    +0.000 C 
BRANCH   7  10
ATOM      8  O   UNL     1      48.831   8.629  16.077  0.00  0.00    +0.000 OA
ATOM      9  C   UNL     1      49.090   7.458  15.815  0.00  0.00    +0.000 C 
ATOM     10  N   UNL     1      49.356   7.030  14.539  0.00  0.00    +0.000 N 
ATOM     11  H   UNL     1      49.260   6.040  14.335  0.00  0.00    +0.000 HD
BRANCH   9  12
ATOM     12  C   UNL     1      49.192   6.440  16.865  0.00  0.00    +0.000 A 
ATOM     13  C   UNL     1      50.010   6.638  17.967  0.00  0.00    +0.000 A 
ATOM     14  S   UNL     1      50.012   5.321  19.056  0.00  0.00    +0.000 S 
ATOM     15  C   UNL     1      48.883   4.465  18.114  0.00  0.00    +0.000 A 
ATOM     16  N   UNL     1      48.423   3.242  18.493  0.00  0.00    +0.000 NA
ATOM     17  C   UNL     1      47.550   2.729  17.697  0.00  0.00    +0.000 A 
ATOM     18  N   UNL     1      47.093   3.322  16.549  0.00  0.00    +0.000 N 
ATOM     19  C   UNL     1      47.561   4.525  16.101  0.00  0.00    +0.000 A 
ATOM     20  O   UNL     1      47.203   4.985  15.024  0.00  0.00    +0.000 OA
ATOM     21  C   UNL     1      48.530   5.165  16.975  0.00  0.00    +0.000 A 
ATOM     22  H   UNL     1      46.425   2.862  15.950  0.00  0.00    +0.000 HD
ENDBRANCH   9  12
ENDBRANCH   7  10
ENDBRANCH   1   7
BRANCH   4  23
ATOM     23  C   UNL     1      43.883   7.140  11.152  0.00  0.00    +0.000 C 
BRANCH  23  24
ATOM     24  C   UNL     1      43.389   5.711  11.420  0.00  0.00    +0.000 C 
BRANCH  24  25
ATOM     25  N   UNL     1      43.383   4.923  10.183  0.00  0.00    +0.000 NA
ATOM     26  H   UNL     1      43.880   5.427   9.449  0.00  0.00    +0.000 HD
BRANCH  25  27
ATOM     27  C   UNL     1      44.041   3.632  10.390  0.00  0.00    +0.000 C 
BRANCH  27  28
ATOM     28  C   UNL     1      45.008   3.326   9.271  0.00  0.00    +0.000 A 
ATOM     29  C   UNL     1      45.546   4.358   8.484  0.00  0.00    +0.000 A 
ATOM     30  C   UNL     1      46.447   4.074   7.455  0.00  0.00    +0.000 A 
ATOM     31  C   UNL     1      46.814   2.755   7.194  0.00  0.00    +0.000 A 
ATOM     32  C   UNL     1      46.271   1.724   7.959  0.00  0.00    +0.000 A 
ATOM     33 CL   UNL     1      46.708   0.093   7.628  0.00  0.00    +0.000 Cl
ATOM     34  C   UNL     1      45.376   2.002   8.991  0.00  0.00    +0.000 A 
ENDBRANCH  27  28
ENDBRANCH  25  27
ENDBRANCH  24  25
ENDBRANCH  23  24
ENDBRANCH   4  23
TORSDOF 8
ENDMDL
MODEL 2
REMARK VINA RESULT:    -7.919      2.872      3.617
REMARK INTER + INTRA:         -13.171
REMARK INTER:                 -12.270
REMARK INTRA:                  -0.902
REMARK UNBOUND:                -1.548
REMARK  Name = 
REMARK  8 active torsions:
REMARK  status: ('A' for Active; 'I' for Inactive)
REMARK    1  A    between atoms: C_2  and  C_22
REMARK    2  A    between atoms: N_3  and  C_4
REMARK    3  A    between atoms: C_4  and  C_5
REMARK    4  A    between atoms: C_8  and  C_9
REMARK    5  A    between atoms: C_9  and  C_10
REMARK    6  A    between atoms: C_10  and  N_11
REMARK    7  A    between atoms: N_11  and  C_12
REMARK    8  A    between atoms: C_12  and  C_13
REMARK                            x       y       z     vdW  Elec       q    Type
REMARK                         _______ _______ _______ _____ _____    ______ ____
ROOT
ATOM      1  C   UNL     1      47.429   5.139  15.170  0.00  0.00    +0.000 A 
ATOM      2  C   UNL     1      48.130   6.201  14.608  0.00  0.00    +0.000 A 
ATOM      3  C   UNL     1      47.822   6.605  13.309  0.00  0.00    +0.000 A 
ATOM      4  C   UNL     1      46.837   5.929  12.585  0.00  0.00    +0.000 A 
ATOM      5  C   UNL     1      46.210   4.863  13.217  0.00  0.00    +0.000 A 
ATOM      6  N   UNL     1      46.485   4.453  14.479  0.00  0.00    +0.000 NA
ENDROOT
BRANCH   1   7
ATOM      7  C   UNL     1      47.720   4.698  16.587  0.00  0.00    +0.000 C 
BRANCH   7  10
ATOM      8  O   UNL     1      49.097   5.161  18.964  0.00  0.00    +0.000 OA
ATOM      9  C   UNL     1      49.696   4.633  18.032  0.00  0.00    +0.000 C 
ATOM     10  N   UNL     1      49.127   4.451  16.797  0.00  0.00    +0.000 N 
ATOM     11  H   UNL     1      49.533   3.757  16.179  0.00  0.00    +0.000 HD
BRANCH   9  12
ATOM     12  C   UNL     1      51.094   4.210  18.159  0.00  0.00    +0.000 A 
ATOM     13  C   UNL     1      52.051   5.071  18.676  0.00  0.00    +0.000 A 
ATOM     14  S   UNL     1      53.622   4.398  18.709  0.00  0.00    +0.000 S 
ATOM     15  C   UNL     1      53.065   2.918  18.079  0.00  0.00    +0.000 A 
ATOM     16  N   UNL     1      53.909   1.871  17.873  0.00  0.00    +0.000 NA
ATOM     17  C   UNL     1      53.339   0.808  17.420  0.00  0.00    +0.000 A 
ATOM     18  N   UNL     1      52.002   0.691  17.148  0.00  0.00    +0.000 N 
ATOM     19  C   UNL     1      51.124   1.729  17.291  0.00  0.00    +0.000 A 
ATOM     20  O   UNL     1      49.953   1.622  16.950  0.00  0.00    +0.000 OA
ATOM     21  C   UNL     1      51.706   2.948  17.825  0.00  0.00    +0.000 A 
ATOM     22  H   UNL     1      51.615  -0.161  16.771  0.00  0.00    +0.000 HD
ENDBRANCH   9  12
ENDBRANCH   7  10
ENDBRANCH   1   7
BRANCH   4  23
ATOM     23  C   UNL     1      46.439   6.352  11.195  0.00  0.00    +0.000 C 
BRANCH  23  24
ATOM     24  C   UNL     1      45.343   5.462  10.592  0.00  0.00    +0.000 C 
BRANCH  24  25
ATOM     25  N   UNL     1      45.531   5.314   9.146  0.00  0.00    +0.000 NA
ATOM     26  H   UNL     1      46.505   5.094   8.943  0.00  0.00    +0.000 HD
BRANCH  25  27
ATOM     27  C   UNL     1      44.692   4.233   8.625  0.00  0.00    +0.000 C 
BRANCH  27  28
ATOM     28  C   UNL     1      45.532   3.115   8.054  0.00  0.00    +0.000 A 
ATOM     29  C   UNL     1      45.550   1.849   8.662  0.00  0.00    +0.000 A 
ATOM     30  C   UNL     1      46.321   0.814   8.128  0.00  0.00    +0.000 A 
ATOM     31  C   UNL     1      47.092   1.035   6.987  0.00  0.00    +0.000 A 
ATOM     32  C   UNL     1      47.093   2.293   6.390  0.00  0.00    +0.000 A 
ATOM     33 CL   UNL     1      48.057   2.575   4.992  0.00  0.00    +0.000 Cl
ATOM     34  C   UNL     1      46.321   3.329   6.914  0.00  0.00    +0.000 A 
ENDBRANCH  27  28
ENDBRANCH  25  27
ENDBRANCH  24  25
ENDBRANCH  23  24
ENDBRANCH   4  23
TORSDOF 8
ENDMDL
MODEL 3
REMARK VINA RESULT:    -7.754      1.884      2.244
REMARK INTER + INTRA:         -12.928
REMARK INTER:                 -12.076
REMARK INTRA:                  -0.852
REMARK UNBOUND:                -1.548
REMARK  Name = 
REMARK  8 active torsions:
REMARK  status: ('A' for Active; 'I' for Inactive)
REMARK    1  A    between atoms: C_2  and  C_22
REMARK    2  A    between atoms: N_3  and  C_4
REMARK    3  A    between atoms: C_4  and  C_5
REMARK    4  A    between atoms: C_8  and  C_9
REMARK    5  A    between atoms: C_9  and  C_10
REMARK    6  A    between atoms: C_10  and  N_11
REMARK    7  A    between atoms: N_11  and  C_12
REMARK    8  A    between atoms: C_12  and  C_13
REMARK                            x       y       z     vdW  Elec       q    Type
REMARK                         _______ _______ _______ _____ _____    ______ ____
ROOT
ATOM      1  C   UNL     1      46.661   6.903  13.094  0.00  0.00    +0.000 A 
ATOM      2  C   UNL     1      45.860   7.397  12.069  0.00  0.00    +0.000 A 
ATOM      3  C   UNL     1      44.727   6.679  11.689  0.00  0.00    +0.000 A 
ATOM      4  C   UNL     1      44.425   5.470  12.318  0.00  0.00    +0.000 A 
ATOM      5  C   UNL     1      45.298   5.040  13.311  0.00  0.00    +0.000 A 
ATOM      6  N   UNL     1      46.401   5.720  13.704  0.00  0.00    +0.000 NA
ENDROOT
BRANCH   1   7
ATOM      7  C   UNL     1      47.880   7.674  13.549  0.00  0.00    +0.000 C 
BRANCH   7  10
ATOM      8  O   UNL     1      49.887   6.613  15.162  0.00  0.00    +0.000 OA
ATOM      9  C   UNL     1      49.017   7.302  15.686  0.00  0.00    +0.000 C 
ATOM     10  N   UNL     1      47.941   7.788  14.987  0.00  0.00    +0.000 N 
ATOM     11  H   UNL     1      47.435   8.579  15.372  0.00  0.00    +0.000 HD
BRANCH   9  12
ATOM     12  C   UNL     1      49.036   7.606  17.120  0.00  0.00    +0.000 A 
ATOM     13  C   UNL     1      49.648   8.758  17.593  0.00  0.00    +0.000 A 
ATOM     14  S   UNL     1      49.588   8.909  19.294  0.00  0.00    +0.000 S 
ATOM     15  C   UNL     1      48.699   7.466  19.449  0.00  0.00    +0.000 A 
ATOM     16  N   UNL     1      48.290   7.010  20.664  0.00  0.00    +0.000 NA
ATOM     17  C   UNL     1      47.601   5.922  20.622  0.00  0.00    +0.000 A 
ATOM     18  N   UNL     1      47.286   5.239  19.478  0.00  0.00    +0.000 N 
ATOM     19  C   UNL     1      47.716   5.629  18.241  0.00  0.00    +0.000 A 
ATOM     20  O   UNL     1      47.497   4.946  17.248  0.00  0.00    +0.000 OA
ATOM     21  C   UNL     1      48.475   6.867  18.223  0.00  0.00    +0.000 A 
ATOM     22  H   UNL     1      46.763   4.376  19.508  0.00  0.00    +0.000 HD
ENDBRANCH   9  12
ENDBRANCH   7  10
ENDBRANCH   1   7
BRANCH   4  23
ATOM     23  C   UNL     1      43.191   4.677  11.971  0.00  0.00    +0.000 C 
BRANCH  23  24
ATOM     24  C   UNL     1      43.374   3.168  12.182  0.00  0.00    +0.000 C 
BRANCH  24  25
ATOM     25  N   UNL     1      44.093   2.569  11.053  0.00  0.00    +0.000 NA
ATOM     26  H   UNL     1      43.635   1.703  10.770  0.00  0.00    +0.000 HD
BRANCH  25  27
ATOM     27  C   UNL     1      44.109   3.482   9.909  0.00  0.00    +0.000 C 
BRANCH  27  28
ATOM     28  C   UNL     1      45.123   3.049   8.877  0.00  0.00    +0.000 A 
ATOM     29  C   UNL     1      45.735   3.989   8.032  0.00  0.00    +0.000 A 
ATOM     30  C   UNL     1      46.679   3.588   7.085  0.00  0.00    +0.000 A 
ATOM     31  C   UNL     1      47.015   2.240   6.962  0.00  0.00    +0.000 A 
ATOM     32  C   UNL     1      46.399   1.299   7.785  0.00  0.00    +0.000 A 
ATOM     33 CL   UNL     1      46.797  -0.367   7.624  0.00  0.00    +0.000 Cl
ATOM     34  C   UNL     1      45.460   1.695   8.737  0.00  0.00    +0.000 A 
ENDBRANCH  27  28
ENDBRANCH  25  27
ENDBRANCH  24  25
ENDBRANCH  23  24
ENDBRANCH   4  23
TORSDOF 8
ENDMDL
MODEL 4
REMARK VINA RESULT:    -7.252      3.456      7.944
REMARK INTER + INTRA:         -12.191
REMARK INTER:                 -10.326
REMARK INTRA:                  -1.865
REMARK UNBOUND:                -1.548
REMARK  Name = 
REMARK  8 active torsions:
REMARK  status: ('A' for Active; 'I' for Inactive)
REMARK    1  A    between atoms: C_2  and  C_22
REMARK    2  A    between atoms: N_3  and  C_4
REMARK    3  A    between atoms: C_4  and  C_5
REMARK    4  A    between atoms: C_8  and  C_9
REMARK    5  A    between atoms: C_9  and  C_10
REMARK    6  A    between atoms: C_10  and  N_11
REMARK    7  A    between atoms: N_11  and  C_12
REMARK    8  A    between atoms: C_12  and  C_13
REMARK                            x       y       z     vdW  Elec       q    Type
REMARK                         _______ _______ _______ _____ _____    ______ ____
ROOT
ATOM      1  C   UNL     1      48.043   7.865  13.504  0.00  0.00    +0.000 A 
ATOM      2  C   UNL     1      48.854   6.882  14.063  0.00  0.00    +0.000 A 
ATOM      3  C   UNL     1      49.324   7.051  15.364  0.00  0.00    +0.000 A 
ATOM      4  C   UNL     1      48.999   8.206  16.078  0.00  0.00    +0.000 A 
ATOM      5  C   UNL     1      48.209   9.147  15.429  0.00  0.00    +0.000 A 
ATOM      6  N   UNL     1      47.734   9.006  14.168  0.00  0.00    +0.000 NA
ENDROOT
BRANCH   1   7
ATOM      7  C   UNL     1      47.494   7.696  12.105  0.00  0.00    +0.000 C 
BRANCH   7  10
ATOM      8  O   UNL     1      44.729   7.446  11.880  0.00  0.00    +0.000 OA
ATOM      9  C   UNL     1      45.420   6.438  11.765  0.00  0.00    +0.000 C 
ATOM     10  N   UNL     1      46.779   6.451  11.952  0.00  0.00    +0.000 N 
ATOM     11  H   UNL     1      47.326   5.694  11.557  0.00  0.00    +0.000 HD
BRANCH   9  12
ATOM     12  C   UNL     1      44.828   5.129  11.476  0.00  0.00    +0.000 A 
ATOM     13  C   UNL     1      44.046   4.479  12.420  0.00  0.00    +0.000 A 
ATOM     14  S   UNL     1      43.480   2.954  11.899  0.00  0.00    +0.000 S 
ATOM     15  C   UNL     1      44.219   3.134  10.377  0.00  0.00    +0.000 A 
ATOM     16  N   UNL     1      44.108   2.177   9.415  0.00  0.00    +0.000 NA
ATOM     17  C   UNL     1      44.695   2.466   8.305  0.00  0.00    +0.000 A 
ATOM     18  N   UNL     1      45.390   3.621   8.064  0.00  0.00    +0.000 N 
ATOM     19  C   UNL     1      45.572   4.588   9.013  0.00  0.00    +0.000 A 
ATOM     20  O   UNL     1      46.278   5.565   8.798  0.00  0.00    +0.000 OA
ATOM     21  C   UNL     1      44.908   4.329  10.279  0.00  0.00    +0.000 A 
ATOM     22  H   UNL     1      45.852   3.783   7.181  0.00  0.00    +0.000 HD
ENDBRANCH   9  12
ENDBRANCH   7  10
ENDBRANCH   1   7
BRANCH   4  23
ATOM     23  C   UNL     1      49.449   8.418  17.501  0.00  0.00    +0.000 C 
BRANCH  23  24
ATOM     24  C   UNL     1      48.284   8.419  18.500  0.00  0.00    +0.000 C 
BRANCH  24  25
ATOM     25  N   UNL     1      47.641   7.102  18.550  0.00  0.00    +0.000 NA
ATOM     26  H   UNL     1      47.366   6.814  17.611  0.00  0.00    +0.000 HD
BRANCH  25  27
ATOM     27  C   UNL     1      48.559   6.101  19.095  0.00  0.00    +0.000 C 
BRANCH  27  28
ATOM     28  C   UNL     1      48.581   4.856  18.239  0.00  0.00    +0.000 A 
ATOM     29  C   UNL     1      47.467   4.500  17.461  0.00  0.00    +0.000 A 
ATOM     30  C   UNL     1      47.492   3.354  16.663  0.00  0.00    +0.000 A 
ATOM     31  C   UNL     1      48.627   2.544  16.642  0.00  0.00    +0.000 A 
ATOM     32  C   UNL     1      49.729   2.881  17.424  0.00  0.00    +0.000 A 
ATOM     33 CL   UNL     1      51.125   1.875  17.414  0.00  0.00    +0.000 Cl
ATOM     34  C   UNL     1      49.712   4.028  18.218  0.00  0.00    +0.000 A 
ENDBRANCH  27  28
ENDBRANCH  25  27
ENDBRANCH  24  25
ENDBRANCH  23  24
ENDBRANCH   4  23
TORSDOF 8
ENDMDL
MODEL 5
REMARK VINA RESULT:    -7.207      3.624      7.644
REMARK INTER + INTRA:         -12.125
REMARK INTER:                 -10.301
REMARK INTRA:                  -1.824
REMARK UNBOUND:                -1.548
REMARK  Name = 
REMARK  8 active torsions:
REMARK  status: ('A' for Active; 'I' for Inactive)
REMARK    1  A    between atoms: C_2  and  C_22
REMARK    2  A    between atoms: N_3  and  C_4
REMARK    3  A    between atoms: C_4  and  C_5
REMARK    4  A    between atoms: C_8  and  C_9
REMARK    5  A    between atoms: C_9  and  C_10
REMARK    6  A    between atoms: C_10  and  N_11
REMARK    7  A    between atoms: N_11  and  C_12
REMARK    8  A    between atoms: C_12  and  C_13
REMARK                            x       y       z     vdW  Elec       q    Type
REMARK                         _______ _______ _______ _____ _____    ______ ____
ROOT
ATOM      1  C   UNL     1      48.316   8.123  13.633  0.00  0.00    +0.000 A 
ATOM      2  C   UNL     1      48.745   6.926  14.198  0.00  0.00    +0.000 A 
ATOM      3  C   UNL     1      49.010   6.878  15.566  0.00  0.00    +0.000 A 
ATOM      4  C   UNL     1      48.868   8.029  16.344  0.00  0.00    +0.000 A 
ATOM      5  C   UNL     1      48.463   9.186  15.689  0.00  0.00    +0.000 A 
ATOM      6  N   UNL     1      48.193   9.259  14.364  0.00  0.00    +0.000 NA
ENDROOT
BRANCH   1   7
ATOM      7  C   UNL     1      47.992   8.198  12.159  0.00  0.00    +0.000 C 
BRANCH   7  10
ATOM      8  O   UNL     1      45.273   7.956  11.602  0.00  0.00    +0.000 OA
ATOM      9  C   UNL     1      46.008   7.003  11.360  0.00  0.00    +0.000 C 
ATOM     10  N   UNL     1      47.341   6.999  11.687  0.00  0.00    +0.000 N 
ATOM     11  H   UNL     1      47.951   6.345  11.207  0.00  0.00    +0.000 HD
BRANCH   9  12
ATOM     12  C   UNL     1      45.495   5.770  10.756  0.00  0.00    +0.000 A 
ATOM     13  C   UNL     1      45.738   5.481   9.421  0.00  0.00    +0.000 A 
ATOM     14  S   UNL     1      45.028   4.015   8.905  0.00  0.00    +0.000 S 
ATOM     15  C   UNL     1      44.416   3.696  10.460  0.00  0.00    +0.000 A 
ATOM     16  N   UNL     1      43.709   2.563  10.727  0.00  0.00    +0.000 NA
ATOM     17  C   UNL     1      43.337   2.444  11.955  0.00  0.00    +0.000 A 
ATOM     18  N   UNL     1      43.598   3.354  12.945  0.00  0.00    +0.000 N 
ATOM     19  C   UNL     1      44.259   4.528  12.715  0.00  0.00    +0.000 A 
ATOM     20  O   UNL     1      44.395   5.365  13.600  0.00  0.00    +0.000 OA
ATOM     21  C   UNL     1      44.728   4.705  11.352  0.00  0.00    +0.000 A 
ATOM     22  H   UNL     1      43.259   3.220  13.886  0.00  0.00    +0.000 HD
ENDBRANCH   9  12
ENDBRANCH   7  10
ENDBRANCH   1   7
BRANCH   4  23
ATOM     23  C   UNL     1      49.103   8.020  17.832  0.00  0.00    +0.000 C 
BRANCH  23  24
ATOM     24  C   UNL     1      47.808   8.173  18.641  0.00  0.00    +0.000 C 
BRANCH  24  25
ATOM     25  N   UNL     1      47.181   6.867  18.869  0.00  0.00    +0.000 NA
ATOM     26  H   UNL     1      46.776   6.520  18.000  0.00  0.00    +0.000 HD
BRANCH  25  27
ATOM     27  C   UNL     1      48.169   5.896  19.343  0.00  0.00    +0.000 C 
BRANCH  27  28
ATOM     28  C   UNL     1      48.294   4.733  18.387  0.00  0.00    +0.000 A 
ATOM     29  C   UNL     1      47.223   4.371  17.553  0.00  0.00    +0.000 A 
ATOM     30  C   UNL     1      47.343   3.300  16.664  0.00  0.00    +0.000 A 
ATOM     31  C   UNL     1      48.531   2.572  16.606  0.00  0.00    +0.000 A 
ATOM     32  C   UNL     1      49.591   2.914  17.442  0.00  0.00    +0.000 A 
ATOM     33 CL   UNL     1      51.052   2.006  17.386  0.00  0.00    +0.000 Cl
ATOM     34  C   UNL     1      49.479   3.986  18.328  0.00  0.00    +0.000 A 
ENDBRANCH  27  28
ENDBRANCH  25  27
ENDBRANCH  24  25
ENDBRANCH  23  24
ENDBRANCH   4  23
TORSDOF 8
ENDMDL
MODEL 6
REMARK VINA RESULT:    -6.550      3.820      7.920
REMARK INTER + INTRA:         -11.161
REMARK INTER:                  -8.455
REMARK INTRA:                  -2.706
REMARK UNBOUND:                -1.548
REMARK  Name = 
REMARK  8 active torsions:
REMARK  status: ('A' for Active; 'I' for Inactive)
REMARK    1  A    between atoms: C_2  and  C_22
REMARK    2  A    between atoms: N_3  and  C_4
REMARK    3  A    between atoms: C_4  and  C_5
REMARK    4  A    between atoms: C_8  and  C_9
REMARK    5  A    between atoms: C_9  and  C_10
REMARK    6  A    between atoms: C_10  and  N_11
REMARK    7  A    between atoms: N_11  and  C_12
REMARK    8  A    between atoms: C_12  and  C_13
REMARK                            x       y       z     vdW  Elec       q    Type
REMARK                         _______ _______ _______ _____ _____    ______ ____
ROOT
ATOM      1  C   UNL     1      49.254   7.471  15.499  0.00  0.00    +0.000 A 
ATOM      2  C   UNL     1      50.319   7.074  16.301  0.00  0.00    +0.000 A 
ATOM      3  C   UNL     1      50.376   7.517  17.622  0.00  0.00    +0.000 A 
ATOM      4  C   UNL     1      49.384   8.369  18.114  0.00  0.00    +0.000 A 
ATOM      5  C   UNL     1      48.375   8.737  17.232  0.00  0.00    +0.000 A 
ATOM      6  N   UNL     1      48.292   8.316  15.947  0.00  0.00    +0.000 NA
ENDROOT
BRANCH   1   7
ATOM      7  C   UNL     1      49.150   6.982  14.072  0.00  0.00    +0.000 C 
BRANCH   7  10
ATOM      8  O   UNL     1      48.070   7.396  11.538  0.00  0.00    +0.000 OA
ATOM      9  C   UNL     1      47.368   6.867  12.395  0.00  0.00    +0.000 C 
ATOM     10  N   UNL     1      47.784   6.709  13.694  0.00  0.00    +0.000 N 
ATOM     11  H   UNL     1      47.315   6.015  14.266  0.00  0.00    +0.000 HD
BRANCH   9  12
ATOM     12  C   UNL     1      46.004   6.420  12.103  0.00  0.00    +0.000 A 
ATOM     13  C   UNL     1      45.076   7.288  11.547  0.00  0.00    +0.000 A 
ATOM     14  S   UNL     1      43.538   6.581  11.315  0.00  0.00    +0.000 S 
ATOM     15  C   UNL     1      44.075   5.078  11.904  0.00  0.00    +0.000 A 
ATOM     16  N   UNL     1      43.248   3.999  11.960  0.00  0.00    +0.000 NA
ATOM     17  C   UNL     1      43.803   2.922  12.400  0.00  0.00    +0.000 A 
ATOM     18  N   UNL     1      45.109   2.821  12.797  0.00  0.00    +0.000 N 
ATOM     19  C   UNL     1      45.965   3.887  12.807  0.00  0.00    +0.000 A 
ATOM     20  O   UNL     1      47.100   3.787  13.257  0.00  0.00    +0.000 OA
ATOM     21  C   UNL     1      45.401   5.124  12.295  0.00  0.00    +0.000 A 
ATOM     22  H   UNL     1      45.484   1.956  13.158  0.00  0.00    +0.000 HD
ENDBRANCH   9  12
ENDBRANCH   7  10
ENDBRANCH   1   7
BRANCH   4  23
ATOM     23  C   UNL     1      49.378   8.843  19.544  0.00  0.00    +0.000 C 
BRANCH  23  24
ATOM     24  C   UNL     1      48.362   8.093  20.416  0.00  0.00    +0.000 C 
BRANCH  24  25
ATOM     25  N   UNL     1      48.931   6.836  20.912  0.00  0.00    +0.000 NA
ATOM     26  H   UNL     1      49.139   6.918  21.907  0.00  0.00    +0.000 HD
BRANCH  25  27
ATOM     27  C   UNL     1      47.989   5.733  20.722  0.00  0.00    +0.000 C 
BRANCH  27  28
ATOM     28  C   UNL     1      48.152   5.103  19.359  0.00  0.00    +0.000 A 
ATOM     29  C   UNL     1      47.176   5.279  18.364  0.00  0.00    +0.000 A 
ATOM     30  C   UNL     1      47.332   4.703  17.102  0.00  0.00    +0.000 A 
ATOM     31  C   UNL     1      48.462   3.935  16.821  0.00  0.00    +0.000 A 
ATOM     32  C   UNL     1      49.426   3.741  17.808  0.00  0.00    +0.000 A 
ATOM     33 CL   UNL     1      50.813   2.779  17.471  0.00  0.00    +0.000 Cl
ATOM     34  C   UNL     1      49.278   4.319  19.068  0.00  0.00    +0.000 A 
ENDBRANCH  27  28
ENDBRANCH  25  27
ENDBRANCH  24  25
ENDBRANCH  23  24
ENDBRANCH   4  23
TORSDOF 8
ENDMDL
MODEL 7
REMARK VINA RESULT:    -6.485      3.933      5.318
REMARK INTER + INTRA:         -11.067
REMARK INTER:                  -9.917
REMARK INTRA:                  -1.150
REMARK UNBOUND:                -1.548
REMARK  Name = 
REMARK  8 active torsions:
REMARK  status: ('A' for Active; 'I' for Inactive)
REMARK    1  A    between atoms: C_2  and  C_22
REMARK    2  A    between atoms: N_3  and  C_4
REMARK    3  A    between atoms: C_4  and  C_5
REMARK    4  A    between atoms: C_8  and  C_9
REMARK    5  A    between atoms: C_9  and  C_10
REMARK    6  A    between atoms: C_10  and  N_11
REMARK    7  A    between atoms: N_11  and  C_12
REMARK    8  A    between atoms: C_12  and  C_13
REMARK                            x       y       z     vdW  Elec       q    Type
REMARK                         _______ _______ _______ _____ _____    ______ ____
ROOT
ATOM      1  C   UNL     1      47.282   8.512  12.157  0.00  0.00    +0.000 A 
ATOM      2  C   UNL     1      47.779   7.261  12.510  0.00  0.00    +0.000 A 
ATOM      3  C   UNL     1      46.905   6.177  12.567  0.00  0.00    +0.000 A 
ATOM      4  C   UNL     1      45.548   6.360  12.296  0.00  0.00    +0.000 A 
ATOM      5  C   UNL     1      45.137   7.650  11.981  0.00  0.00    +0.000 A 
ATOM      6  N   UNL     1      45.964   8.720  11.912  0.00  0.00    +0.000 NA
ENDROOT
BRANCH   1   7
ATOM      7  C   UNL     1      48.210   9.701  12.058  0.00  0.00    +0.000 C 
BRANCH   7  10
ATOM      8  O   UNL     1      50.596  11.082  12.456  0.00  0.00    +0.000 OA
ATOM      9  C   UNL     1      50.623  10.041  11.808  0.00  0.00    +0.000 C 
ATOM     10  N   UNL     1      49.486   9.345  11.484  0.00  0.00    +0.000 N 
ATOM     11  H   UNL     1      49.578   8.368  11.227  0.00  0.00    +0.000 HD
BRANCH   9  12
ATOM     12  C   UNL     1      51.877   9.497  11.279  0.00  0.00    +0.000 A 
ATOM     13  C   UNL     1      52.271   9.761   9.975  0.00  0.00    +0.000 A 
ATOM     14  S   UNL     1      53.744   9.009   9.546  0.00  0.00    +0.000 S 
ATOM     15  C   UNL     1      53.927   8.346  11.103  0.00  0.00    +0.000 A 
ATOM     16  N   UNL     1      55.010   7.590  11.430  0.00  0.00    +0.000 NA
ATOM     17  C   UNL     1      55.027   7.183  12.653  0.00  0.00    +0.000 A 
ATOM     18  N   UNL     1      54.057   7.454  13.582  0.00  0.00    +0.000 N 
ATOM     19  C   UNL     1      52.928   8.165  13.287  0.00  0.00    +0.000 A 
ATOM     20  O   UNL     1      52.035   8.310  14.113  0.00  0.00    +0.000 OA
ATOM     21  C   UNL     1      52.867   8.675  11.928  0.00  0.00    +0.000 A 
ATOM     22  H   UNL     1      54.111   7.087  14.520  0.00  0.00    +0.000 HD
ENDBRANCH   9  12
ENDBRANCH   7  10
ENDBRANCH   1   7
BRANCH   4  23
ATOM     23  C   UNL     1      44.571   5.213  12.305  0.00  0.00    +0.000 C 
BRANCH  23  24
ATOM     24  C   UNL     1      45.261   3.843  12.362  0.00  0.00    +0.000 C 
BRANCH  24  25
ATOM     25  N   UNL     1      44.402   2.805  11.784  0.00  0.00    +0.000 NA
ATOM     26  H   UNL     1      43.635   2.594  12.421  0.00  0.00    +0.000 HD
BRANCH  25  27
ATOM     27  C   UNL     1      43.838   3.252  10.509  0.00  0.00    +0.000 C 
BRANCH  27  28
ATOM     28  C   UNL     1      44.831   3.084   9.383  0.00  0.00    +0.000 A 
ATOM     29  C   UNL     1      45.286   4.195   8.654  0.00  0.00    +0.000 A 
ATOM     30  C   UNL     1      46.210   4.039   7.619  0.00  0.00    +0.000 A 
ATOM     31  C   UNL     1      46.684   2.769   7.293  0.00  0.00    +0.000 A 
ATOM     32  C   UNL     1      46.224   1.660   8.000  0.00  0.00    +0.000 A 
ATOM     33 CL   UNL     1      46.793   0.088   7.588  0.00  0.00    +0.000 Cl
ATOM     34  C   UNL     1      45.306   1.810   9.038  0.00  0.00    +0.000 A 
ENDBRANCH  27  28
ENDBRANCH  25  27
ENDBRANCH  24  25
ENDBRANCH  23  24
ENDBRANCH   4  23
TORSDOF 8
ENDMDL
