MODEL 1
REMARK VINA RESULT:    -8.684      0.000      0.000
REMARK INTER + INTRA:         -10.674
REMARK INTER:                 -10.714
REMARK INTRA:                   0.040
REMARK UNBOUND:                 0.040
REMARK  Name = 
REMARK  7 active torsions:
REMARK  status: ('A' for Active; 'I' for Inactive)
REMARK    1  A    between atoms: C_1  and  C_2
REMARK    2  A    between atoms: C_9  and  C_10
REMARK    3  A    between atoms: C_10  and  N_11
REMARK    4  A    between atoms: N_11  and  C_12
REMARK    5  A    between atoms: C_15  and  C_16
REMARK    6  A    between atoms: C_25  and  C_26
REMARK    7  A    between atoms: C_25  and  C_27
REMARK                            x       y       z     vdW  Elec       q    Type
REMARK                         _______ _______ _______ _____ _____    ______ ____
ROOT
ATOM      1  C   UNL     1      46.984   9.815  13.082  0.00  0.00    +0.000 C 
ATOM      2  C   UNL     1      47.998   9.449  11.995  0.00  0.00    +0.000 C 
ATOM      3  C   UNL     1      47.668   8.097  11.321  0.00  0.00    +0.000 C 
ATOM      4  N   UNL     1      48.165   6.989  12.129  0.00  0.00    +0.000 N 
ATOM      5  C   UNL     1      47.311   6.037  12.601  0.00  0.00    +0.000 A 
ATOM      6  N   UNL     1      47.720   5.092  13.457  0.00  0.00    +0.000 NA
ATOM      7  C   UNL     1      46.836   4.127  13.771  0.00  0.00    +0.000 A 
ATOM      8  C   UNL     1      45.578   4.038  13.224  0.00  0.00    +0.000 A 
ATOM      9  C   UNL     1      45.238   5.035  12.339  0.00  0.00    +0.000 A 
ATOM     10  N   UNL     1      46.078   6.054  12.101  0.00  0.00    +0.000 NA
ATOM     11  C   UNL     1      49.569   7.019  12.488  0.00  0.00    +0.000 C 
ATOM     12  C   UNL     1      49.912   8.366  13.192  0.00  0.00    +0.000 C 
ATOM     13  C   UNL     1      49.408   8.342  14.646  0.00  0.00    +0.000 C 
ATOM     14  C   UNL     1      51.447   8.507  13.231  0.00  0.00    +0.000 C 
ATOM     15  N   UNL     1      49.403   9.567  12.460  0.00  0.00    +0.000 NA
ATOM     16  H   UNL     1      49.971   9.659  11.616  0.00  0.00    +0.000 HD
ENDROOT
BRANCH   9  17
ATOM     17  C   UNL     1      43.976   5.007  11.480  0.00  0.00    +0.000 C 
ATOM     18  C   UNL     1      42.675   5.254  12.216  0.00  0.00    +0.000 C 
ATOM     19  C   UNL     1      42.975   3.869  11.755  0.00  0.00    +0.000 C 
BRANCH  17  20
ATOM     20  N   UNL     1      44.213   5.135  10.037  0.00  0.00    +0.000 N 
ATOM     21  H   UNL     1      43.425   5.551   9.544  0.00  0.00    +0.000 HD
BRANCH  20  22
ATOM     22  C   UNL     1      44.931   4.253   9.217  0.00  0.00    +0.000 A 
ATOM     23  C   UNL     1      44.850   2.856   9.291  0.00  0.00    +0.000 A 
ATOM     24  C   UNL     1      45.675   2.050   8.491  0.00  0.00    +0.000 A 
ATOM     25  C   UNL     1      46.601   2.635   7.617  0.00  0.00    +0.000 A 
ATOM     26  C   UNL     1      46.723   4.024   7.573  0.00  0.00    +0.000 A 
ATOM     27  C   UNL     1      45.898   4.821   8.373  0.00  0.00    +0.000 A 
BRANCH  25  28
ATOM     28  C   UNL     1      47.471   1.758   6.792  0.00  0.00    +0.000 C 
ATOM     29  N   UNL     1      48.534   2.341   6.160  0.00  0.00    +0.000 N 
ATOM     30  O   UNL     1      47.239   0.564   6.658  0.00  0.00    +0.000 OA
ATOM     31  H   UNL     1      48.644   3.340   6.061  0.00  0.00    +0.000 HD
ATOM     32  H   UNL     1      49.083   1.746   5.550  0.00  0.00    +0.000 HD
ENDBRANCH  25  28
ENDBRANCH  20  22
ENDBRANCH  17  20
ENDBRANCH   9  17
TORSDOF 4
ENDMDL
MODEL 2
REMARK VINA RESULT:    -8.178      1.516      2.660
REMARK INTER + INTRA:         -10.050
REMARK INTER:                 -10.276
REMARK INTRA:                   0.226
REMARK UNBOUND:                 0.040
REMARK  Name = 
REMARK  7 active torsions:
REMARK  status: ('A' for Active; 'I' for Inactive)
REMARK    1  A    between atoms: C_1  and  C_2
REMARK    2  A    between atoms: C_9  and  C_10
REMARK    3  A    between atoms: C_10  and  N_11
REMARK    4  A    between atoms: N_11  and  C_12
REMARK    5  A    between atoms: C_15  and  C_16
REMARK    6  A    between atoms: C_25  and  C_26
REMARK    7  A    between atoms: C_25  and  C_27
REMARK                            x       y       z     vdW  Elec       q    Type
REMARK                         _______ _______ _______ _____ _____    ______ ____
ROOT
ATOM      1  C   UNL     1      49.554   7.001  11.725  0.00  0.00    +0.000 C 
ATOM      2  C   UNL     1      49.329   7.367  13.195  0.00  0.00    +0.000 C 
ATOM      3  C   UNL     1      47.863   7.143  13.634  0.00  0.00    +0.000 C 
ATOM      4  N   UNL     1      47.035   8.280  13.245  0.00  0.00    +0.000 N 
ATOM      5  C   UNL     1      45.961   8.106  12.423  0.00  0.00    +0.000 A 
ATOM      6  N   UNL     1      45.273   9.148  11.942  0.00  0.00    +0.000 NA
ATOM      7  C   UNL     1      44.159   8.873  11.238  0.00  0.00    +0.000 A 
ATOM      8  C   UNL     1      43.677   7.601  11.040  0.00  0.00    +0.000 A 
ATOM      9  C   UNL     1      44.430   6.584  11.581  0.00  0.00    +0.000 A 
ATOM     10  N   UNL     1      45.593   6.848  12.195  0.00  0.00    +0.000 NA
ATOM     11  C   UNL     1      47.474   9.590  13.681  0.00  0.00    +0.000 C 
ATOM     12  C   UNL     1      48.943   9.841  13.223  0.00  0.00    +0.000 C 
ATOM     13  C   UNL     1      48.974  10.188  11.725  0.00  0.00    +0.000 C 
ATOM     14  C   UNL     1      49.482  11.061  13.997  0.00  0.00    +0.000 C 
ATOM     15  N   UNL     1      49.867   8.707  13.539  0.00  0.00    +0.000 NA
ATOM     16  H   UNL     1      49.995   8.706  14.553  0.00  0.00    +0.000 HD
ENDROOT
BRANCH   9  17
ATOM     17  C   UNL     1      43.966   5.131  11.644  0.00  0.00    +0.000 C 
ATOM     18  C   UNL     1      43.421   4.673  12.981  0.00  0.00    +0.000 C 
ATOM     19  C   UNL     1      44.766   4.187  12.562  0.00  0.00    +0.000 C 
BRANCH  17  20
ATOM     20  N   UNL     1      43.746   4.499  10.337  0.00  0.00    +0.000 N 
ATOM     21  H   UNL     1      42.848   4.023  10.276  0.00  0.00    +0.000 HD
BRANCH  20  22
ATOM     22  C   UNL     1      44.710   3.898   9.517  0.00  0.00    +0.000 A 
ATOM     23  C   UNL     1      45.528   4.590   8.613  0.00  0.00    +0.000 A 
ATOM     24  C   UNL     1      46.404   3.894   7.765  0.00  0.00    +0.000 A 
ATOM     25  C   UNL     1      46.461   2.495   7.804  0.00  0.00    +0.000 A 
ATOM     26  C   UNL     1      45.617   1.795   8.666  0.00  0.00    +0.000 A 
ATOM     27  C   UNL     1      44.746   2.495   9.507  0.00  0.00    +0.000 A 
BRANCH  25  28
ATOM     28  C   UNL     1      47.388   1.783   6.887  0.00  0.00    +0.000 C 
ATOM     29  N   UNL     1      48.443   2.492   6.383  0.00  0.00    +0.000 N 
ATOM     30  O   UNL     1      47.208   0.614   6.571  0.00  0.00    +0.000 OA
ATOM     31  H   UNL     1      48.515   3.497   6.437  0.00  0.00    +0.000 HD
ATOM     32  H   UNL     1      49.033   2.014   5.711  0.00  0.00    +0.000 HD
ENDBRANCH  25  28
ENDBRANCH  20  22
ENDBRANCH  17  20
ENDBRANCH   9  17
TORSDOF 4
ENDMDL
MODEL 3
REMARK VINA RESULT:    -8.019      3.501      6.008
REMARK INTER + INTRA:          -9.854
REMARK INTER:                  -9.412
REMARK INTRA:                  -0.441
REMARK UNBOUND:                 0.040
REMARK  Name = 
REMARK  7 active torsions:
REMARK  status: ('A' for Active; 'I' for Inactive)
REMARK    1  A    between atoms: C_1  and  C_2
REMARK    2  A    between atoms: C_9  and  C_10
REMARK    3  A    between atoms: C_10  and  N_11
REMARK    4  A    between atoms: N_11  and  C_12
REMARK    5  A    between atoms: C_15  and  C_16
REMARK    6  A    between atoms: C_25  and  C_26
REMARK    7  A    between atoms: C_25  and  C_27
REMARK                            x       y       z     vdW  Elec       q    Type
REMARK                         _______ _______ _______ _____ _____    ______ ____
ROOT
ATOM      1  C   UNL     1      48.581   2.690  16.498  0.00  0.00    +0.000 C 
ATOM      2  C   UNL     1      47.632   3.485  17.399  0.00  0.00    +0.000 C 
ATOM      3  C   UNL     1      47.385   4.916  16.866  0.00  0.00    +0.000 C 
ATOM      4  N   UNL     1      48.473   5.803  17.265  0.00  0.00    +0.000 N 
ATOM      5  C   UNL     1      49.215   6.456  16.326  0.00  0.00    +0.000 A 
ATOM      6  N   UNL     1      50.302   7.162  16.660  0.00  0.00    +0.000 NA
ATOM      7  C   UNL     1      50.897   7.868  15.680  0.00  0.00    +0.000 A 
ATOM      8  C   UNL     1      50.420   7.939  14.394  0.00  0.00    +0.000 A 
ATOM      9  C   UNL     1      49.288   7.201  14.133  0.00  0.00    +0.000 A 
ATOM     10  N   UNL     1      48.751   6.416  15.079  0.00  0.00    +0.000 NA
ATOM     11  C   UNL     1      48.785   5.861  18.678  0.00  0.00    +0.000 C 
ATOM     12  C   UNL     1      49.061   4.428  19.225  0.00  0.00    +0.000 C 
ATOM     13  C   UNL     1      50.467   3.967  18.802  0.00  0.00    +0.000 C 
ATOM     14  C   UNL     1      49.033   4.491  20.765  0.00  0.00    +0.000 C 
ATOM     15  N   UNL     1      48.020   3.430  18.830  0.00  0.00    +0.000 NA
ATOM     16  H   UNL     1      47.176   3.661  19.359  0.00  0.00    +0.000 HD
ENDROOT
BRANCH   9  17
ATOM     17  C   UNL     1      48.495   7.303  12.832  0.00  0.00    +0.000 C 
ATOM     18  C   UNL     1      49.315   7.281  11.559  0.00  0.00    +0.000 C 
ATOM     19  C   UNL     1      48.708   8.574  11.988  0.00  0.00    +0.000 C 
BRANCH  17  20
ATOM     20  N   UNL     1      47.061   7.018  12.964  0.00  0.00    +0.000 N 
ATOM     21  H   UNL     1      46.697   7.248  13.888  0.00  0.00    +0.000 HD
BRANCH  20  22
ATOM     22  C   UNL     1      46.351   5.964  12.373  0.00  0.00    +0.000 A 
ATOM     23  C   UNL     1      45.702   6.040  11.134  0.00  0.00    +0.000 A 
ATOM     24  C   UNL     1      44.937   4.962  10.660  0.00  0.00    +0.000 A 
ATOM     25  C   UNL     1      44.804   3.799  11.430  0.00  0.00    +0.000 A 
ATOM     26  C   UNL     1      45.406   3.733  12.687  0.00  0.00    +0.000 A 
ATOM     27  C   UNL     1      46.166   4.811  13.152  0.00  0.00    +0.000 A 
BRANCH  25  28
ATOM     28  C   UNL     1      43.978   2.678  10.911  0.00  0.00    +0.000 C 
ATOM     29  N   UNL     1      44.396   2.070   9.760  0.00  0.00    +0.000 N 
ATOM     30  O   UNL     1      42.951   2.323  11.473  0.00  0.00    +0.000 OA
ATOM     31  H   UNL     1      45.101   2.456   9.150  0.00  0.00    +0.000 HD
ATOM     32  H   UNL     1      43.793   1.349   9.382  0.00  0.00    +0.000 HD
ENDBRANCH  25  28
ENDBRANCH  20  22
ENDBRANCH  17  20
ENDBRANCH   9  17
TORSDOF 4
ENDMDL
MODEL 4
REMARK VINA RESULT:    -7.155      3.867      5.430
REMARK INTER + INTRA:          -8.788
REMARK INTER:                  -8.628
REMARK INTRA:                  -0.160
REMARK UNBOUND:                 0.040
REMARK  Name = 
REMARK  7 active torsions:
REMARK  status: ('A' for Active; 'I' for Inactive)
REMARK    1  A    between atoms: C_1  and  C_2
REMARK    2  A    between atoms: C_9  and  C_10
REMARK    3  A    between atoms: C_10  and  N_11
REMARK    4  A    between atoms: N_11  and  C_12
REMARK    5  A    between atoms: C_15  and  C_16
REMARK    6  A    between atoms: C_25  and  C_26
REMARK    7  A    between atoms: C_25  and  C_27
REMARK                            x       y       z     vdW  Elec       q    Type
REMARK                         _______ _______ _______ _____ _____    ______ ____
ROOT
ATOM      1  C   UNL     1      50.127   8.031  19.061  0.00  0.00    +0.000 C 
ATOM      2  C   UNL     1      51.404   7.349  18.563  0.00  0.00    +0.000 C 
ATOM      3  C   UNL     1      51.178   6.587  17.236  0.00  0.00    +0.000 C 
ATOM      4  N   UNL     1      50.601   5.271  17.495  0.00  0.00    +0.000 N 
ATOM      5  C   UNL     1      49.397   4.924  16.956  0.00  0.00    +0.000 A 
ATOM      6  N   UNL     1      48.785   3.782  17.291  0.00  0.00    +0.000 NA
ATOM      7  C   UNL     1      47.662   3.471  16.618  0.00  0.00    +0.000 A 
ATOM      8  C   UNL     1      47.155   4.227  15.588  0.00  0.00    +0.000 A 
ATOM      9  C   UNL     1      47.852   5.376  15.290  0.00  0.00    +0.000 A 
ATOM     10  N   UNL     1      48.912   5.742  16.026  0.00  0.00    +0.000 NA
ATOM     11  C   UNL     1      51.309   4.418  18.427  0.00  0.00    +0.000 C 
ATOM     12  C   UNL     1      51.522   5.163  19.779  0.00  0.00    +0.000 C 
ATOM     13  C   UNL     1      50.212   5.174  20.585  0.00  0.00    +0.000 C 
ATOM     14  C   UNL     1      52.569   4.379  20.596  0.00  0.00    +0.000 C 
ATOM     15  N   UNL     1      52.073   6.545  19.617  0.00  0.00    +0.000 NA
ATOM     16  H   UNL     1      53.044   6.441  19.317  0.00  0.00    +0.000 HD
ENDROOT
BRANCH   9  17
ATOM     17  C   UNL     1      47.571   6.240  14.063  0.00  0.00    +0.000 C 
ATOM     18  C   UNL     1      48.792   6.729  13.311  0.00  0.00    +0.000 C 
ATOM     19  C   UNL     1      48.027   7.711  14.131  0.00  0.00    +0.000 C 
BRANCH  17  20
ATOM     20  N   UNL     1      46.195   6.160  13.557  0.00  0.00    +0.000 N 
ATOM     21  H   UNL     1      45.499   6.270  14.292  0.00  0.00    +0.000 HD
BRANCH  20  22
ATOM     22  C   UNL     1      45.725   5.352  12.512  0.00  0.00    +0.000 A 
ATOM     23  C   UNL     1      45.308   4.023  12.662  0.00  0.00    +0.000 A 
ATOM     24  C   UNL     1      44.938   3.261  11.543  0.00  0.00    +0.000 A 
ATOM     25  C   UNL     1      44.994   3.818  10.259  0.00  0.00    +0.000 A 
ATOM     26  C   UNL     1      45.455   5.125  10.095  0.00  0.00    +0.000 A 
ATOM     27  C   UNL     1      45.823   5.878  11.214  0.00  0.00    +0.000 A 
BRANCH  25  28
ATOM     28  C   UNL     1      44.609   2.985   9.090  0.00  0.00    +0.000 C 
ATOM     29  N   UNL     1      44.254   3.637   7.942  0.00  0.00    +0.000 N 
ATOM     30  O   UNL     1      44.585   1.763   9.152  0.00  0.00    +0.000 OA
ATOM     31  H   UNL     1      44.051   4.624   7.903  0.00  0.00    +0.000 HD
ATOM     32  H   UNL     1      43.934   3.060   7.172  0.00  0.00    +0.000 HD
ENDBRANCH  25  28
ENDBRANCH  20  22
ENDBRANCH  17  20
ENDBRANCH   9  17
TORSDOF 4
ENDMDL
MODEL 5
REMARK VINA RESULT:    -6.711      4.003      6.849
REMARK INTER + INTRA:          -8.241
REMARK INTER:                  -7.617
REMARK INTRA:                  -0.624
REMARK UNBOUND:                 0.040
REMARK  Name = 
REMARK  7 active torsions:
REMARK  status: ('A' for Active; 'I' for Inactive)
REMARK    1  A    between atoms: C_1  and  C_2
REMARK    2  A    between atoms: C_9  and  C_10
REMARK    3  A    between atoms: C_10  and  N_11
REMARK    4  A    between atoms: N_11  and  C_12
REMARK    5  A    between atoms: C_15  and  C_16
REMARK    6  A    between atoms: C_25  and  C_26
REMARK    7  A    between atoms: C_25  and  C_27
REMARK                            x       y       z     vdW  Elec       q    Type
REMARK                         _______ _______ _______ _____ _____    ______ ____
ROOT
ATOM      1  C   UNL     1      51.511   4.786  17.537  0.00  0.00    +0.000 C 
ATOM      2  C   UNL     1      50.108   4.203  17.727  0.00  0.00    +0.000 C 
ATOM      3  C   UNL     1      49.041   4.976  16.918  0.00  0.00    +0.000 C 
ATOM      4  N   UNL     1      48.619   6.172  17.641  0.00  0.00    +0.000 N 
ATOM      5  C   UNL     1      48.765   7.407  17.082  0.00  0.00    +0.000 A 
ATOM      6  N   UNL     1      48.517   8.523  17.778  0.00  0.00    +0.000 NA
ATOM      7  C   UNL     1      48.573   9.688  17.106  0.00  0.00    +0.000 A 
ATOM      8  C   UNL     1      48.814   9.779  15.756  0.00  0.00    +0.000 A 
ATOM      9  C   UNL     1      49.042   8.587  15.107  0.00  0.00    +0.000 A 
ATOM     10  N   UNL     1      49.088   7.434  15.792  0.00  0.00    +0.000 NA
ATOM     11  C   UNL     1      48.153   5.985  19.000  0.00  0.00    +0.000 C 
ATOM     12  C   UNL     1      49.229   5.229  19.835  0.00  0.00    +0.000 C 
ATOM     13  C   UNL     1      50.366   6.191  20.221  0.00  0.00    +0.000 C 
ATOM     14  C   UNL     1      48.566   4.741  21.139  0.00  0.00    +0.000 C 
ATOM     15  N   UNL     1      49.759   4.005  19.156  0.00  0.00    +0.000 NA
ATOM     16  H   UNL     1      49.007   3.313  19.169  0.00  0.00    +0.000 HD
ENDROOT
BRANCH   9  17
ATOM     17  C   UNL     1      49.129   8.455  13.589  0.00  0.00    +0.000 C 
ATOM     18  C   UNL     1      50.490   8.078  13.040  0.00  0.00    +0.000 C 
ATOM     19  C   UNL     1      50.017   9.479  12.855  0.00  0.00    +0.000 C 
BRANCH  17  20
ATOM     20  N   UNL     1      47.836   8.328  12.907  0.00  0.00    +0.000 N 
ATOM     21  H   UNL     1      47.346   9.216  12.821  0.00  0.00    +0.000 HD
BRANCH  20  22
ATOM     22  C   UNL     1      46.943   7.249  12.984  0.00  0.00    +0.000 A 
ATOM     23  C   UNL     1      47.328   5.909  13.126  0.00  0.00    +0.000 A 
ATOM     24  C   UNL     1      46.369   4.884  13.103  0.00  0.00    +0.000 A 
ATOM     25  C   UNL     1      45.013   5.190  12.925  0.00  0.00    +0.000 A 
ATOM     26  C   UNL     1      44.626   6.517  12.734  0.00  0.00    +0.000 A 
ATOM     27  C   UNL     1      45.588   7.532  12.758  0.00  0.00    +0.000 A 
BRANCH  25  28
ATOM     28  C   UNL     1      44.020   4.085  12.892  0.00  0.00    +0.000 C 
ATOM     29  N   UNL     1      44.472   2.844  12.539  0.00  0.00    +0.000 N 
ATOM     30  O   UNL     1      42.839   4.275  13.146  0.00  0.00    +0.000 OA
ATOM     31  H   UNL     1      45.374   2.678  12.118  0.00  0.00    +0.000 HD
ATOM     32  H   UNL     1      43.775   2.112  12.460  0.00  0.00    +0.000 HD
ENDBRANCH  25  28
ENDBRANCH  20  22
ENDBRANCH  17  20
ENDBRANCH   9  17
TORSDOF 4
ENDMDL
MODEL 6
REMARK VINA RESULT:    -6.498      3.828      8.011
REMARK INTER + INTRA:          -7.977
REMARK INTER:                  -7.155
REMARK INTRA:                  -0.822
REMARK UNBOUND:                 0.040
REMARK  Name = 
REMARK  7 active torsions:
REMARK  status: ('A' for Active; 'I' for Inactive)
REMARK    1  A    between atoms: C_1  and  C_2
REMARK    2  A    between atoms: C_9  and  C_10
REMARK    3  A    between atoms: C_10  and  N_11
REMARK    4  A    between atoms: N_11  and  C_12
REMARK    5  A    between atoms: C_15  and  C_16
REMARK    6  A    between atoms: C_25  and  C_26
REMARK    7  A    between atoms: C_25  and  C_27
REMARK                            x       y       z     vdW  Elec       q    Type
REMARK                         _______ _______ _______ _____ _____    ______ ____
ROOT
ATOM      1  C   UNL     1      46.228   4.770  14.622  0.00  0.00    +0.000 C 
ATOM      2  C   UNL     1      46.486   4.173  13.236  0.00  0.00    +0.000 C 
ATOM      3  C   UNL     1      46.913   5.248  12.209  0.00  0.00    +0.000 C 
ATOM      4  N   UNL     1      45.743   5.935  11.673  0.00  0.00    +0.000 N 
ATOM      5  C   UNL     1      45.608   7.285  11.811  0.00  0.00    +0.000 A 
ATOM      6  N   UNL     1      44.483   7.915  11.452  0.00  0.00    +0.000 NA
ATOM      7  C   UNL     1      44.489   9.260  11.514  0.00  0.00    +0.000 A 
ATOM      8  C   UNL     1      45.590  10.002  11.867  0.00  0.00    +0.000 A 
ATOM      9  C   UNL     1      46.714   9.282  12.204  0.00  0.00    +0.000 A 
ATOM     10  N   UNL     1      46.681   7.942  12.243  0.00  0.00    +0.000 NA
ATOM     11  C   UNL     1      44.703   5.106  11.099  0.00  0.00    +0.000 C 
ATOM     12  C   UNL     1      44.244   4.033  12.131  0.00  0.00    +0.000 C 
ATOM     13  C   UNL     1      43.326   4.677  13.185  0.00  0.00    +0.000 C 
ATOM     14  C   UNL     1      43.419   2.969  11.379  0.00  0.00    +0.000 C 
ATOM     15  N   UNL     1      45.379   3.300  12.773  0.00  0.00    +0.000 NA
ATOM     16  H   UNL     1      45.781   2.694  12.055  0.00  0.00    +0.000 HD
ENDROOT
BRANCH   9  17
ATOM     17  C   UNL     1      48.085   9.915  12.430  0.00  0.00    +0.000 C 
ATOM     18  C   UNL     1      48.131  11.427  12.352  0.00  0.00    +0.000 C 
ATOM     19  C   UNL     1      48.719  10.643  11.229  0.00  0.00    +0.000 C 
BRANCH  17  20
ATOM     20  N   UNL     1      49.072   9.032  13.064  0.00  0.00    +0.000 N 
ATOM     21  H   UNL     1      49.494   8.378  12.408  0.00  0.00    +0.000 HD
BRANCH  20  22
ATOM     22  C   UNL     1      49.024   8.507  14.363  0.00  0.00    +0.000 A 
ATOM     23  C   UNL     1      49.264   7.165  14.686  0.00  0.00    +0.000 A 
ATOM     24  C   UNL     1      49.104   6.708  16.004  0.00  0.00    +0.000 A 
ATOM     25  C   UNL     1      48.690   7.589  17.011  0.00  0.00    +0.000 A 
ATOM     26  C   UNL     1      48.401   8.915  16.690  0.00  0.00    +0.000 A 
ATOM     27  C   UNL     1      48.562   9.363  15.374  0.00  0.00    +0.000 A 
BRANCH  25  28
ATOM     28  C   UNL     1      48.517   7.076  18.395  0.00  0.00    +0.000 C 
ATOM     29  N   UNL     1      47.266   6.664  18.761  0.00  0.00    +0.000 N 
ATOM     30  O   UNL     1      49.447   7.043  19.189  0.00  0.00    +0.000 OA
ATOM     31  H   UNL     1      46.434   6.868  18.228  0.00  0.00    +0.000 HD
ATOM     32  H   UNL     1      47.147   6.375  19.725  0.00  0.00    +0.000 HD
ENDBRANCH  25  28
ENDBRANCH  20  22
ENDBRANCH  17  20
ENDBRANCH   9  17
TORSDOF 4
ENDMDL
MODEL 7
REMARK VINA RESULT:    -6.325      4.400      6.436
REMARK INTER + INTRA:          -7.763
REMARK INTER:                  -7.242
REMARK INTRA:                  -0.521
REMARK UNBOUND:                 0.040
REMARK  Name = 
REMARK  7 active torsions:
REMARK  status: ('A' for Active; 'I' for Inactive)
REMARK    1  A    between atoms: C_1  and  C_2
REMARK    2  A    between atoms: C_9  and  C_10
REMARK    3  A    between atoms: C_10  and  N_11
REMARK    4  A    between atoms: N_11  and  C_12
REMARK    5  A    between atoms: C_15  and  C_16
REMARK    6  A    between atoms: C_25  and  C_26
REMARK    7  A    between atoms: C_25  and  C_27
REMARK                            x       y       z     vdW  Elec       q    Type
REMARK                         _______ _______ _______ _____ _____    ______ ____
ROOT
ATOM      1  C   UNL     1      53.390   7.823  18.218  0.00  0.00    +0.000 C 
ATOM      2  C   UNL     1      53.989   6.586  17.544  0.00  0.00    +0.000 C 
ATOM      3  C   UNL     1      53.000   5.926  16.554  0.00  0.00    +0.000 C 
ATOM      4  N   UNL     1      52.066   5.060  17.267  0.00  0.00    +0.000 N 
ATOM      5  C   UNL     1      50.723   5.282  17.196  0.00  0.00    +0.000 A 
ATOM      6  N   UNL     1      49.859   4.590  17.949  0.00  0.00    +0.000 NA
ATOM      7  C   UNL     1      48.549   4.796  17.721  0.00  0.00    +0.000 A 
ATOM      8  C   UNL     1      48.066   5.624  16.736  0.00  0.00    +0.000 A 
ATOM      9  C   UNL     1      49.017   6.285  15.991  0.00  0.00    +0.000 A 
ATOM     10  N   UNL     1      50.321   6.161  16.282  0.00  0.00    +0.000 NA
ATOM     11  C   UNL     1      52.641   4.044  18.125  0.00  0.00    +0.000 C 
ATOM     12  C   UNL     1      53.621   4.697  19.146  0.00  0.00    +0.000 C 
ATOM     13  C   UNL     1      52.826   5.382  20.272  0.00  0.00    +0.000 C 
ATOM     14  C   UNL     1      54.464   3.575  19.784  0.00  0.00    +0.000 C 
ATOM     15  N   UNL     1      54.595   5.642  18.516  0.00  0.00    +0.000 NA
ATOM     16  H   UNL     1      55.252   5.071  17.979  0.00  0.00    +0.000 HD
ENDROOT
BRANCH   9  17
ATOM     17  C   UNL     1      48.696   7.087  14.732  0.00  0.00    +0.000 C 
ATOM     18  C   UNL     1      49.886   7.475  13.880  0.00  0.00    +0.000 C 
ATOM     19  C   UNL     1      49.216   8.537  14.683  0.00  0.00    +0.000 C 
BRANCH  17  20
ATOM     20  N   UNL     1      47.289   7.040  14.317  0.00  0.00    +0.000 N 
ATOM     21  H   UNL     1      46.644   7.096  15.103  0.00  0.00    +0.000 HD
BRANCH  20  22
ATOM     22  C   UNL     1      46.747   6.308  13.250  0.00  0.00    +0.000 A 
ATOM     23  C   UNL     1      46.699   6.756  11.923  0.00  0.00    +0.000 A 
ATOM     24  C   UNL     1      46.055   5.994  10.936  0.00  0.00    +0.000 A 
ATOM     25  C   UNL     1      45.441   4.780  11.269  0.00  0.00    +0.000 A 
ATOM     26  C   UNL     1      45.442   4.350  12.596  0.00  0.00    +0.000 A 
ATOM     27  C   UNL     1      46.084   5.115  13.575  0.00  0.00    +0.000 A 
BRANCH  25  28
ATOM     28  C   UNL     1      44.756   3.999  10.206  0.00  0.00    +0.000 C 
ATOM     29  N   UNL     1      44.079   4.701   9.248  0.00  0.00    +0.000 N 
ATOM     30  O   UNL     1      44.773   2.776  10.195  0.00  0.00    +0.000 OA
ATOM     31  H   UNL     1      43.854   5.681   9.330  0.00  0.00    +0.000 HD
ATOM     32  H   UNL     1      43.564   4.157   8.565  0.00  0.00    +0.000 HD
ENDBRANCH  25  28
ENDBRANCH  20  22
ENDBRANCH  17  20
ENDBRANCH   9  17
TORSDOF 4
ENDMDL
MODEL 8
REMARK VINA RESULT:    -5.987      3.769      6.084
REMARK INTER + INTRA:          -7.346
REMARK INTER:                  -7.548
REMARK INTRA:                   0.201
REMARK UNBOUND:                 0.040
REMARK  Name = 
REMARK  7 active torsions:
REMARK  status: ('A' for Active; 'I' for Inactive)
REMARK    1  A    between atoms: C_1  and  C_2
REMARK    2  A    between atoms: C_9  and  C_10
REMARK    3  A    between atoms: C_10  and  N_11
REMARK    4  A    between atoms: N_11  and  C_12
REMARK    5  A    between atoms: C_15  and  C_16
REMARK    6  A    between atoms: C_25  and  C_26
REMARK    7  A    between atoms: C_25  and  C_27
REMARK                            x       y       z     vdW  Elec       q    Type
REMARK                         _______ _______ _______ _____ _____    ______ ____
ROOT
ATOM      1  C   UNL     1      53.023   5.848  16.640  0.00  0.00    +0.000 C 
ATOM      2  C   UNL     1      52.078   5.026  17.519  0.00  0.00    +0.000 C 
ATOM      3  C   UNL     1      50.592   5.268  17.163  0.00  0.00    +0.000 C 
ATOM      4  N   UNL     1      50.104   6.481  17.809  0.00  0.00    +0.000 N 
ATOM      5  C   UNL     1      49.607   7.511  17.066  0.00  0.00    +0.000 A 
ATOM      6  N   UNL     1      49.285   8.684  17.624  0.00  0.00    +0.000 NA
ATOM      7  C   UNL     1      48.691   9.595  16.832  0.00  0.00    +0.000 A 
ATOM      8  C   UNL     1      48.358   9.363  15.519  0.00  0.00    +0.000 A 
ATOM      9  C   UNL     1      48.706   8.127  15.023  0.00  0.00    +0.000 A 
ATOM     10  N   UNL     1      49.388   7.254  15.779  0.00  0.00    +0.000 NA
ATOM     11  C   UNL     1      50.277   6.573  19.245  0.00  0.00    +0.000 C 
ATOM     12  C   UNL     1      51.775   6.357  19.618  0.00  0.00    +0.000 C 
ATOM     13  C   UNL     1      52.582   7.629  19.309  0.00  0.00    +0.000 C 
ATOM     14  C   UNL     1      51.857   6.107  21.137  0.00  0.00    +0.000 C 
ATOM     15  N   UNL     1      52.383   5.155  18.966  0.00  0.00    +0.000 NA
ATOM     16  H   UNL     1      51.969   4.336  19.414  0.00  0.00    +0.000 HD
ENDROOT
BRANCH   9  17
ATOM     17  C   UNL     1      48.251   7.605  13.662  0.00  0.00    +0.000 C 
ATOM     18  C   UNL     1      49.354   7.348  12.655  0.00  0.00    +0.000 C 
ATOM     19  C   UNL     1      48.474   8.534  12.453  0.00  0.00    +0.000 C 
BRANCH  17  20
ATOM     20  N   UNL     1      46.888   7.061  13.638  0.00  0.00    +0.000 N 
ATOM     21  H   UNL     1      46.542   6.822  14.565  0.00  0.00    +0.000 HD
BRANCH  20  22
ATOM     22  C   UNL     1      46.321   6.247  12.647  0.00  0.00    +0.000 A 
ATOM     23  C   UNL     1      46.047   6.664  11.337  0.00  0.00    +0.000 A 
ATOM     24  C   UNL     1      45.394   5.808  10.437  0.00  0.00    +0.000 A 
ATOM     25  C   UNL     1      44.996   4.527  10.843  0.00  0.00    +0.000 A 
ATOM     26  C   UNL     1      45.220   4.121  12.159  0.00  0.00    +0.000 A 
ATOM     27  C   UNL     1      45.871   4.980  13.050  0.00  0.00    +0.000 A 
BRANCH  25  28
ATOM     28  C   UNL     1      44.295   3.646   9.873  0.00  0.00    +0.000 C 
ATOM     29  N   UNL     1      44.130   4.117   8.600  0.00  0.00    +0.000 N 
ATOM     30  O   UNL     1      43.858   2.550  10.200  0.00  0.00    +0.000 OA
ATOM     31  H   UNL     1      44.274   5.081   8.340  0.00  0.00    +0.000 HD
ATOM     32  H   UNL     1      43.597   3.534   7.965  0.00  0.00    +0.000 HD
ENDBRANCH  25  28
ENDBRANCH  20  22
ENDBRANCH  17  20
ENDBRANCH   9  17
TORSDOF 4
ENDMDL
MODEL 9
REMARK VINA RESULT:    -5.703      3.137      7.000
REMARK INTER + INTRA:          -6.996
REMARK INTER:                  -6.417
REMARK INTRA:                  -0.579
REMARK UNBOUND:                 0.040
REMARK  Name = 
REMARK  7 active torsions:
REMARK  status: ('A' for Active; 'I' for Inactive)
REMARK    1  A    between atoms: C_1  and  C_2
REMARK    2  A    between atoms: C_9  and  C_10
REMARK    3  A    between atoms: C_10  and  N_11
REMARK    4  A    between atoms: N_11  and  C_12
REMARK    5  A    between atoms: C_15  and  C_16
REMARK    6  A    between atoms: C_25  and  C_26
REMARK    7  A    between atoms: C_25  and  C_27
REMARK                            x       y       z     vdW  Elec       q    Type
REMARK                         _______ _______ _______ _____ _____    ______ ____
ROOT
ATOM      1  C   UNL     1      46.362   4.398  14.844  0.00  0.00    +0.000 C 
ATOM      2  C   UNL     1      46.673   3.850  13.448  0.00  0.00    +0.000 C 
ATOM      3  C   UNL     1      47.225   4.943  12.503  0.00  0.00    +0.000 C 
ATOM      4  N   UNL     1      46.132   5.722  11.931  0.00  0.00    +0.000 N 
ATOM      5  C   UNL     1      46.066   7.070  12.125  0.00  0.00    +0.000 A 
ATOM      6  N   UNL     1      45.003   7.782  11.730  0.00  0.00    +0.000 NA
ATOM      7  C   UNL     1      45.082   9.120  11.857  0.00  0.00    +0.000 A 
ATOM      8  C   UNL     1      46.199   9.778  12.313  0.00  0.00    +0.000 A 
ATOM      9  C   UNL     1      47.257   8.978  12.682  0.00  0.00    +0.000 A 
ATOM     10  N   UNL     1      47.145   7.641  12.653  0.00  0.00    +0.000 NA
ATOM     11  C   UNL     1      45.085   4.983  11.255  0.00  0.00    +0.000 C 
ATOM     12  C   UNL     1      44.501   3.894  12.204  0.00  0.00    +0.000 C 
ATOM     13  C   UNL     1      43.556   4.544  13.230  0.00  0.00    +0.000 C 
ATOM     14  C   UNL     1      43.665   2.917  11.353  0.00  0.00    +0.000 C 
ATOM     15  N   UNL     1      45.549   3.066  12.878  0.00  0.00    +0.000 NA
ATOM     16  H   UNL     1      45.961   2.470  12.157  0.00  0.00    +0.000 HD
ENDROOT
BRANCH   9  17
ATOM     17  C   UNL     1      48.645   9.516  13.021  0.00  0.00    +0.000 C 
ATOM     18  C   UNL     1      49.195   9.108  14.373  0.00  0.00    +0.000 C 
ATOM     19  C   UNL     1      48.734  10.514  14.192  0.00  0.00    +0.000 C 
BRANCH  17  20
ATOM     20  N   UNL     1      49.408  10.016  11.871  0.00  0.00    +0.000 N 
ATOM     21  H   UNL     1      48.821  10.486  11.184  0.00  0.00    +0.000 HD
BRANCH  20  22
ATOM     22  C   UNL     1      50.527   9.418  11.276  0.00  0.00    +0.000 A 
ATOM     23  C   UNL     1      51.555  10.121  10.633  0.00  0.00    +0.000 A 
ATOM     24  C   UNL     1      52.593   9.434   9.985  0.00  0.00    +0.000 A 
ATOM     25  C   UNL     1      52.607   8.033   9.963  0.00  0.00    +0.000 A 
ATOM     26  C   UNL     1      51.563   7.325  10.558  0.00  0.00    +0.000 A 
ATOM     27  C   UNL     1      50.531   8.016  11.201  0.00  0.00    +0.000 A 
BRANCH  25  28
ATOM     28  C   UNL     1      53.711   7.331   9.259  0.00  0.00    +0.000 C 
ATOM     29  N   UNL     1      54.826   8.061   8.952  0.00  0.00    +0.000 N 
ATOM     30  O   UNL     1      53.625   6.152   8.942  0.00  0.00    +0.000 OA
ATOM     31  H   UNL     1      54.861   9.068   8.994  0.00  0.00    +0.000 HD
ATOM     32  H   UNL     1      55.546   7.588   8.418  0.00  0.00    +0.000 HD
ENDBRANCH  25  28
ENDBRANCH  20  22
ENDBRANCH  17  20
ENDBRANCH   9  17
TORSDOF 4
ENDMDL
