MODEL 1
REMARK VINA RESULT:    -9.080      0.000      0.000
REMARK INTER + INTRA:         -12.018
REMARK INTER:                 -11.203
REMARK INTRA:                  -0.814
REMARK UNBOUND:                -0.814
REMARK  Name = 
REMARK  4 active torsions:
REMARK  status: ('A' for Active; 'I' for Inactive)
REMARK    1  A    between atoms: C_2  and  C_4
REMARK    2  A    between atoms: N_8  and  C_9
REMARK    3  A    between atoms: C_9  and  C_10
REMARK    4  A    between atoms: C_15  and  C_16
REMARK                            x       y       z     vdW  Elec       q    Type
REMARK                         _______ _______ _______ _____ _____    ______ ____
ROOT
ATOM      1  C   UNL     1      43.462   4.833  11.035  0.00  0.00    +0.000 C 
ENDROOT
BRANCH   1   6
ATOM      2  C   UNL     1      46.380   2.255   7.672  0.00  0.00    +0.000 A 
ATOM      3  C   UNL     1      45.723   1.795   8.810  0.00  0.00    +0.000 A 
ATOM      4  C   UNL     1      44.883   2.663   9.505  0.00  0.00    +0.000 A 
ATOM      5  C   UNL     1      44.725   3.974   9.070  0.00  0.00    +0.000 A 
ATOM      6  N   UNL     1      43.831   4.854   9.634  0.00  0.00    +0.000 N 
ATOM      7  N   UNL     1      45.385   4.437   7.990  0.00  0.00    +0.000 NA
ATOM      8  C   UNL     1      46.202   3.581   7.320  0.00  0.00    +0.000 A 
ATOM      9  H   UNL     1      43.964   5.768   9.214  0.00  0.00    +0.000 HD
BRANCH   2  11
ATOM     10  N   UNL     1      48.297   1.972   6.218  0.00  0.00    +0.000 N 
ATOM     11  C   UNL     1      47.232   1.380   6.846  0.00  0.00    +0.000 C 
ATOM     12  O   UNL     1      47.028   0.178   6.756  0.00  0.00    +0.000 OA
ATOM     13  H   UNL     1      48.943   1.357   5.739  0.00  0.00    +0.000 HD
ATOM     14  H   UNL     1      48.635   2.888   6.479  0.00  0.00    +0.000 HD
ENDBRANCH   2  11
ENDBRANCH   1   6
BRANCH   1  15
ATOM     15  C   UNL     1      44.596   5.261  11.933  0.00  0.00    +0.000 A 
ATOM     16  C   UNL     1      44.963   4.478  13.030  0.00  0.00    +0.000 A 
ATOM     17  C   UNL     1      46.052   4.846  13.806  0.00  0.00    +0.000 A 
ATOM     18  F   UNL     1      46.407   4.079  14.845  0.00  0.00    +0.000 F 
ATOM     19  C   UNL     1      46.791   5.990  13.521  0.00  0.00    +0.000 A 
ATOM     20  C   UNL     1      46.445   6.820  12.443  0.00  0.00    +0.000 A 
ATOM     21  C   UNL     1      45.341   6.423  11.654  0.00  0.00    +0.000 A 
BRANCH  20  22
ATOM     22  C   UNL     1      47.191   8.061  12.137  0.00  0.00    +0.000 A 
ATOM     23  C   UNL     1      48.566   8.075  11.891  0.00  0.00    +0.000 A 
ATOM     24  C   UNL     1      49.210   9.288  11.652  0.00  0.00    +0.000 A 
ATOM     25  C   UNL     1      48.472  10.461  11.658  0.00  0.00    +0.000 A 
ATOM     26  C   UNL     1      47.113  10.371  11.899  0.00  0.00    +0.000 A 
ATOM     27  N   UNL     1      46.464   9.208  12.139  0.00  0.00    +0.000 NA
ENDBRANCH  20  22
ENDBRANCH   1  15
TORSDOF 4
ENDMDL
MODEL 2
REMARK VINA RESULT:    -8.568      2.442      3.854
REMARK INTER + INTRA:         -11.386
REMARK INTER:                 -10.591
REMARK INTRA:                  -0.795
REMARK UNBOUND:                -0.814
REMARK  Name = 
REMARK  4 active torsions:
REMARK  status: ('A' for Active; 'I' for Inactive)
REMARK    1  A    between atoms: C_2  and  C_4
REMARK    2  A    between atoms: N_8  and  C_9
REMARK    3  A    between atoms: C_9  and  C_10
REMARK    4  A    between atoms: C_15  and  C_16
REMARK                            x       y       z     vdW  Elec       q    Type
REMARK                         _______ _______ _______ _____ _____    ______ ____
ROOT
ATOM      1  C   UNL     1      44.242   5.075  11.286  0.00  0.00    +0.000 C 
ENDROOT
BRANCH   1   6
ATOM      2  C   UNL     1      46.550   2.387   7.555  0.00  0.00    +0.000 A 
ATOM      3  C   UNL     1      45.999   1.945   8.754  0.00  0.00    +0.000 A 
ATOM      4  C   UNL     1      45.312   2.851   9.559  0.00  0.00    +0.000 A 
ATOM      5  C   UNL     1      45.200   4.181   9.170  0.00  0.00    +0.000 A 
ATOM      6  N   UNL     1      44.444   5.106   9.851  0.00  0.00    +0.000 N 
ATOM      7  N   UNL     1      45.760   4.625   8.027  0.00  0.00    +0.000 NA
ATOM      8  C   UNL     1      46.428   3.731   7.250  0.00  0.00    +0.000 A 
ATOM      9  H   UNL     1      44.593   6.020   9.435  0.00  0.00    +0.000 HD
BRANCH   2  11
ATOM     10  N   UNL     1      48.207   2.026   5.825  0.00  0.00    +0.000 N 
ATOM     11  C   UNL     1      47.233   1.476   6.618  0.00  0.00    +0.000 C 
ATOM     12  O   UNL     1      46.975   0.282   6.576  0.00  0.00    +0.000 OA
ATOM     13  H   UNL     1      48.750   1.384   5.260  0.00  0.00    +0.000 HD
ATOM     14  H   UNL     1      48.613   2.931   6.020  0.00  0.00    +0.000 HD
ENDBRANCH   2  11
ENDBRANCH   1   6
BRANCH   1  15
ATOM     15  C   UNL     1      45.407   5.663  12.042  0.00  0.00    +0.000 A 
ATOM     16  C   UNL     1      45.944   6.897  11.668  0.00  0.00    +0.000 A 
ATOM     17  C   UNL     1      46.968   7.458  12.415  0.00  0.00    +0.000 A 
ATOM     18  F   UNL     1      47.465   8.650  12.059  0.00  0.00    +0.000 F 
ATOM     19  C   UNL     1      47.485   6.814  13.536  0.00  0.00    +0.000 A 
ATOM     20  C   UNL     1      46.992   5.562  13.936  0.00  0.00    +0.000 A 
ATOM     21  C   UNL     1      45.940   5.010  13.171  0.00  0.00    +0.000 A 
BRANCH  20  22
ATOM     22  C   UNL     1      47.546   4.837  15.101  0.00  0.00    +0.000 A 
ATOM     23  C   UNL     1      48.213   5.482  16.145  0.00  0.00    +0.000 A 
ATOM     24  C   UNL     1      48.747   4.731  17.191  0.00  0.00    +0.000 A 
ATOM     25  C   UNL     1      48.601   3.352  17.178  0.00  0.00    +0.000 A 
ATOM     26  C   UNL     1      47.921   2.781  16.118  0.00  0.00    +0.000 A 
ATOM     27  N   UNL     1      47.398   3.487  15.089  0.00  0.00    +0.000 NA
ENDBRANCH  20  22
ENDBRANCH   1  15
TORSDOF 4
ENDMDL
MODEL 3
REMARK VINA RESULT:    -8.133      1.995      2.517
REMARK INTER + INTRA:         -10.849
REMARK INTER:                 -10.167
REMARK INTRA:                  -0.681
REMARK UNBOUND:                -0.814
REMARK  Name = 
REMARK  4 active torsions:
REMARK  status: ('A' for Active; 'I' for Inactive)
REMARK    1  A    between atoms: C_2  and  C_4
REMARK    2  A    between atoms: N_8  and  C_9
REMARK    3  A    between atoms: C_9  and  C_10
REMARK    4  A    between atoms: C_15  and  C_16
REMARK                            x       y       z     vdW  Elec       q    Type
REMARK                         _______ _______ _______ _____ _____    ______ ____
ROOT
ATOM      1  C   UNL     1      43.442   3.997  11.140  0.00  0.00    +0.000 C 
ENDROOT
BRANCH   1   6
ATOM      2  C   UNL     1      46.578   2.545   7.329  0.00  0.00    +0.000 A 
ATOM      3  C   UNL     1      46.277   3.823   7.791  0.00  0.00    +0.000 A 
ATOM      4  C   UNL     1      45.485   3.964   8.928  0.00  0.00    +0.000 A 
ATOM      5  C   UNL     1      44.990   2.838   9.574  0.00  0.00    +0.000 A 
ATOM      6  N   UNL     1      44.298   2.891  10.761  0.00  0.00    +0.000 N 
ATOM      7  N   UNL     1      45.247   1.597   9.114  0.00  0.00    +0.000 NA
ATOM      8  C   UNL     1      46.021   1.472   8.003  0.00  0.00    +0.000 A 
ATOM      9  H   UNL     1      43.960   1.960  10.985  0.00  0.00    +0.000 HD
BRANCH   2  11
ATOM     10  N   UNL     1      47.283   3.128   5.086  0.00  0.00    +0.000 N 
ATOM     11  C   UNL     1      47.463   2.312   6.174  0.00  0.00    +0.000 C 
ATOM     12  O   UNL     1      48.343   1.463   6.195  0.00  0.00    +0.000 OA
ATOM     13  H   UNL     1      47.958   3.041   4.336  0.00  0.00    +0.000 HD
ATOM     14  H   UNL     1      46.755   3.988   5.139  0.00  0.00    +0.000 HD
ENDBRANCH   2  11
ENDBRANCH   1   6
BRANCH   1  15
ATOM     15  C   UNL     1      44.214   5.132  11.764  0.00  0.00    +0.000 A 
ATOM     16  C   UNL     1      45.195   4.877  12.725  0.00  0.00    +0.000 A 
ATOM     17  C   UNL     1      45.945   5.924  13.239  0.00  0.00    +0.000 A 
ATOM     18  F   UNL     1      46.896   5.668  14.147  0.00  0.00    +0.000 F 
ATOM     19  C   UNL     1      45.740   7.236  12.822  0.00  0.00    +0.000 A 
ATOM     20  C   UNL     1      44.749   7.543  11.875  0.00  0.00    +0.000 A 
ATOM     21  C   UNL     1      44.002   6.463  11.352  0.00  0.00    +0.000 A 
BRANCH  20  22
ATOM     22  C   UNL     1      44.484   8.932  11.439  0.00  0.00    +0.000 A 
ATOM     23  C   UNL     1      45.309  10.004  11.787  0.00  0.00    +0.000 A 
ATOM     24  C   UNL     1      44.974  11.293  11.377  0.00  0.00    +0.000 A 
ATOM     25  C   UNL     1      43.826  11.488  10.625  0.00  0.00    +0.000 A 
ATOM     26  C   UNL     1      43.061  10.380  10.309  0.00  0.00    +0.000 A 
ATOM     27  N   UNL     1      43.361   9.120  10.699  0.00  0.00    +0.000 NA
ENDBRANCH  20  22
ENDBRANCH   1  15
TORSDOF 4
ENDMDL
MODEL 4
REMARK VINA RESULT:    -7.979      2.492      3.481
REMARK INTER + INTRA:         -10.660
REMARK INTER:                 -10.043
REMARK INTRA:                  -0.617
REMARK UNBOUND:                -0.814
REMARK  Name = 
REMARK  4 active torsions:
REMARK  status: ('A' for Active; 'I' for Inactive)
REMARK    1  A    between atoms: C_2  and  C_4
REMARK    2  A    between atoms: N_8  and  C_9
REMARK    3  A    between atoms: C_9  and  C_10
REMARK    4  A    between atoms: C_15  and  C_16
REMARK                            x       y       z     vdW  Elec       q    Type
REMARK                         _______ _______ _______ _____ _____    ______ ____
ROOT
ATOM      1  C   UNL     1      43.608   3.790  11.070  0.00  0.00    +0.000 C 
ENDROOT
BRANCH   1   6
ATOM      2  C   UNL     1      46.714   2.513   7.173  0.00  0.00    +0.000 A 
ATOM      3  C   UNL     1      46.418   3.769   7.695  0.00  0.00    +0.000 A 
ATOM      4  C   UNL     1      45.634   3.858   8.843  0.00  0.00    +0.000 A 
ATOM      5  C   UNL     1      45.143   2.703   9.441  0.00  0.00    +0.000 A 
ATOM      6  N   UNL     1      44.460   2.702  10.634  0.00  0.00    +0.000 N 
ATOM      7  N   UNL     1      45.396   1.485   8.922  0.00  0.00    +0.000 NA
ATOM      8  C   UNL     1      46.161   1.411   7.801  0.00  0.00    +0.000 A 
ATOM      9  H   UNL     1      44.123   1.763  10.817  0.00  0.00    +0.000 HD
BRANCH   2  11
ATOM     10  N   UNL     1      47.409   3.203   4.957  0.00  0.00    +0.000 N 
ATOM     11  C   UNL     1      47.591   2.333   6.001  0.00  0.00    +0.000 C 
ATOM     12  O   UNL     1      48.465   1.479   5.974  0.00  0.00    +0.000 OA
ATOM     13  H   UNL     1      48.079   3.150   4.199  0.00  0.00    +0.000 HD
ATOM     14  H   UNL     1      46.887   4.062   5.057  0.00  0.00    +0.000 HD
ENDBRANCH   2  11
ENDBRANCH   1   6
BRANCH   1  15
ATOM     15  C   UNL     1      44.395   4.939  11.647  0.00  0.00    +0.000 A 
ATOM     16  C   UNL     1      44.197   6.240  11.177  0.00  0.00    +0.000 A 
ATOM     17  C   UNL     1      44.875   7.296  11.765  0.00  0.00    +0.000 A 
ATOM     18  F   UNL     1      44.666   8.542  11.319  0.00  0.00    +0.000 F 
ATOM     19  C   UNL     1      45.763   7.092  12.817  0.00  0.00    +0.000 A 
ATOM     20  C   UNL     1      46.011   5.800  13.307  0.00  0.00    +0.000 A 
ATOM     21  C   UNL     1      45.302   4.736  12.706  0.00  0.00    +0.000 A 
BRANCH  20  22
ATOM     22  C   UNL     1      46.976   5.548  14.401  0.00  0.00    +0.000 A 
ATOM     23  C   UNL     1      46.924   4.408  15.207  0.00  0.00    +0.000 A 
ATOM     24  C   UNL     1      47.839   4.257  16.248  0.00  0.00    +0.000 A 
ATOM     25  C   UNL     1      48.790   5.243  16.462  0.00  0.00    +0.000 A 
ATOM     26  C   UNL     1      48.790   6.339  15.619  0.00  0.00    +0.000 A 
ATOM     27  N   UNL     1      47.910   6.512  14.606  0.00  0.00    +0.000 NA
ENDBRANCH  20  22
ENDBRANCH   1  15
TORSDOF 4
ENDMDL
MODEL 5
REMARK VINA RESULT:    -7.768      3.107      7.036
REMARK INTER + INTRA:         -10.398
REMARK INTER:                  -9.645
REMARK INTRA:                  -0.753
REMARK UNBOUND:                -0.814
REMARK  Name = 
REMARK  4 active torsions:
REMARK  status: ('A' for Active; 'I' for Inactive)
REMARK    1  A    between atoms: C_2  and  C_4
REMARK    2  A    between atoms: N_8  and  C_9
REMARK    3  A    between atoms: C_9  and  C_10
REMARK    4  A    between atoms: C_15  and  C_16
REMARK                            x       y       z     vdW  Elec       q    Type
REMARK                         _______ _______ _______ _____ _____    ______ ____
ROOT
ATOM      1  C   UNL     1      44.699   6.682  11.428  0.00  0.00    +0.000 C 
ENDROOT
BRANCH   1   6
ATOM      2  C   UNL     1      49.446   7.728  13.112  0.00  0.00    +0.000 A 
ATOM      3  C   UNL     1      48.804   8.152  11.953  0.00  0.00    +0.000 A 
ATOM      4  C   UNL     1      47.460   7.835  11.767  0.00  0.00    +0.000 A 
ATOM      5  C   UNL     1      46.783   7.088  12.724  0.00  0.00    +0.000 A 
ATOM      6  N   UNL     1      45.434   6.832  12.668  0.00  0.00    +0.000 N 
ATOM      7  N   UNL     1      47.407   6.644  13.834  0.00  0.00    +0.000 NA
ATOM      8  C   UNL     1      48.719   6.959  14.004  0.00  0.00    +0.000 A 
ATOM      9  H   UNL     1      45.190   6.195  13.418  0.00  0.00    +0.000 HD
BRANCH   2  11
ATOM     10  N   UNL     1      51.348   7.643  14.611  0.00  0.00    +0.000 N 
ATOM     11  C   UNL     1      50.846   8.080  13.412  0.00  0.00    +0.000 C 
ATOM     12  O   UNL     1      51.542   8.695  12.617  0.00  0.00    +0.000 OA
ATOM     13  H   UNL     1      52.337   7.789  14.771  0.00  0.00    +0.000 HD
ATOM     14  H   UNL     1      50.890   6.925  15.157  0.00  0.00    +0.000 HD
ENDBRANCH   2  11
ENDBRANCH   1   6
BRANCH   1  15
ATOM     15  C   UNL     1      44.599   5.242  10.991  0.00  0.00    +0.000 A 
ATOM     16  C   UNL     1      43.787   4.345  11.689  0.00  0.00    +0.000 A 
ATOM     17  C   UNL     1      43.650   3.042  11.235  0.00  0.00    +0.000 A 
ATOM     18  F   UNL     1      42.856   2.194  11.901  0.00  0.00    +0.000 F 
ATOM     19  C   UNL     1      44.313   2.599  10.094  0.00  0.00    +0.000 A 
ATOM     20  C   UNL     1      45.158   3.458   9.374  0.00  0.00    +0.000 A 
ATOM     21  C   UNL     1      45.276   4.787   9.843  0.00  0.00    +0.000 A 
BRANCH  20  22
ATOM     22  C   UNL     1      45.902   3.006   8.178  0.00  0.00    +0.000 A 
ATOM     23  C   UNL     1      46.404   1.709   8.046  0.00  0.00    +0.000 A 
ATOM     24  C   UNL     1      47.134   1.364   6.909  0.00  0.00    +0.000 A 
ATOM     25  C   UNL     1      47.346   2.317   5.925  0.00  0.00    +0.000 A 
ATOM     26  C   UNL     1      46.812   3.578   6.118  0.00  0.00    +0.000 A 
ATOM     27  N   UNL     1      46.105   3.940   7.213  0.00  0.00    +0.000 NA
ENDBRANCH  20  22
ENDBRANCH   1  15
TORSDOF 4
ENDMDL
MODEL 6
REMARK VINA RESULT:    -7.691      3.214      7.121
REMARK INTER + INTRA:         -10.304
REMARK INTER:                 -10.010
REMARK INTRA:                  -0.294
REMARK UNBOUND:                -0.814
REMARK  Name = 
REMARK  4 active torsions:
REMARK  status: ('A' for Active; 'I' for Inactive)
REMARK    1  A    between atoms: C_2  and  C_4
REMARK    2  A    between atoms: N_8  and  C_9
REMARK    3  A    between atoms: C_9  and  C_10
REMARK    4  A    between atoms: C_15  and  C_16
REMARK                            x       y       z     vdW  Elec       q    Type
REMARK                         _______ _______ _______ _____ _____    ______ ____
ROOT
ATOM      1  C   UNL     1      45.027   6.683  11.381  0.00  0.00    +0.000 C 
ENDROOT
BRANCH   1   6
ATOM      2  C   UNL     1      47.890   5.320  15.433  0.00  0.00    +0.000 A 
ATOM      3  C   UNL     1      46.857   4.630  14.806  0.00  0.00    +0.000 A 
ATOM      4  C   UNL     1      46.304   5.151  13.637  0.00  0.00    +0.000 A 
ATOM      5  C   UNL     1      46.773   6.354  13.123  0.00  0.00    +0.000 A 
ATOM      6  N   UNL     1      46.358   6.874  11.920  0.00  0.00    +0.000 N 
ATOM      7  N   UNL     1      47.749   7.046  13.743  0.00  0.00    +0.000 NA
ATOM      8  C   UNL     1      48.280   6.528  14.883  0.00  0.00    +0.000 A 
ATOM      9  H   UNL     1      46.764   7.797  11.805  0.00  0.00    +0.000 HD
BRANCH   2  11
ATOM     10  N   UNL     1      48.667   5.652  17.703  0.00  0.00    +0.000 N 
ATOM     11  C   UNL     1      48.570   4.800  16.633  0.00  0.00    +0.000 C 
ATOM     12  O   UNL     1      48.992   3.654  16.691  0.00  0.00    +0.000 OA
ATOM     13  H   UNL     1      49.037   5.264  18.562  0.00  0.00    +0.000 HD
ATOM     14  H   UNL     1      48.110   6.492  17.774  0.00  0.00    +0.000 HD
ENDBRANCH   2  11
ENDBRANCH   1   6
BRANCH   1  15
ATOM     15  C   UNL     1      44.800   5.272  10.899  0.00  0.00    +0.000 A 
ATOM     16  C   UNL     1      43.881   4.442  11.546  0.00  0.00    +0.000 A 
ATOM     17  C   UNL     1      43.631   3.172  11.050  0.00  0.00    +0.000 A 
ATOM     18  F   UNL     1      42.735   2.390  11.667  0.00  0.00    +0.000 F 
ATOM     19  C   UNL     1      44.284   2.694   9.917  0.00  0.00    +0.000 A 
ATOM     20  C   UNL     1      45.233   3.484   9.248  0.00  0.00    +0.000 A 
ATOM     21  C   UNL     1      45.466   4.781   9.759  0.00  0.00    +0.000 A 
BRANCH  20  22
ATOM     22  C   UNL     1      45.968   2.990   8.062  0.00  0.00    +0.000 A 
ATOM     23  C   UNL     1      46.458   1.686   7.966  0.00  0.00    +0.000 A 
ATOM     24  C   UNL     1      47.180   1.303   6.837  0.00  0.00    +0.000 A 
ATOM     25  C   UNL     1      47.396   2.225   5.824  0.00  0.00    +0.000 A 
ATOM     26  C   UNL     1      46.873   3.496   5.983  0.00  0.00    +0.000 A 
ATOM     27  N   UNL     1      46.174   3.895   7.070  0.00  0.00    +0.000 NA
ENDBRANCH  20  22
ENDBRANCH   1  15
TORSDOF 4
ENDMDL
MODEL 7
REMARK VINA RESULT:    -7.620      4.684      7.821
REMARK INTER + INTRA:         -10.216
REMARK INTER:                  -9.720
REMARK INTRA:                  -0.496
REMARK UNBOUND:                -0.814
REMARK  Name = 
REMARK  4 active torsions:
REMARK  status: ('A' for Active; 'I' for Inactive)
REMARK    1  A    between atoms: C_2  and  C_4
REMARK    2  A    between atoms: N_8  and  C_9
REMARK    3  A    between atoms: C_9  and  C_10
REMARK    4  A    between atoms: C_15  and  C_16
REMARK                            x       y       z     vdW  Elec       q    Type
REMARK                         _______ _______ _______ _____ _____    ______ ____
ROOT
ATOM      1  C   UNL     1      46.128   5.688  13.684  0.00  0.00    +0.000 C 
ENDROOT
BRANCH   1   6
ATOM      2  C   UNL     1      49.388   4.183  17.369  0.00  0.00    +0.000 A 
ATOM      3  C   UNL     1      49.129   5.461  16.883  0.00  0.00    +0.000 A 
ATOM      4  C   UNL     1      48.104   5.640  15.956  0.00  0.00    +0.000 A 
ATOM      5  C   UNL     1      47.368   4.546  15.514  0.00  0.00    +0.000 A 
ATOM      6  N   UNL     1      46.273   4.656  14.690  0.00  0.00    +0.000 N 
ATOM      7  N   UNL     1      47.635   3.300  15.953  0.00  0.00    +0.000 NA
ATOM      8  C   UNL     1      48.638   3.139  16.857  0.00  0.00    +0.000 A 
ATOM      9  H   UNL     1      45.964   3.725  14.431  0.00  0.00    +0.000 HD
BRANCH   2  11
ATOM     10  N   UNL     1      51.335   2.951  18.117  0.00  0.00    +0.000 N 
ATOM     11  C   UNL     1      50.410   3.923  18.399  0.00  0.00    +0.000 C 
ATOM     12  O   UNL     1      50.459   4.568  19.437  0.00  0.00    +0.000 OA
ATOM     13  H   UNL     1      52.099   2.846  18.774  0.00  0.00    +0.000 HD
ATOM     14  H   UNL     1      51.474   2.595  17.182  0.00  0.00    +0.000 HD
ENDBRANCH   2  11
ENDBRANCH   1   6
BRANCH   1  15
ATOM     15  C   UNL     1      45.204   5.274  12.566  0.00  0.00    +0.000 A 
ATOM     16  C   UNL     1      43.839   5.562  12.633  0.00  0.00    +0.000 A 
ATOM     17  C   UNL     1      43.013   5.238  11.568  0.00  0.00    +0.000 A 
ATOM     18  F   UNL     1      41.708   5.534  11.634  0.00  0.00    +0.000 F 
ATOM     19  C   UNL     1      43.512   4.621  10.424  0.00  0.00    +0.000 A 
ATOM     20  C   UNL     1      44.873   4.292  10.322  0.00  0.00    +0.000 A 
ATOM     21  C   UNL     1      45.704   4.640  11.412  0.00  0.00    +0.000 A 
BRANCH  20  22
ATOM     22  C   UNL     1      45.427   3.604   9.135  0.00  0.00    +0.000 A 
ATOM     23  C   UNL     1      45.505   2.213   9.035  0.00  0.00    +0.000 A 
ATOM     24  C   UNL     1      46.078   1.634   7.904  0.00  0.00    +0.000 A 
ATOM     25  C   UNL     1      46.559   2.452   6.893  0.00  0.00    +0.000 A 
ATOM     26  C   UNL     1      46.440   3.821   7.055  0.00  0.00    +0.000 A 
ATOM     27  N   UNL     1      45.893   4.407   8.144  0.00  0.00    +0.000 NA
ENDBRANCH  20  22
ENDBRANCH   1  15
TORSDOF 4
ENDMDL
MODEL 8
REMARK VINA RESULT:    -7.041      3.152      6.977
REMARK INTER + INTRA:          -9.502
REMARK INTER:                  -8.764
REMARK INTRA:                  -0.738
REMARK UNBOUND:                -0.814
REMARK  Name = 
REMARK  4 active torsions:
REMARK  status: ('A' for Active; 'I' for Inactive)
REMARK    1  A    between atoms: C_2  and  C_4
REMARK    2  A    between atoms: N_8  and  C_9
REMARK    3  A    between atoms: C_9  and  C_10
REMARK    4  A    between atoms: C_15  and  C_16
REMARK                            x       y       z     vdW  Elec       q    Type
REMARK                         _______ _______ _______ _____ _____    ______ ____
ROOT
ATOM      1  C   UNL     1      46.097   7.059  13.007  0.00  0.00    +0.000 C 
ENDROOT
BRANCH   1   6
ATOM      2  C   UNL     1      50.512   9.090  11.318  0.00  0.00    +0.000 A 
ATOM      3  C   UNL     1      50.163   7.755  11.500  0.00  0.00    +0.000 A 
ATOM      4  C   UNL     1      48.854   7.438  11.856  0.00  0.00    +0.000 A 
ATOM      5  C   UNL     1      47.921   8.451  12.043  0.00  0.00    +0.000 A 
ATOM      6  N   UNL     1      46.587   8.215  12.284  0.00  0.00    +0.000 N 
ATOM      7  N   UNL     1      48.258   9.748  11.903  0.00  0.00    +0.000 NA
ATOM      8  C   UNL     1      49.539  10.045  11.556  0.00  0.00    +0.000 A 
ATOM      9  H   UNL     1      46.129   9.099  12.479  0.00  0.00    +0.000 HD
BRANCH   2  11
ATOM     10  N   UNL     1      52.913   9.073  11.640  0.00  0.00    +0.000 N 
ATOM     11  C   UNL     1      51.857   9.500  10.876  0.00  0.00    +0.000 C 
ATOM     12  O   UNL     1      52.031  10.154   9.858  0.00  0.00    +0.000 OA
ATOM     13  H   UNL     1      53.841   9.261  11.281  0.00  0.00    +0.000 HD
ATOM     14  H   UNL     1      52.820   8.330  12.319  0.00  0.00    +0.000 HD
ENDBRANCH   2  11
ENDBRANCH   1   6
BRANCH   1  15
ATOM     15  C   UNL     1      45.187   6.200  12.166  0.00  0.00    +0.000 A 
ATOM     16  C   UNL     1      43.807   6.209  12.381  0.00  0.00    +0.000 A 
ATOM     17  C   UNL     1      42.975   5.468  11.555  0.00  0.00    +0.000 A 
ATOM     18  F   UNL     1      41.652   5.497  11.758  0.00  0.00    +0.000 F 
ATOM     19  C   UNL     1      43.486   4.702  10.511  0.00  0.00    +0.000 A 
ATOM     20  C   UNL     1      44.868   4.645  10.271  0.00  0.00    +0.000 A 
ATOM     21  C   UNL     1      45.700   5.416  11.114  0.00  0.00    +0.000 A 
BRANCH  20  22
ATOM     22  C   UNL     1      45.443   3.812   9.191  0.00  0.00    +0.000 A 
ATOM     23  C   UNL     1      45.429   2.416   9.225  0.00  0.00    +0.000 A 
ATOM     24  C   UNL     1      46.028   1.696   8.192  0.00  0.00    +0.000 A 
ATOM     25  C   UNL     1      46.625   2.381   7.145  0.00  0.00    +0.000 A 
ATOM     26  C   UNL     1      46.592   3.763   7.172  0.00  0.00    +0.000 A 
ATOM     27  N   UNL     1      46.023   4.486   8.164  0.00  0.00    +0.000 NA
ENDBRANCH  20  22
ENDBRANCH   1  15
TORSDOF 4
ENDMDL
MODEL 9
REMARK VINA RESULT:    -6.878      3.018      6.809
REMARK INTER + INTRA:          -9.301
REMARK INTER:                  -8.711
REMARK INTRA:                  -0.590
REMARK UNBOUND:                -0.814
REMARK  Name = 
REMARK  4 active torsions:
REMARK  status: ('A' for Active; 'I' for Inactive)
REMARK    1  A    between atoms: C_2  and  C_4
REMARK    2  A    between atoms: N_8  and  C_9
REMARK    3  A    between atoms: C_9  and  C_10
REMARK    4  A    between atoms: C_15  and  C_16
REMARK                            x       y       z     vdW  Elec       q    Type
REMARK                         _______ _______ _______ _____ _____    ______ ____
ROOT
ATOM      1  C   UNL     1      45.880   4.321  14.028  0.00  0.00    +0.000 C 
ENDROOT
BRANCH   1   6
ATOM      2  C   UNL     1      48.226   8.518  12.197  0.00  0.00    +0.000 A 
ATOM      3  C   UNL     1      46.959   8.385  12.759  0.00  0.00    +0.000 A 
ATOM      4  C   UNL     1      46.584   7.157  13.301  0.00  0.00    +0.000 A 
ATOM      5  C   UNL     1      47.462   6.081  13.259  0.00  0.00    +0.000 A 
ATOM      6  N   UNL     1      47.209   4.875  13.870  0.00  0.00    +0.000 N 
ATOM      7  N   UNL     1      48.677   6.191  12.686  0.00  0.00    +0.000 NA
ATOM      8  C   UNL     1      49.032   7.394  12.159  0.00  0.00    +0.000 A 
ATOM      9  H   UNL     1      47.945   4.223  13.622  0.00  0.00    +0.000 HD
BRANCH   2  11
ATOM     10  N   UNL     1      47.773  10.711  11.272  0.00  0.00    +0.000 N 
ATOM     11  C   UNL     1      48.721   9.800  11.664  0.00  0.00    +0.000 C 
ATOM     12  O   UNL     1      49.914  10.059  11.610  0.00  0.00    +0.000 OA
ATOM     13  H   UNL     1      48.107  11.630  11.007  0.00  0.00    +0.000 HD
ATOM     14  H   UNL     1      46.803  10.629  11.544  0.00  0.00    +0.000 HD
ENDBRANCH   2  11
ENDBRANCH   1   6
BRANCH   1  15
ATOM     15  C   UNL     1      45.085   4.363  12.747  0.00  0.00    +0.000 A 
ATOM     16  C   UNL     1      43.823   4.961  12.717  0.00  0.00    +0.000 A 
ATOM     17  C   UNL     1      43.133   5.055  11.518  0.00  0.00    +0.000 A 
ATOM     18  F   UNL     1      41.931   5.646  11.496  0.00  0.00    +0.000 F 
ATOM     19  C   UNL     1      43.668   4.559  10.333  0.00  0.00    +0.000 A 
ATOM     20  C   UNL     1      44.923   3.929  10.319  0.00  0.00    +0.000 A 
ATOM     21  C   UNL     1      45.618   3.853  11.548  0.00  0.00    +0.000 A 
BRANCH  20  22
ATOM     22  C   UNL     1      45.501   3.360   9.082  0.00  0.00    +0.000 A 
ATOM     23  C   UNL     1      45.726   1.992   8.912  0.00  0.00    +0.000 A 
ATOM     24  C   UNL     1      46.315   1.531   7.735  0.00  0.00    +0.000 A 
ATOM     25  C   UNL     1      46.664   2.442   6.750  0.00  0.00    +0.000 A 
ATOM     26  C   UNL     1      46.404   3.780   6.982  0.00  0.00    +0.000 A 
ATOM     27  N   UNL     1      45.839   4.254   8.116  0.00  0.00    +0.000 NA
ENDBRANCH  20  22
ENDBRANCH   1  15
TORSDOF 4
ENDMDL
