MODEL 1
REMARK VINA RESULT:    -8.527      0.000      0.000
REMARK INTER + INTRA:         -13.223
REMARK INTER:                 -12.016
REMARK INTRA:                  -1.207
REMARK UNBOUND:                -1.207
REMARK  Name = 
REMARK  7 active torsions:
REMARK  status: ('A' for Active; 'I' for Inactive)
REMARK    1  A    between atoms: C_2  and  C_4
REMARK    2  A    between atoms: C_7  and  N_8
REMARK    3  A    between atoms: N_8  and  C_9
REMARK    4  A    between atoms: C_9  and  C_10
REMARK    5  A    between atoms: C_10  and  C_13
REMARK    6  A    between atoms: C_17  and  C_18
REMARK    7  A    between atoms: C_18  and  C_19
REMARK                            x       y       z     vdW  Elec       q    Type
REMARK                         _______ _______ _______ _____ _____    ______ ____
ROOT
ATOM      1  C   UNL     1      43.906   4.806  12.447  0.00  0.00    +0.000 C 
ATOM      2  F   UNL     1      43.017   5.429  13.276  0.00  0.00    +0.000 F 
ATOM      3  F   UNL     1      43.775   3.471  12.715  0.00  0.00    +0.000 F 
ENDROOT
BRANCH   1   4
ATOM      4  C   UNL     1      45.323   5.305  12.648  0.00  0.00    +0.000 A 
ATOM      5  C   UNL     1      45.923   6.140  11.694  0.00  0.00    +0.000 A 
ATOM      6  C   UNL     1      47.197   6.657  11.917  0.00  0.00    +0.000 A 
ATOM      7  C   UNL     1      47.883   6.348  13.092  0.00  0.00    +0.000 A 
ATOM      8  C   UNL     1      47.305   5.516  14.060  0.00  0.00    +0.000 A 
ATOM      9  C   UNL     1      46.023   4.997  13.827  0.00  0.00    +0.000 A 
BRANCH   8  10
ATOM     10  C   UNL     1      48.046   5.197  15.337  0.00  0.00    +0.000 C 
BRANCH  10  11
ATOM     11  C   UNL     1      47.226   4.266  16.223  0.00  0.00    +0.000 C 
ATOM     12  C   UNL     1      47.164   4.563  17.733  0.00  0.00    +0.000 C 
ATOM     13  N   UNL     1      47.609   3.195  18.027  0.00  0.00    +0.000 NA
ATOM     14  C   UNL     1      47.944   2.962  16.617  0.00  0.00    +0.000 C 
ATOM     15  H   UNL     1      46.872   2.589  18.383  0.00  0.00    +0.000 HD
ENDBRANCH  10  11
ENDBRANCH   8  10
ENDBRANCH   1   4
BRANCH   1  16
ATOM     16  C   UNL     1      43.492   5.048  10.974  0.00  0.00    +0.000 C 
BRANCH  16  17
ATOM     17  N   UNL     1      43.469   3.828  10.152  0.00  0.00    +0.000 N 
ATOM     18  H   UNL     1      43.000   3.031  10.582  0.00  0.00    +0.000 HD
BRANCH  17  22
ATOM     19  C   UNL     1      46.594   2.659   7.576  0.00  0.00    +0.000 A 
ATOM     20  C   UNL     1      46.228   4.004   7.645  0.00  0.00    +0.000 A 
ATOM     21  C   UNL     1      45.212   4.407   8.516  0.00  0.00    +0.000 A 
ATOM     22  C   UNL     1      44.559   3.493   9.353  0.00  0.00    +0.000 A 
ATOM     23  C   UNL     1      44.932   2.146   9.262  0.00  0.00    +0.000 A 
ATOM     24  C   UNL     1      45.935   1.726   8.380  0.00  0.00    +0.000 A 
BRANCH  19  26
ATOM     25  N   UNL     1      47.938   3.000   5.574  0.00  0.00    +0.000 N 
ATOM     26  C   UNL     1      47.631   2.182   6.626  0.00  0.00    +0.000 C 
ATOM     27  O   UNL     1      48.204   1.114   6.783  0.00  0.00    +0.000 OA
ATOM     28  H   UNL     1      48.712   2.704   4.992  0.00  0.00    +0.000 HD
ATOM     29  H   UNL     1      47.680   3.977   5.551  0.00  0.00    +0.000 HD
ENDBRANCH  19  26
ENDBRANCH  17  22
ENDBRANCH  16  17
ENDBRANCH   1  16
TORSDOF 7
ENDMDL
MODEL 2
REMARK VINA RESULT:    -8.233      2.346      3.661
REMARK INTER + INTRA:         -12.810
REMARK INTER:                 -11.893
REMARK INTRA:                  -0.917
REMARK UNBOUND:                -1.207
REMARK  Name = 
REMARK  7 active torsions:
REMARK  status: ('A' for Active; 'I' for Inactive)
REMARK    1  A    between atoms: C_2  and  C_4
REMARK    2  A    between atoms: C_7  and  N_8
REMARK    3  A    between atoms: N_8  and  C_9
REMARK    4  A    between atoms: C_9  and  C_10
REMARK    5  A    between atoms: C_10  and  C_13
REMARK    6  A    between atoms: C_17  and  C_18
REMARK    7  A    between atoms: C_18  and  C_19
REMARK                            x       y       z     vdW  Elec       q    Type
REMARK                         _______ _______ _______ _____ _____    ______ ____
ROOT
ATOM      1  C   UNL     1      43.466   5.508  12.210  0.00  0.00    +0.000 C 
ATOM      2  F   UNL     1      42.994   6.675  11.681  0.00  0.00    +0.000 F 
ATOM      3  F   UNL     1      42.646   5.235  13.271  0.00  0.00    +0.000 F 
ENDROOT
BRANCH   1   4
ATOM      4  C   UNL     1      44.924   5.609  12.612  0.00  0.00    +0.000 A 
ATOM      5  C   UNL     1      45.469   4.708  13.537  0.00  0.00    +0.000 A 
ATOM      6  C   UNL     1      46.826   4.756  13.848  0.00  0.00    +0.000 A 
ATOM      7  C   UNL     1      47.651   5.703  13.239  0.00  0.00    +0.000 A 
ATOM      8  C   UNL     1      47.130   6.615  12.312  0.00  0.00    +0.000 A 
ATOM      9  C   UNL     1      45.762   6.561  12.006  0.00  0.00    +0.000 A 
BRANCH   8  10
ATOM     10  C   UNL     1      48.030   7.628  11.645  0.00  0.00    +0.000 C 
BRANCH  10  11
ATOM     11  C   UNL     1      47.946   8.977  12.349  0.00  0.00    +0.000 C 
ATOM     12  C   UNL     1      46.718   9.867  12.078  0.00  0.00    +0.000 C 
ATOM     13  N   UNL     1      47.598  10.981  11.707  0.00  0.00    +0.000 NA
ATOM     14  C   UNL     1      48.770  10.097  11.685  0.00  0.00    +0.000 C 
ATOM     15  H   UNL     1      47.649  11.719  12.408  0.00  0.00    +0.000 HD
ENDBRANCH  10  11
ENDBRANCH   8  10
ENDBRANCH   1   4
BRANCH   1  16
ATOM     16  C   UNL     1      43.308   4.371  11.170  0.00  0.00    +0.000 C 
BRANCH  16  17
ATOM     17  N   UNL     1      43.752   4.735   9.815  0.00  0.00    +0.000 N 
ATOM     18  H   UNL     1      43.016   5.086   9.204  0.00  0.00    +0.000 HD
BRANCH  17  22
ATOM     19  C   UNL     1      46.510   2.336   7.715  0.00  0.00    +0.000 A 
ATOM     20  C   UNL     1      46.508   3.716   7.513  0.00  0.00    +0.000 A 
ATOM     21  C   UNL     1      45.617   4.525   8.225  0.00  0.00    +0.000 A 
ATOM     22  C   UNL     1      44.731   3.986   9.167  0.00  0.00    +0.000 A 
ATOM     23  C   UNL     1      44.739   2.597   9.348  0.00  0.00    +0.000 A 
ATOM     24  C   UNL     1      45.613   1.774   8.628  0.00  0.00    +0.000 A 
BRANCH  19  26
ATOM     25  N   UNL     1      48.533   1.989   6.405  0.00  0.00    +0.000 N 
ATOM     26  C   UNL     1      47.403   1.437   6.941  0.00  0.00    +0.000 C 
ATOM     27  O   UNL     1      47.155   0.248   6.802  0.00  0.00    +0.000 OA
ATOM     28  H   UNL     1      49.176   1.345   5.963  0.00  0.00    +0.000 HD
ATOM     29  H   UNL     1      48.895   2.884   6.704  0.00  0.00    +0.000 HD
ENDBRANCH  19  26
ENDBRANCH  17  22
ENDBRANCH  16  17
ENDBRANCH   1  16
TORSDOF 7
ENDMDL
MODEL 3
REMARK VINA RESULT:    -8.013      2.273      2.772
REMARK INTER + INTRA:         -12.500
REMARK INTER:                 -11.466
REMARK INTRA:                  -1.034
REMARK UNBOUND:                -1.207
REMARK  Name = 
REMARK  7 active torsions:
REMARK  status: ('A' for Active; 'I' for Inactive)
REMARK    1  A    between atoms: C_2  and  C_4
REMARK    2  A    between atoms: C_7  and  N_8
REMARK    3  A    between atoms: N_8  and  C_9
REMARK    4  A    between atoms: C_9  and  C_10
REMARK    5  A    between atoms: C_10  and  C_13
REMARK    6  A    between atoms: C_17  and  C_18
REMARK    7  A    between atoms: C_18  and  C_19
REMARK                            x       y       z     vdW  Elec       q    Type
REMARK                         _______ _______ _______ _____ _____    ______ ____
ROOT
ATOM      1  C   UNL     1      43.067   4.924  12.325  0.00  0.00    +0.000 C 
ATOM      2  F   UNL     1      41.866   5.452  11.947  0.00  0.00    +0.000 F 
ATOM      3  F   UNL     1      42.879   4.477  13.604  0.00  0.00    +0.000 F 
ENDROOT
BRANCH   1   4
ATOM      4  C   UNL     1      44.194   5.932  12.219  0.00  0.00    +0.000 A 
ATOM      5  C   UNL     1      43.978   7.177  11.610  0.00  0.00    +0.000 A 
ATOM      6  C   UNL     1      44.993   8.129  11.580  0.00  0.00    +0.000 A 
ATOM      7  C   UNL     1      46.232   7.851  12.158  0.00  0.00    +0.000 A 
ATOM      8  C   UNL     1      46.474   6.614  12.771  0.00  0.00    +0.000 A 
ATOM      9  C   UNL     1      45.447   5.659  12.795  0.00  0.00    +0.000 A 
BRANCH   8  10
ATOM     10  C   UNL     1      47.812   6.323  13.408  0.00  0.00    +0.000 C 
BRANCH  10  11
ATOM     11  C   UNL     1      48.757   7.510  13.255  0.00  0.00    +0.000 C 
ATOM     12  C   UNL     1      49.846   7.441  12.169  0.00  0.00    +0.000 C 
ATOM     13  N   UNL     1      50.875   7.736  13.173  0.00  0.00    +0.000 NA
ATOM     14  C   UNL     1      49.918   7.537  14.267  0.00  0.00    +0.000 C 
ATOM     15  H   UNL     1      51.249   8.682  13.116  0.00  0.00    +0.000 HD
ENDBRANCH  10  11
ENDBRANCH   8  10
ENDBRANCH   1   4
BRANCH   1  16
ATOM     16  C   UNL     1      43.397   3.705  11.428  0.00  0.00    +0.000 C 
BRANCH  16  17
ATOM     17  N   UNL     1      43.488   4.025   9.995  0.00  0.00    +0.000 N 
ATOM     18  H   UNL     1      42.603   3.990   9.492  0.00  0.00    +0.000 HD
BRANCH  17  22
ATOM     19  C   UNL     1      46.651   2.653   7.569  0.00  0.00    +0.000 A 
ATOM     20  C   UNL     1      46.381   4.020   7.636  0.00  0.00    +0.000 A 
ATOM     21  C   UNL     1      45.353   4.489   8.459  0.00  0.00    +0.000 A 
ATOM     22  C   UNL     1      44.591   3.618   9.249  0.00  0.00    +0.000 A 
ATOM     23  C   UNL     1      44.869   2.248   9.159  0.00  0.00    +0.000 A 
ATOM     24  C   UNL     1      45.883   1.764   8.326  0.00  0.00    +0.000 A 
BRANCH  19  26
ATOM     25  N   UNL     1      48.052   2.872   5.588  0.00  0.00    +0.000 N 
ATOM     26  C   UNL     1      47.698   2.110   6.667  0.00  0.00    +0.000 C 
ATOM     27  O   UNL     1      48.241   1.036   6.886  0.00  0.00    +0.000 OA
ATOM     28  H   UNL     1      48.831   2.532   5.040  0.00  0.00    +0.000 HD
ATOM     29  H   UNL     1      47.818   3.853   5.516  0.00  0.00    +0.000 HD
ENDBRANCH  19  26
ENDBRANCH  17  22
ENDBRANCH  16  17
ENDBRANCH   1  16
TORSDOF 7
ENDMDL
MODEL 4
REMARK VINA RESULT:    -7.801      2.351      3.617
REMARK INTER + INTRA:         -12.200
REMARK INTER:                 -11.126
REMARK INTRA:                  -1.074
REMARK UNBOUND:                -1.207
REMARK  Name = 
REMARK  7 active torsions:
REMARK  status: ('A' for Active; 'I' for Inactive)
REMARK    1  A    between atoms: C_2  and  C_4
REMARK    2  A    between atoms: C_7  and  N_8
REMARK    3  A    between atoms: N_8  and  C_9
REMARK    4  A    between atoms: C_9  and  C_10
REMARK    5  A    between atoms: C_10  and  C_13
REMARK    6  A    between atoms: C_17  and  C_18
REMARK    7  A    between atoms: C_18  and  C_19
REMARK                            x       y       z     vdW  Elec       q    Type
REMARK                         _______ _______ _______ _____ _____    ______ ____
ROOT
ATOM      1  C   UNL     1      44.423   5.032  12.367  0.00  0.00    +0.000 C 
ATOM      2  F   UNL     1      43.396   5.412  13.182  0.00  0.00    +0.000 F 
ATOM      3  F   UNL     1      44.359   3.666  12.318  0.00  0.00    +0.000 F 
ENDROOT
BRANCH   1   4
ATOM      4  C   UNL     1      45.765   5.534  12.864  0.00  0.00    +0.000 A 
ATOM      5  C   UNL     1      46.277   5.091  14.092  0.00  0.00    +0.000 A 
ATOM      6  C   UNL     1      47.542   5.497  14.511  0.00  0.00    +0.000 A 
ATOM      7  C   UNL     1      48.307   6.346  13.711  0.00  0.00    +0.000 A 
ATOM      8  C   UNL     1      47.817   6.803  12.480  0.00  0.00    +0.000 A 
ATOM      9  C   UNL     1      46.541   6.392  12.066  0.00  0.00    +0.000 A 
BRANCH   8  10
ATOM     10  C   UNL     1      48.655   7.709  11.610  0.00  0.00    +0.000 C 
BRANCH  10  11
ATOM     11  C   UNL     1      50.113   7.695  12.056  0.00  0.00    +0.000 C 
ATOM     12  C   UNL     1      50.715   8.993  12.626  0.00  0.00    +0.000 C 
ATOM     13  N   UNL     1      51.813   8.918  11.656  0.00  0.00    +0.000 NA
ATOM     14  C   UNL     1      51.133   7.851  10.913  0.00  0.00    +0.000 C 
ATOM     15  H   UNL     1      52.704   8.638  12.061  0.00  0.00    +0.000 HD
ENDBRANCH  10  11
ENDBRANCH   8  10
ENDBRANCH   1   4
BRANCH   1  16
ATOM     16  C   UNL     1      44.178   5.581  10.940  0.00  0.00    +0.000 C 
BRANCH  16  17
ATOM     17  N   UNL     1      43.672   4.575   9.992  0.00  0.00    +0.000 N 
ATOM     18  H   UNL     1      42.868   4.043  10.322  0.00  0.00    +0.000 HD
BRANCH  17  22
ATOM     19  C   UNL     1      46.550   2.500   7.716  0.00  0.00    +0.000 A 
ATOM     20  C   UNL     1      45.643   1.781   8.496  0.00  0.00    +0.000 A 
ATOM     21  C   UNL     1      44.666   2.457   9.233  0.00  0.00    +0.000 A 
ATOM     22  C   UNL     1      44.553   3.853   9.191  0.00  0.00    +0.000 A 
ATOM     23  C   UNL     1      45.479   4.558   8.411  0.00  0.00    +0.000 A 
ATOM     24  C   UNL     1      46.473   3.894   7.683  0.00  0.00    +0.000 A 
BRANCH  19  26
ATOM     25  N   UNL     1      48.532   2.620   6.306  0.00  0.00    +0.000 N 
ATOM     26  C   UNL     1      47.634   1.823   6.961  0.00  0.00    +0.000 C 
ATOM     27  O   UNL     1      47.738   0.605   6.937  0.00  0.00    +0.000 OA
ATOM     28  H   UNL     1      49.317   2.147   5.877  0.00  0.00    +0.000 HD
ATOM     29  H   UNL     1      48.630   3.606   6.505  0.00  0.00    +0.000 HD
ENDBRANCH  19  26
ENDBRANCH  17  22
ENDBRANCH  16  17
ENDBRANCH   1  16
TORSDOF 7
ENDMDL
MODEL 5
REMARK VINA RESULT:    -7.646      3.331      7.109
REMARK INTER + INTRA:         -11.982
REMARK INTER:                 -10.984
REMARK INTRA:                  -0.998
REMARK UNBOUND:                -1.207
REMARK  Name = 
REMARK  7 active torsions:
REMARK  status: ('A' for Active; 'I' for Inactive)
REMARK    1  A    between atoms: C_2  and  C_4
REMARK    2  A    between atoms: C_7  and  N_8
REMARK    3  A    between atoms: N_8  and  C_9
REMARK    4  A    between atoms: C_9  and  C_10
REMARK    5  A    between atoms: C_10  and  C_13
REMARK    6  A    between atoms: C_17  and  C_18
REMARK    7  A    between atoms: C_18  and  C_19
REMARK                            x       y       z     vdW  Elec       q    Type
REMARK                         _______ _______ _______ _____ _____    ______ ____
ROOT
ATOM      1  C   UNL     1      43.936   5.931  11.389  0.00  0.00    +0.000 C 
ATOM      2  F   UNL     1      42.587   5.967  11.596  0.00  0.00    +0.000 F 
ATOM      3  F   UNL     1      44.242   7.124  10.792  0.00  0.00    +0.000 F 
ENDROOT
BRANCH   1   4
ATOM      4  C   UNL     1      44.356   4.738  10.553  0.00  0.00    +0.000 A 
ATOM      5  C   UNL     1      43.815   3.469  10.807  0.00  0.00    +0.000 A 
ATOM      6  C   UNL     1      44.146   2.389   9.992  0.00  0.00    +0.000 A 
ATOM      7  C   UNL     1      45.017   2.565   8.916  0.00  0.00    +0.000 A 
ATOM      8  C   UNL     1      45.571   3.822   8.642  0.00  0.00    +0.000 A 
ATOM      9  C   UNL     1      45.235   4.904   9.469  0.00  0.00    +0.000 A 
BRANCH   8  10
ATOM     10  C   UNL     1      46.501   4.010   7.467  0.00  0.00    +0.000 C 
BRANCH  10  11
ATOM     11  C   UNL     1      46.734   2.690   6.742  0.00  0.00    +0.000 C 
ATOM     12  C   UNL     1      48.086   1.979   6.935  0.00  0.00    +0.000 C 
ATOM     13  N   UNL     1      48.274   1.926   5.481  0.00  0.00    +0.000 NA
ATOM     14  C   UNL     1      47.144   2.836   5.264  0.00  0.00    +0.000 C 
ATOM     15  H   UNL     1      48.143   0.999   5.080  0.00  0.00    +0.000 HD
ENDBRANCH  10  11
ENDBRANCH   8  10
ENDBRANCH   1   4
BRANCH   1  16
ATOM     16  C   UNL     1      44.665   5.871  12.754  0.00  0.00    +0.000 C 
BRANCH  16  17
ATOM     17  N   UNL     1      45.205   7.165  13.200  0.00  0.00    +0.000 N 
ATOM     18  H   UNL     1      44.540   7.936  13.181  0.00  0.00    +0.000 HD
BRANCH  17  22
ATOM     19  C   UNL     1      49.166   8.067  12.073  0.00  0.00    +0.000 A 
ATOM     20  C   UNL     1      48.175   9.039  11.935  0.00  0.00    +0.000 A 
ATOM     21  C   UNL     1      46.864   8.761  12.332  0.00  0.00    +0.000 A 
ATOM     22  C   UNL     1      46.515   7.526  12.896  0.00  0.00    +0.000 A 
ATOM     23  C   UNL     1      47.521   6.559  13.016  0.00  0.00    +0.000 A 
ATOM     24  C   UNL     1      48.834   6.819  12.606  0.00  0.00    +0.000 A 
BRANCH  19  26
ATOM     25  N   UNL     1      51.235   7.238  11.091  0.00  0.00    +0.000 N 
ATOM     26  C   UNL     1      50.559   8.304  11.616  0.00  0.00    +0.000 C 
ATOM     27  O   UNL     1      51.078   9.409  11.684  0.00  0.00    +0.000 OA
ATOM     28  H   UNL     1      52.145   7.438  10.698  0.00  0.00    +0.000 HD
ATOM     29  H   UNL     1      50.768   6.393  10.790  0.00  0.00    +0.000 HD
ENDBRANCH  19  26
ENDBRANCH  17  22
ENDBRANCH  16  17
ENDBRANCH   1  16
TORSDOF 7
ENDMDL
MODEL 6
REMARK VINA RESULT:    -7.479      3.273      8.259
REMARK INTER + INTRA:         -11.747
REMARK INTER:                 -11.003
REMARK INTRA:                  -0.744
REMARK UNBOUND:                -1.207
REMARK  Name = 
REMARK  7 active torsions:
REMARK  status: ('A' for Active; 'I' for Inactive)
REMARK    1  A    between atoms: C_2  and  C_4
REMARK    2  A    between atoms: C_7  and  N_8
REMARK    3  A    between atoms: N_8  and  C_9
REMARK    4  A    between atoms: C_9  and  C_10
REMARK    5  A    between atoms: C_10  and  C_13
REMARK    6  A    between atoms: C_17  and  C_18
REMARK    7  A    between atoms: C_18  and  C_19
REMARK                            x       y       z     vdW  Elec       q    Type
REMARK                         _______ _______ _______ _____ _____    ______ ____
ROOT
ATOM      1  C   UNL     1      45.735   6.154  11.204  0.00  0.00    +0.000 C 
ATOM      2  F   UNL     1      44.831   7.154  10.980  0.00  0.00    +0.000 F 
ATOM      3  F   UNL     1      46.931   6.639  10.750  0.00  0.00    +0.000 F 
ENDROOT
BRANCH   1   4
ATOM      4  C   UNL     1      45.335   4.859  10.525  0.00  0.00    +0.000 A 
ATOM      5  C   UNL     1      44.582   3.899  11.216  0.00  0.00    +0.000 A 
ATOM      6  C   UNL     1      44.153   2.743  10.568  0.00  0.00    +0.000 A 
ATOM      7  C   UNL     1      44.471   2.535   9.225  0.00  0.00    +0.000 A 
ATOM      8  C   UNL     1      45.223   3.478   8.513  0.00  0.00    +0.000 A 
ATOM      9  C   UNL     1      45.653   4.638   9.174  0.00  0.00    +0.000 A 
BRANCH   8  10
ATOM     10  C   UNL     1      45.551   3.255   7.056  0.00  0.00    +0.000 C 
BRANCH  10  11
ATOM     11  C   UNL     1      47.054   3.093   6.855  0.00  0.00    +0.000 C 
ATOM     12  C   UNL     1      47.578   2.847   5.428  0.00  0.00    +0.000 C 
ATOM     13  N   UNL     1      48.288   1.648   5.889  0.00  0.00    +0.000 NA
ATOM     14  C   UNL     1      47.595   1.688   7.181  0.00  0.00    +0.000 C 
ATOM     15  H   UNL     1      49.298   1.766   5.956  0.00  0.00    +0.000 HD
ENDBRANCH  10  11
ENDBRANCH   8  10
ENDBRANCH   1   4
BRANCH   1  16
ATOM     16  C   UNL     1      45.859   5.906  12.728  0.00  0.00    +0.000 C 
BRANCH  16  17
ATOM     17  N   UNL     1      47.241   5.955  13.230  0.00  0.00    +0.000 N 
ATOM     18  H   UNL     1      47.958   5.787  12.525  0.00  0.00    +0.000 HD
BRANCH  17  22
ATOM     19  C   UNL     1      48.060   4.702  17.170  0.00  0.00    +0.000 A 
ATOM     20  C   UNL     1      47.193   3.950  16.378  0.00  0.00    +0.000 A 
ATOM     21  C   UNL     1      46.936   4.340  15.060  0.00  0.00    +0.000 A 
ATOM     22  C   UNL     1      47.551   5.465  14.496  0.00  0.00    +0.000 A 
ATOM     23  C   UNL     1      48.410   6.214  15.310  0.00  0.00    +0.000 A 
ATOM     24  C   UNL     1      48.662   5.845  16.637  0.00  0.00    +0.000 A 
BRANCH  19  26
ATOM     25  N   UNL     1      48.369   3.022  18.907  0.00  0.00    +0.000 N 
ATOM     26  C   UNL     1      48.318   4.352  18.590  0.00  0.00    +0.000 C 
ATOM     27  O   UNL     1      48.499   5.210  19.441  0.00  0.00    +0.000 OA
ATOM     28  H   UNL     1      48.640   2.801  19.856  0.00  0.00    +0.000 HD
ATOM     29  H   UNL     1      48.477   2.301  18.207  0.00  0.00    +0.000 HD
ENDBRANCH  19  26
ENDBRANCH  17  22
ENDBRANCH  16  17
ENDBRANCH   1  16
TORSDOF 7
ENDMDL
MODEL 7
REMARK VINA RESULT:    -7.083      3.084      7.593
REMARK INTER + INTRA:         -11.189
REMARK INTER:                 -10.263
REMARK INTRA:                  -0.926
REMARK UNBOUND:                -1.207
REMARK  Name = 
REMARK  7 active torsions:
REMARK  status: ('A' for Active; 'I' for Inactive)
REMARK    1  A    between atoms: C_2  and  C_4
REMARK    2  A    between atoms: C_7  and  N_8
REMARK    3  A    between atoms: N_8  and  C_9
REMARK    4  A    between atoms: C_9  and  C_10
REMARK    5  A    between atoms: C_10  and  C_13
REMARK    6  A    between atoms: C_17  and  C_18
REMARK    7  A    between atoms: C_18  and  C_19
REMARK                            x       y       z     vdW  Elec       q    Type
REMARK                         _______ _______ _______ _____ _____    ______ ____
ROOT
ATOM      1  C   UNL     1      43.704   3.880  12.042  0.00  0.00    +0.000 C 
ATOM      2  F   UNL     1      43.594   2.526  12.184  0.00  0.00    +0.000 F 
ATOM      3  F   UNL     1      42.418   4.344  11.998  0.00  0.00    +0.000 F 
ENDROOT
BRANCH   1   4
ATOM      4  C   UNL     1      44.504   4.263  10.813  0.00  0.00    +0.000 A 
ATOM      5  C   UNL     1      45.075   5.540  10.708  0.00  0.00    +0.000 A 
ATOM      6  C   UNL     1      45.871   5.865   9.612  0.00  0.00    +0.000 A 
ATOM      7  C   UNL     1      46.106   4.920   8.613  0.00  0.00    +0.000 A 
ATOM      8  C   UNL     1      45.546   3.638   8.694  0.00  0.00    +0.000 A 
ATOM      9  C   UNL     1      44.744   3.320   9.799  0.00  0.00    +0.000 A 
BRANCH   8  10
ATOM     10  C   UNL     1      45.816   2.615   7.617  0.00  0.00    +0.000 C 
BRANCH  10  11
ATOM     11  C   UNL     1      47.093   2.951   6.855  0.00  0.00    +0.000 C 
ATOM     12  C   UNL     1      47.089   2.803   5.322  0.00  0.00    +0.000 C 
ATOM     13  N   UNL     1      48.275   1.942   5.395  0.00  0.00    +0.000 NA
ATOM     14  C   UNL     1      48.151   1.831   6.853  0.00  0.00    +0.000 C 
ATOM     15  H   UNL     1      49.134   2.394   5.086  0.00  0.00    +0.000 HD
ENDBRANCH  10  11
ENDBRANCH   8  10
ENDBRANCH   1   4
BRANCH   1  16
ATOM     16  C   UNL     1      44.392   4.474  13.296  0.00  0.00    +0.000 C 
BRANCH  16  17
ATOM     17  N   UNL     1      45.667   3.825  13.641  0.00  0.00    +0.000 N 
ATOM     18  H   UNL     1      45.582   2.865  13.973  0.00  0.00    +0.000 HD
BRANCH  17  22
ATOM     19  C   UNL     1      48.593   6.252  15.462  0.00  0.00    +0.000 A 
ATOM     20  C   UNL     1      48.103   5.138  16.145  0.00  0.00    +0.000 A 
ATOM     21  C   UNL     1      47.153   4.310  15.540  0.00  0.00    +0.000 A 
ATOM     22  C   UNL     1      46.691   4.554  14.240  0.00  0.00    +0.000 A 
ATOM     23  C   UNL     1      47.186   5.683  13.575  0.00  0.00    +0.000 A 
ATOM     24  C   UNL     1      48.124   6.529  14.176  0.00  0.00    +0.000 A 
BRANCH  19  26
ATOM     25  N   UNL     1      50.707   7.460  15.392  0.00  0.00    +0.000 N 
ATOM     26  C   UNL     1      49.563   7.185  16.089  0.00  0.00    +0.000 C 
ATOM     27  O   UNL     1      49.345   7.705  17.174  0.00  0.00    +0.000 OA
ATOM     28  H   UNL     1      51.310   8.169  15.789  0.00  0.00    +0.000 HD
ATOM     29  H   UNL     1      50.805   7.257  14.407  0.00  0.00    +0.000 HD
ENDBRANCH  19  26
ENDBRANCH  17  22
ENDBRANCH  16  17
ENDBRANCH   1  16
TORSDOF 7
ENDMDL
MODEL 8
REMARK VINA RESULT:    -6.458      4.177      7.434
REMARK INTER + INTRA:         -10.309
REMARK INTER:                  -9.157
REMARK INTRA:                  -1.151
REMARK UNBOUND:                -1.207
REMARK  Name = 
REMARK  7 active torsions:
REMARK  status: ('A' for Active; 'I' for Inactive)
REMARK    1  A    between atoms: C_2  and  C_4
REMARK    2  A    between atoms: C_7  and  N_8
REMARK    3  A    between atoms: N_8  and  C_9
REMARK    4  A    between atoms: C_9  and  C_10
REMARK    5  A    between atoms: C_10  and  C_13
REMARK    6  A    between atoms: C_17  and  C_18
REMARK    7  A    between atoms: C_18  and  C_19
REMARK                            x       y       z     vdW  Elec       q    Type
REMARK                         _______ _______ _______ _____ _____    ______ ____
ROOT
ATOM      1  C   UNL     1      49.223   8.175  11.966  0.00  0.00    +0.000 C 
ATOM      2  F   UNL     1      49.608   9.477  11.812  0.00  0.00    +0.000 F 
ATOM      3  F   UNL     1      49.799   7.503  10.922  0.00  0.00    +0.000 F 
ENDROOT
BRANCH   1   4
ATOM      4  C   UNL     1      47.715   8.023  11.996  0.00  0.00    +0.000 A 
ATOM      5  C   UNL     1      46.903   9.089  12.409  0.00  0.00    +0.000 A 
ATOM      6  C   UNL     1      45.516   8.972  12.366  0.00  0.00    +0.000 A 
ATOM      7  C   UNL     1      44.926   7.794  11.908  0.00  0.00    +0.000 A 
ATOM      8  C   UNL     1      45.716   6.714  11.490  0.00  0.00    +0.000 A 
ATOM      9  C   UNL     1      47.112   6.838  11.540  0.00  0.00    +0.000 A 
BRANCH   8  10
ATOM     10  C   UNL     1      45.073   5.446  10.981  0.00  0.00    +0.000 C 
BRANCH  10  11
ATOM     11  C   UNL     1      44.565   4.592  12.137  0.00  0.00    +0.000 C 
ATOM     12  C   UNL     1      45.372   3.341  12.531  0.00  0.00    +0.000 C 
ATOM     13  N   UNL     1      44.166   2.514  12.401  0.00  0.00    +0.000 NA
ATOM     14  C   UNL     1      43.435   3.614  11.762  0.00  0.00    +0.000 C 
ATOM     15  H   UNL     1      43.771   2.217  13.292  0.00  0.00    +0.000 HD
ENDBRANCH  10  11
ENDBRANCH   8  10
ENDBRANCH   1   4
BRANCH   1  16
ATOM     16  C   UNL     1      49.811   7.618  13.285  0.00  0.00    +0.000 C 
BRANCH  16  17
ATOM     17  N   UNL     1      48.879   7.668  14.423  0.00  0.00    +0.000 N 
ATOM     18  H   UNL     1      48.925   8.523  14.976  0.00  0.00    +0.000 HD
BRANCH  17  22
ATOM     19  C   UNL     1      47.929   4.359  16.854  0.00  0.00    +0.000 A 
ATOM     20  C   UNL     1      47.285   4.516  15.627  0.00  0.00    +0.000 A 
ATOM     21  C   UNL     1      47.612   5.594  14.799  0.00  0.00    +0.000 A 
ATOM     22  C   UNL     1      48.600   6.520  15.159  0.00  0.00    +0.000 A 
ATOM     23  C   UNL     1      49.227   6.353  16.401  0.00  0.00    +0.000 A 
ATOM     24  C   UNL     1      48.895   5.288  17.246  0.00  0.00    +0.000 A 
BRANCH  19  26
ATOM     25  N   UNL     1      48.345   3.110  18.904  0.00  0.00    +0.000 N 
ATOM     26  C   UNL     1      47.573   3.258  17.785  0.00  0.00    +0.000 C 
ATOM     27  O   UNL     1      46.618   2.523  17.576  0.00  0.00    +0.000 OA
ATOM     28  H   UNL     1      48.032   2.418  19.572  0.00  0.00    +0.000 HD
ATOM     29  H   UNL     1      48.968   3.834  19.234  0.00  0.00    +0.000 HD
ENDBRANCH  19  26
ENDBRANCH  17  22
ENDBRANCH  16  17
ENDBRANCH   1  16
TORSDOF 7
ENDMDL
MODEL 9
REMARK VINA RESULT:    -6.426      3.742      7.880
REMARK INTER + INTRA:         -10.263
REMARK INTER:                  -9.688
REMARK INTRA:                  -0.576
REMARK UNBOUND:                -1.207
REMARK  Name = 
REMARK  7 active torsions:
REMARK  status: ('A' for Active; 'I' for Inactive)
REMARK    1  A    between atoms: C_2  and  C_4
REMARK    2  A    between atoms: C_7  and  N_8
REMARK    3  A    between atoms: N_8  and  C_9
REMARK    4  A    between atoms: C_9  and  C_10
REMARK    5  A    between atoms: C_10  and  C_13
REMARK    6  A    between atoms: C_17  and  C_18
REMARK    7  A    between atoms: C_18  and  C_19
REMARK                            x       y       z     vdW  Elec       q    Type
REMARK                         _______ _______ _______ _____ _____    ______ ____
ROOT
ATOM      1  C   UNL     1      45.158   6.239  11.663  0.00  0.00    +0.000 C 
ATOM      2  F   UNL     1      44.437   6.287  12.821  0.00  0.00    +0.000 F 
ATOM      3  F   UNL     1      44.774   7.344  10.951  0.00  0.00    +0.000 F 
ENDROOT
BRANCH   1   4
ATOM      4  C   UNL     1      44.932   4.948  10.901  0.00  0.00    +0.000 A 
ATOM      5  C   UNL     1      44.189   3.907  11.475  0.00  0.00    +0.000 A 
ATOM      6  C   UNL     1      43.921   2.751  10.745  0.00  0.00    +0.000 A 
ATOM      7  C   UNL     1      44.389   2.624   9.437  0.00  0.00    +0.000 A 
ATOM      8  C   UNL     1      45.135   3.650   8.841  0.00  0.00    +0.000 A 
ATOM      9  C   UNL     1      45.404   4.809   9.584  0.00  0.00    +0.000 A 
BRANCH   8  10
ATOM     10  C   UNL     1      45.627   3.514   7.420  0.00  0.00    +0.000 C 
BRANCH  10  11
ATOM     11  C   UNL     1      47.008   2.870   7.382  0.00  0.00    +0.000 C 
ATOM     12  C   UNL     1      47.678   2.659   6.011  0.00  0.00    +0.000 C 
ATOM     13  N   UNL     1      47.870   1.236   6.317  0.00  0.00    +0.000 NA
ATOM     14  C   UNL     1      47.002   1.334   7.496  0.00  0.00    +0.000 C 
ATOM     15  H   UNL     1      48.834   0.986   6.532  0.00  0.00    +0.000 HD
ENDBRANCH  10  11
ENDBRANCH   8  10
ENDBRANCH   1   4
BRANCH   1  16
ATOM     16  C   UNL     1      46.666   6.373  11.990  0.00  0.00    +0.000 C 
BRANCH  16  17
ATOM     17  N   UNL     1      46.952   6.557  13.422  0.00  0.00    +0.000 N 
ATOM     18  H   UNL     1      46.169   6.906  13.973  0.00  0.00    +0.000 HD
BRANCH  17  22
ATOM     19  C   UNL     1      50.812   7.663  14.706  0.00  0.00    +0.000 A 
ATOM     20  C   UNL     1      50.381   8.030  13.431  0.00  0.00    +0.000 A 
ATOM     21  C   UNL     1      49.093   7.694  13.004  0.00  0.00    +0.000 A 
ATOM     22  C   UNL     1      48.200   7.011  13.840  0.00  0.00    +0.000 A 
ATOM     23  C   UNL     1      48.654   6.640  15.113  0.00  0.00    +0.000 A 
ATOM     24  C   UNL     1      49.947   6.956  15.545  0.00  0.00    +0.000 A 
BRANCH  19  26
ATOM     25  N   UNL     1      53.215   7.687  14.313  0.00  0.00    +0.000 N 
ATOM     26  C   UNL     1      52.189   7.955  15.177  0.00  0.00    +0.000 C 
ATOM     27  O   UNL     1      52.403   8.434  16.281  0.00  0.00    +0.000 OA
ATOM     28  H   UNL     1      54.136   7.980  14.613  0.00  0.00    +0.000 HD
ATOM     29  H   UNL     1      53.068   7.536  13.325  0.00  0.00    +0.000 HD
ENDBRANCH  19  26
ENDBRANCH  17  22
ENDBRANCH  16  17
ENDBRANCH   1  16
TORSDOF 7
ENDMDL
