MODEL 1
REMARK VINA RESULT:    -7.749      0.000      0.000
REMARK INTER + INTRA:         -10.651
REMARK INTER:                 -10.014
REMARK INTRA:                  -0.638
REMARK UNBOUND:                -0.638
REMARK  Name = 
REMARK  5 active torsions:
REMARK  status: ('A' for Active; 'I' for Inactive)
REMARK    1  A    between atoms: C_2  and  C_4
REMARK    2  A    between atoms: C_7  and  O_8
REMARK    3  A    between atoms: O_8  and  C_9
REMARK    4  A    between atoms: C_9  and  C_10
REMARK    5  A    between atoms: C_15  and  C_16
REMARK                            x       y       z     vdW  Elec       q    Type
REMARK                         _______ _______ _______ _____ _____    ______ ____
ROOT
ATOM      1  O   UNL     1      43.761   2.866  10.356  0.00  0.00    +0.000 OA
ENDROOT
BRANCH   1   5
ATOM      2  C   UNL     1      46.504   2.539   7.299  0.00  0.00    +0.000 A 
ATOM      3  C   UNL     1      45.809   3.736   7.478  0.00  0.00    +0.000 A 
ATOM      4  C   UNL     1      44.871   3.834   8.508  0.00  0.00    +0.000 A 
ATOM      5  C   UNL     1      44.683   2.738   9.335  0.00  0.00    +0.000 A 
ATOM      6  N   UNL     1      45.332   1.564   9.177  0.00  0.00    +0.000 NA
ATOM      7  C   UNL     1      46.215   1.483   8.152  0.00  0.00    +0.000 A 
BRANCH   2   9
ATOM      8  N   UNL     1      47.518   3.204   5.194  0.00  0.00    +0.000 N 
ATOM      9  C   UNL     1      47.514   2.328   6.243  0.00  0.00    +0.000 C 
ATOM     10  O   UNL     1      48.346   1.433   6.323  0.00  0.00    +0.000 OA
ATOM     11  H   UNL     1      48.290   3.115   4.546  0.00  0.00    +0.000 HD
ATOM     12  H   UNL     1      47.033   4.089   5.223  0.00  0.00    +0.000 HD
ENDBRANCH   2   9
ENDBRANCH   1   5
BRANCH   1  13
ATOM     13  C   UNL     1      43.832   4.169  10.949  0.00  0.00    +0.000 C 
BRANCH  13  14
ATOM     14  C   UNL     1      44.968   4.317  11.952  0.00  0.00    +0.000 A 
ATOM     15  N   UNL     1      45.324   3.209  12.661  0.00  0.00    +0.000 NA
ATOM     16  C   UNL     1      46.360   3.298  13.521  0.00  0.00    +0.000 A 
ATOM     17  C   UNL     1      47.084   4.454  13.727  0.00  0.00    +0.000 A 
ATOM     18  C   UNL     1      46.720   5.584  13.009  0.00  0.00    +0.000 A 
ATOM     19  C   UNL     1      45.649   5.534  12.098  0.00  0.00    +0.000 A 
BRANCH  19  20
ATOM     20  C   UNL     1      45.307   6.791  11.343  0.00  0.00    +0.000 C 
ATOM     21  F   UNL     1      44.011   7.191  11.422  0.00  0.00    +0.000 F 
ATOM     22  F   UNL     1      46.041   7.856  11.771  0.00  0.00    +0.000 F 
ATOM     23  F   UNL     1      45.571   6.677  10.011  0.00  0.00    +0.000 F 
ENDBRANCH  19  20
ENDBRANCH  13  14
ENDBRANCH   1  13
TORSDOF 5
ENDMDL
MODEL 2
REMARK VINA RESULT:    -7.713      2.228      2.918
REMARK INTER + INTRA:         -10.605
REMARK INTER:                 -10.157
REMARK INTRA:                  -0.448
REMARK UNBOUND:                -0.638
REMARK  Name = 
REMARK  5 active torsions:
REMARK  status: ('A' for Active; 'I' for Inactive)
REMARK    1  A    between atoms: C_2  and  C_4
REMARK    2  A    between atoms: C_7  and  O_8
REMARK    3  A    between atoms: O_8  and  C_9
REMARK    4  A    between atoms: C_9  and  C_10
REMARK    5  A    between atoms: C_15  and  C_16
REMARK                            x       y       z     vdW  Elec       q    Type
REMARK                         _______ _______ _______ _____ _____    ______ ____
ROOT
ATOM      1  O   UNL     1      43.581   4.766   9.925  0.00  0.00    +0.000 OA
ENDROOT
BRANCH   1   5
ATOM      2  C   UNL     1      46.353   2.514   7.870  0.00  0.00    +0.000 A 
ATOM      3  C   UNL     1      45.485   1.890   8.767  0.00  0.00    +0.000 A 
ATOM      4  C   UNL     1      44.558   2.663   9.470  0.00  0.00    +0.000 A 
ATOM      5  C   UNL     1      44.517   4.027   9.229  0.00  0.00    +0.000 A 
ATOM      6  N   UNL     1      45.353   4.658   8.375  0.00  0.00    +0.000 NA
ATOM      7  C   UNL     1      46.264   3.892   7.728  0.00  0.00    +0.000 A 
BRANCH   2   9
ATOM      8  N   UNL     1      48.366   2.537   6.510  0.00  0.00    +0.000 N 
ATOM      9  C   UNL     1      47.369   1.793   7.078  0.00  0.00    +0.000 C 
ATOM     10  O   UNL     1      47.349   0.574   6.969  0.00  0.00    +0.000 OA
ATOM     11  H   UNL     1      49.116   2.013   6.076  0.00  0.00    +0.000 HD
ATOM     12  H   UNL     1      48.562   3.487   6.791  0.00  0.00    +0.000 HD
ENDBRANCH   2   9
ENDBRANCH   1   5
BRANCH   1  13
ATOM     13  C   UNL     1      43.900   4.812  11.321  0.00  0.00    +0.000 C 
BRANCH  13  14
ATOM     14  C   UNL     1      44.663   6.066  11.728  0.00  0.00    +0.000 A 
ATOM     15  N   UNL     1      44.216   7.255  11.235  0.00  0.00    +0.000 NA
ATOM     16  C   UNL     1      44.841   8.389  11.617  0.00  0.00    +0.000 A 
ATOM     17  C   UNL     1      45.916   8.413  12.482  0.00  0.00    +0.000 A 
ATOM     18  C   UNL     1      46.374   7.202  12.981  0.00  0.00    +0.000 A 
ATOM     19  C   UNL     1      45.748   5.997  12.613  0.00  0.00    +0.000 A 
BRANCH  19  20
ATOM     20  C   UNL     1      46.287   4.717  13.193  0.00  0.00    +0.000 C 
ATOM     21  F   UNL     1      46.059   3.596  12.460  0.00  0.00    +0.000 F 
ATOM     22  F   UNL     1      47.637   4.768  13.368  0.00  0.00    +0.000 F 
ATOM     23  F   UNL     1      45.768   4.455  14.427  0.00  0.00    +0.000 F 
ENDBRANCH  19  20
ENDBRANCH  13  14
ENDBRANCH   1  13
TORSDOF 5
ENDMDL
MODEL 3
REMARK VINA RESULT:    -6.718      4.095      7.468
REMARK INTER + INTRA:          -9.319
REMARK INTER:                  -8.858
REMARK INTRA:                  -0.461
REMARK UNBOUND:                -0.638
REMARK  Name = 
REMARK  5 active torsions:
REMARK  status: ('A' for Active; 'I' for Inactive)
REMARK    1  A    between atoms: C_2  and  C_4
REMARK    2  A    between atoms: C_7  and  O_8
REMARK    3  A    between atoms: O_8  and  C_9
REMARK    4  A    between atoms: C_9  and  C_10
REMARK    5  A    between atoms: C_15  and  C_16
REMARK                            x       y       z     vdW  Elec       q    Type
REMARK                         _______ _______ _______ _____ _____    ______ ____
ROOT
ATOM      1  O   UNL     1      47.179   3.137  14.105  0.00  0.00    +0.000 OA
ENDROOT
BRANCH   1   5
ATOM      2  C   UNL     1      48.606   3.894  17.895  0.00  0.00    +0.000 A 
ATOM      3  C   UNL     1      47.665   4.755  17.327  0.00  0.00    +0.000 A 
ATOM      4  C   UNL     1      47.197   4.498  16.037  0.00  0.00    +0.000 A 
ATOM      5  C   UNL     1      47.669   3.377  15.374  0.00  0.00    +0.000 A 
ATOM      6  N   UNL     1      48.588   2.534  15.895  0.00  0.00    +0.000 NA
ATOM      7  C   UNL     1      49.050   2.821  17.136  0.00  0.00    +0.000 A 
BRANCH   2   9
ATOM      8  N   UNL     1      48.408   3.648  20.304  0.00  0.00    +0.000 N 
ATOM      9  C   UNL     1      49.167   4.072  19.250  0.00  0.00    +0.000 C 
ATOM     10  O   UNL     1      50.286   4.539  19.422  0.00  0.00    +0.000 OA
ATOM     11  H   UNL     1      48.859   3.668  21.210  0.00  0.00    +0.000 HD
ATOM     12  H   UNL     1      47.616   3.032  20.190  0.00  0.00    +0.000 HD
ENDBRANCH   2   9
ENDBRANCH   1   5
BRANCH   1  13
ATOM     13  C   UNL     1      46.820   4.363  13.455  0.00  0.00    +0.000 C 
BRANCH  13  14
ATOM     14  C   UNL     1      45.508   4.280  12.686  0.00  0.00    +0.000 A 
ATOM     15  N   UNL     1      44.814   3.109  12.761  0.00  0.00    +0.000 NA
ATOM     16  C   UNL     1      43.623   3.023  12.131  0.00  0.00    +0.000 A 
ATOM     17  C   UNL     1      43.066   4.057  11.408  0.00  0.00    +0.000 A 
ATOM     18  C   UNL     1      43.774   5.248  11.327  0.00  0.00    +0.000 A 
ATOM     19  C   UNL     1      45.016   5.383  11.974  0.00  0.00    +0.000 A 
BRANCH  19  20
ATOM     20  C   UNL     1      45.733   6.702  11.855  0.00  0.00    +0.000 C 
ATOM     21  F   UNL     1      46.998   6.643  11.362  0.00  0.00    +0.000 F 
ATOM     22  F   UNL     1      45.067   7.569  11.043  0.00  0.00    +0.000 F 
ATOM     23  F   UNL     1      45.842   7.336  13.057  0.00  0.00    +0.000 F 
ENDBRANCH  19  20
ENDBRANCH  13  14
ENDBRANCH   1  13
TORSDOF 5
ENDMDL
MODEL 4
REMARK VINA RESULT:    -6.702      1.545      2.044
REMARK INTER + INTRA:          -9.299
REMARK INTER:                  -9.646
REMARK INTRA:                   0.347
REMARK UNBOUND:                -0.638
REMARK  Name = 
REMARK  5 active torsions:
REMARK  status: ('A' for Active; 'I' for Inactive)
REMARK    1  A    between atoms: C_2  and  C_4
REMARK    2  A    between atoms: C_7  and  O_8
REMARK    3  A    between atoms: O_8  and  C_9
REMARK    4  A    between atoms: C_9  and  C_10
REMARK    5  A    between atoms: C_15  and  C_16
REMARK                            x       y       z     vdW  Elec       q    Type
REMARK                         _______ _______ _______ _____ _____    ______ ____
ROOT
ATOM      1  O   UNL     1      44.073   3.261  10.582  0.00  0.00    +0.000 OA
ENDROOT
BRANCH   1   5
ATOM      2  C   UNL     1      46.636   2.630   7.418  0.00  0.00    +0.000 A 
ATOM      3  C   UNL     1      46.189   3.923   7.697  0.00  0.00    +0.000 A 
ATOM      4  C   UNL     1      45.309   4.126   8.763  0.00  0.00    +0.000 A 
ATOM      5  C   UNL     1      44.931   3.032   9.524  0.00  0.00    +0.000 A 
ATOM      6  N   UNL     1      45.339   1.769   9.269  0.00  0.00    +0.000 NA
ATOM      7  C   UNL     1      46.167   1.593   8.212  0.00  0.00    +0.000 A 
BRANCH   2   9
ATOM      8  N   UNL     1      47.499   3.077   5.192  0.00  0.00    +0.000 N 
ATOM      9  C   UNL     1      47.564   2.304   6.317  0.00  0.00    +0.000 C 
ATOM     10  O   UNL     1      48.391   1.408   6.422  0.00  0.00    +0.000 OA
ATOM     11  H   UNL     1      48.221   2.915   4.501  0.00  0.00    +0.000 HD
ATOM     12  H   UNL     1      47.026   3.969   5.172  0.00  0.00    +0.000 HD
ENDBRANCH   2   9
ENDBRANCH   1   5
BRANCH   1  13
ATOM     13  C   UNL     1      44.800   3.398  11.810  0.00  0.00    +0.000 C 
BRANCH  13  14
ATOM     14  C   UNL     1      45.274   4.820  12.077  0.00  0.00    +0.000 A 
ATOM     15  N   UNL     1      46.593   4.993  12.373  0.00  0.00    +0.000 NA
ATOM     16  C   UNL     1      47.053   6.248  12.566  0.00  0.00    +0.000 A 
ATOM     17  C   UNL     1      46.259   7.373  12.483  0.00  0.00    +0.000 A 
ATOM     18  C   UNL     1      44.915   7.197  12.187  0.00  0.00    +0.000 A 
ATOM     19  C   UNL     1      44.395   5.908  11.972  0.00  0.00    +0.000 A 
BRANCH  19  20
ATOM     20  C   UNL     1      42.930   5.783  11.647  0.00  0.00    +0.000 C 
ATOM     21  F   UNL     1      42.230   6.947  11.625  0.00  0.00    +0.000 F 
ATOM     22  F   UNL     1      42.729   5.215  10.425  0.00  0.00    +0.000 F 
ATOM     23  F   UNL     1      42.274   4.983  12.535  0.00  0.00    +0.000 F 
ENDBRANCH  19  20
ENDBRANCH  13  14
ENDBRANCH   1  13
TORSDOF 5
ENDMDL
MODEL 5
REMARK VINA RESULT:    -6.674      3.318      6.561
REMARK INTER + INTRA:          -9.262
REMARK INTER:                  -8.898
REMARK INTRA:                  -0.364
REMARK UNBOUND:                -0.638
REMARK  Name = 
REMARK  5 active torsions:
REMARK  status: ('A' for Active; 'I' for Inactive)
REMARK    1  A    between atoms: C_2  and  C_4
REMARK    2  A    between atoms: C_7  and  O_8
REMARK    3  A    between atoms: O_8  and  C_9
REMARK    4  A    between atoms: C_9  and  C_10
REMARK    5  A    between atoms: C_15  and  C_16
REMARK                            x       y       z     vdW  Elec       q    Type
REMARK                         _______ _______ _______ _____ _____    ______ ____
ROOT
ATOM      1  O   UNL     1      46.368   6.376  11.216  0.00  0.00    +0.000 OA
ENDROOT
BRANCH   1   5
ATOM      2  C   UNL     1      47.834   5.601  14.988  0.00  0.00    +0.000 A 
ATOM      3  C   UNL     1      48.332   6.686  14.263  0.00  0.00    +0.000 A 
ATOM      4  C   UNL     1      47.839   6.933  12.980  0.00  0.00    +0.000 A 
ATOM      5  C   UNL     1      46.849   6.101  12.481  0.00  0.00    +0.000 A 
ATOM      6  N   UNL     1      46.359   5.038  13.155  0.00  0.00    +0.000 NA
ATOM      7  C   UNL     1      46.874   4.800  14.386  0.00  0.00    +0.000 A 
BRANCH   2   9
ATOM      8  N   UNL     1      47.329   5.146  17.320  0.00  0.00    +0.000 N 
ATOM      9  C   UNL     1      48.285   5.250  16.349  0.00  0.00    +0.000 C 
ATOM     10  O   UNL     1      49.462   5.015  16.592  0.00  0.00    +0.000 OA
ATOM     11  H   UNL     1      47.642   4.788  18.214  0.00  0.00    +0.000 HD
ATOM     12  H   UNL     1      46.345   5.073  17.107  0.00  0.00    +0.000 HD
ENDBRANCH   2   9
ENDBRANCH   1   5
BRANCH   1  13
ATOM     13  C   UNL     1      45.082   5.775  11.016  0.00  0.00    +0.000 C 
BRANCH  13  14
ATOM     14  C   UNL     1      45.085   4.677   9.961  0.00  0.00    +0.000 A 
ATOM     15  N   UNL     1      45.780   4.915   8.813  0.00  0.00    +0.000 NA
ATOM     16  C   UNL     1      45.842   3.940   7.882  0.00  0.00    +0.000 A 
ATOM     17  C   UNL     1      45.236   2.709   8.024  0.00  0.00    +0.000 A 
ATOM     18  C   UNL     1      44.524   2.467   9.190  0.00  0.00    +0.000 A 
ATOM     19  C   UNL     1      44.439   3.453  10.190  0.00  0.00    +0.000 A 
BRANCH  19  20
ATOM     20  C   UNL     1      43.658   3.129  11.436  0.00  0.00    +0.000 C 
ATOM     21  F   UNL     1      44.382   3.062  12.584  0.00  0.00    +0.000 F 
ATOM     22  F   UNL     1      42.681   4.047  11.676  0.00  0.00    +0.000 F 
ATOM     23  F   UNL     1      43.018   1.929  11.341  0.00  0.00    +0.000 F 
ENDBRANCH  19  20
ENDBRANCH  13  14
ENDBRANCH   1  13
TORSDOF 5
ENDMDL
MODEL 6
REMARK VINA RESULT:    -6.366      5.052      6.632
REMARK INTER + INTRA:          -8.864
REMARK INTER:                  -8.267
REMARK INTRA:                  -0.597
REMARK UNBOUND:                -0.638
REMARK  Name = 
REMARK  5 active torsions:
REMARK  status: ('A' for Active; 'I' for Inactive)
REMARK    1  A    between atoms: C_2  and  C_4
REMARK    2  A    between atoms: C_7  and  O_8
REMARK    3  A    between atoms: O_8  and  C_9
REMARK    4  A    between atoms: C_9  and  C_10
REMARK    5  A    between atoms: C_15  and  C_16
REMARK                            x       y       z     vdW  Elec       q    Type
REMARK                         _______ _______ _______ _____ _____    ______ ____
ROOT
ATOM      1  O   UNL     1      47.410   3.206  14.420  0.00  0.00    +0.000 OA
ENDROOT
BRANCH   1   5
ATOM      2  C   UNL     1      45.430   6.237  12.452  0.00  0.00    +0.000 A 
ATOM      3  C   UNL     1      46.778   6.393  12.782  0.00  0.00    +0.000 A 
ATOM      4  C   UNL     1      47.437   5.366  13.461  0.00  0.00    +0.000 A 
ATOM      5  C   UNL     1      46.730   4.213  13.762  0.00  0.00    +0.000 A 
ATOM      6  N   UNL     1      45.423   4.041  13.465  0.00  0.00    +0.000 NA
ATOM      7  C   UNL     1      44.797   5.063  12.834  0.00  0.00    +0.000 A 
BRANCH   2   9
ATOM      8  N   UNL     1      43.428   6.874  11.233  0.00  0.00    +0.000 N 
ATOM      9  C   UNL     1      44.639   7.258  11.737  0.00  0.00    +0.000 C 
ATOM     10  O   UNL     1      45.028   8.414  11.637  0.00  0.00    +0.000 OA
ATOM     11  H   UNL     1      42.851   7.615  10.855  0.00  0.00    +0.000 HD
ATOM     12  H   UNL     1      42.966   6.023  11.519  0.00  0.00    +0.000 HD
ENDBRANCH   2   9
ENDBRANCH   1   5
BRANCH   1  13
ATOM     13  C   UNL     1      47.343   3.387  15.840  0.00  0.00    +0.000 C 
BRANCH  13  14
ATOM     14  C   UNL     1      48.675   3.164  16.542  0.00  0.00    +0.000 A 
ATOM     15  N   UNL     1      49.325   1.992  16.291  0.00  0.00    +0.000 NA
ATOM     16  C   UNL     1      50.531   1.787  16.861  0.00  0.00    +0.000 A 
ATOM     17  C   UNL     1      51.148   2.701  17.690  0.00  0.00    +0.000 A 
ATOM     18  C   UNL     1      50.486   3.891  17.951  0.00  0.00    +0.000 A 
ATOM     19  C   UNL     1      49.229   4.149  17.373  0.00  0.00    +0.000 A 
BRANCH  19  20
ATOM     20  C   UNL     1      48.564   5.462  17.687  0.00  0.00    +0.000 C 
ATOM     21  F   UNL     1      47.317   5.378  18.222  0.00  0.00    +0.000 F 
ATOM     22  F   UNL     1      49.290   6.199  18.574  0.00  0.00    +0.000 F 
ATOM     23  F   UNL     1      48.431   6.247  16.581  0.00  0.00    +0.000 F 
ENDBRANCH  19  20
ENDBRANCH  13  14
ENDBRANCH   1  13
TORSDOF 5
ENDMDL
MODEL 7
REMARK VINA RESULT:    -6.087      1.984      2.504
REMARK INTER + INTRA:          -8.504
REMARK INTER:                  -8.270
REMARK INTRA:                  -0.234
REMARK UNBOUND:                -0.638
REMARK  Name = 
REMARK  5 active torsions:
REMARK  status: ('A' for Active; 'I' for Inactive)
REMARK    1  A    between atoms: C_2  and  C_4
REMARK    2  A    between atoms: C_7  and  O_8
REMARK    3  A    between atoms: O_8  and  C_9
REMARK    4  A    between atoms: C_9  and  C_10
REMARK    5  A    between atoms: C_15  and  C_16
REMARK                            x       y       z     vdW  Elec       q    Type
REMARK                         _______ _______ _______ _____ _____    ______ ____
ROOT
ATOM      1  O   UNL     1      44.294   4.720  10.689  0.00  0.00    +0.000 OA
ENDROOT
BRANCH   1   5
ATOM      2  C   UNL     1      46.285   2.815   7.626  0.00  0.00    +0.000 A 
ATOM      3  C   UNL     1      45.607   2.059   8.584  0.00  0.00    +0.000 A 
ATOM      4  C   UNL     1      44.946   2.713   9.626  0.00  0.00    +0.000 A 
ATOM      5  C   UNL     1      44.968   4.098   9.657  0.00  0.00    +0.000 A 
ATOM      6  N   UNL     1      45.626   4.853   8.750  0.00  0.00    +0.000 NA
ATOM      7  C   UNL     1      46.286   4.196   7.766  0.00  0.00    +0.000 A 
BRANCH   2   9
ATOM      8  N   UNL     1      47.172   3.004   5.372  0.00  0.00    +0.000 N 
ATOM      9  C   UNL     1      47.016   2.227   6.485  0.00  0.00    +0.000 C 
ATOM     10  O   UNL     1      47.502   1.105   6.548  0.00  0.00    +0.000 OA
ATOM     11  H   UNL     1      47.777   2.629   4.652  0.00  0.00    +0.000 HD
ATOM     12  H   UNL     1      47.021   4.002   5.381  0.00  0.00    +0.000 HD
ENDBRANCH   2   9
ENDBRANCH   1   5
BRANCH   1  13
ATOM     13  C   UNL     1      44.294   6.143  10.516  0.00  0.00    +0.000 C 
BRANCH  13  14
ATOM     14  C   UNL     1      45.135   6.878  11.551  0.00  0.00    +0.000 A 
ATOM     15  N   UNL     1      46.094   6.160  12.201  0.00  0.00    +0.000 NA
ATOM     16  C   UNL     1      46.888   6.796  13.088  0.00  0.00    +0.000 A 
ATOM     17  C   UNL     1      46.783   8.141  13.378  0.00  0.00    +0.000 A 
ATOM     18  C   UNL     1      45.804   8.872  12.720  0.00  0.00    +0.000 A 
ATOM     19  C   UNL     1      44.959   8.250  11.783  0.00  0.00    +0.000 A 
BRANCH  19  20
ATOM     20  C   UNL     1      43.922   9.098  11.097  0.00  0.00    +0.000 C 
ATOM     21  F   UNL     1      42.736   8.486  10.839  0.00  0.00    +0.000 F 
ATOM     22  F   UNL     1      43.607  10.204  11.827  0.00  0.00    +0.000 F 
ATOM     23  F   UNL     1      44.357   9.566   9.893  0.00  0.00    +0.000 F 
ENDBRANCH  19  20
ENDBRANCH  13  14
ENDBRANCH   1  13
TORSDOF 5
ENDMDL
MODEL 8
REMARK VINA RESULT:    -6.013      4.189      6.156
REMARK INTER + INTRA:          -8.409
REMARK INTER:                  -7.984
REMARK INTRA:                  -0.424
REMARK UNBOUND:                -0.638
REMARK  Name = 
REMARK  5 active torsions:
REMARK  status: ('A' for Active; 'I' for Inactive)
REMARK    1  A    between atoms: C_2  and  C_4
REMARK    2  A    between atoms: C_7  and  O_8
REMARK    3  A    between atoms: O_8  and  C_9
REMARK    4  A    between atoms: C_9  and  C_10
REMARK    5  A    between atoms: C_15  and  C_16
REMARK                            x       y       z     vdW  Elec       q    Type
REMARK                         _______ _______ _______ _____ _____    ______ ____
ROOT
ATOM      1  O   UNL     1      47.731   5.122  14.546  0.00  0.00    +0.000 OA
ENDROOT
BRANCH   1   5
ATOM      2  C   UNL     1      44.863   4.294  11.706  0.00  0.00    +0.000 A 
ATOM      3  C   UNL     1      45.290   5.610  11.893  0.00  0.00    +0.000 A 
ATOM      4  C   UNL     1      46.252   5.884  12.867  0.00  0.00    +0.000 A 
ATOM      5  C   UNL     1      46.769   4.827  13.600  0.00  0.00    +0.000 A 
ATOM      6  N   UNL     1      46.365   3.546  13.448  0.00  0.00    +0.000 NA
ATOM      7  C   UNL     1      45.409   3.310  12.519  0.00  0.00    +0.000 A 
BRANCH   2   9
ATOM      8  N   UNL     1      43.875   4.536   9.500  0.00  0.00    +0.000 N 
ATOM      9  C   UNL     1      43.851   3.895  10.707  0.00  0.00    +0.000 C 
ATOM     10  O   UNL     1      43.052   2.996  10.930  0.00  0.00    +0.000 OA
ATOM     11  H   UNL     1      43.256   4.166   8.790  0.00  0.00    +0.000 HD
ATOM     12  H   UNL     1      44.666   5.081   9.190  0.00  0.00    +0.000 HD
ENDBRANCH   2   9
ENDBRANCH   1   5
BRANCH   1  13
ATOM     13  C   UNL     1      47.393   4.549  15.815  0.00  0.00    +0.000 C 
BRANCH  13  14
ATOM     14  C   UNL     1      48.579   3.912  16.527  0.00  0.00    +0.000 A 
ATOM     15  N   UNL     1      48.831   2.598  16.268  0.00  0.00    +0.000 NA
ATOM     16  C   UNL     1      49.905   2.020  16.846  0.00  0.00    +0.000 A 
ATOM     17  C   UNL     1      50.768   2.687  17.692  0.00  0.00    +0.000 A 
ATOM     18  C   UNL     1      50.510   4.023  17.960  0.00  0.00    +0.000 A 
ATOM     19  C   UNL     1      49.404   4.667  17.374  0.00  0.00    +0.000 A 
BRANCH  19  20
ATOM     20  C   UNL     1      49.181   6.120  17.697  0.00  0.00    +0.000 C 
ATOM     21  F   UNL     1      50.055   6.667  18.582  0.00  0.00    +0.000 F 
ATOM     22  F   UNL     1      49.253   6.904  16.585  0.00  0.00    +0.000 F 
ATOM     23  F   UNL     1      47.944   6.344  18.223  0.00  0.00    +0.000 F 
ENDBRANCH  19  20
ENDBRANCH  13  14
ENDBRANCH   1  13
TORSDOF 5
ENDMDL
MODEL 9
REMARK VINA RESULT:    -5.835      4.581      7.728
REMARK INTER + INTRA:          -8.178
REMARK INTER:                  -7.703
REMARK INTRA:                  -0.474
REMARK UNBOUND:                -0.638
REMARK  Name = 
REMARK  5 active torsions:
REMARK  status: ('A' for Active; 'I' for Inactive)
REMARK    1  A    between atoms: C_2  and  C_4
REMARK    2  A    between atoms: C_7  and  O_8
REMARK    3  A    between atoms: O_8  and  C_9
REMARK    4  A    between atoms: C_9  and  C_10
REMARK    5  A    between atoms: C_15  and  C_16
REMARK                            x       y       z     vdW  Elec       q    Type
REMARK                         _______ _______ _______ _____ _____    ______ ____
ROOT
ATOM      1  O   UNL     1      46.415   4.029  15.061  0.00  0.00    +0.000 OA
ENDROOT
BRANCH   1   5
ATOM      2  C   UNL     1      49.625   4.116  17.642  0.00  0.00    +0.000 A 
ATOM      3  C   UNL     1      48.879   2.944  17.508  0.00  0.00    +0.000 A 
ATOM      4  C   UNL     1      47.784   2.928  16.642  0.00  0.00    +0.000 A 
ATOM      5  C   UNL     1      47.493   4.076  15.923  0.00  0.00    +0.000 A 
ATOM      6  N   UNL     1      48.191   5.227  16.042  0.00  0.00    +0.000 NA
ATOM      7  C   UNL     1      49.230   5.228  16.912  0.00  0.00    +0.000 A 
BRANCH   2   9
ATOM      8  N   UNL     1      51.748   3.262  18.459  0.00  0.00    +0.000 N 
ATOM      9  C   UNL     1      50.799   4.243  18.530  0.00  0.00    +0.000 C 
ATOM     10  O   UNL     1      50.942   5.210  19.267  0.00  0.00    +0.000 OA
ATOM     11  H   UNL     1      52.597   3.429  18.984  0.00  0.00    +0.000 HD
ATOM     12  H   UNL     1      51.794   2.605  17.694  0.00  0.00    +0.000 HD
ENDBRANCH   2   9
ENDBRANCH   1   5
BRANCH   1  13
ATOM     13  C   UNL     1      46.842   4.169  13.700  0.00  0.00    +0.000 C 
BRANCH  13  14
ATOM     14  C   UNL     1      46.194   5.345  12.981  0.00  0.00    +0.000 A 
ATOM     15  N   UNL     1      46.717   6.583  13.211  0.00  0.00    +0.000 NA
ATOM     16  C   UNL     1      46.195   7.638  12.550  0.00  0.00    +0.000 A 
ATOM     17  C   UNL     1      45.155   7.535  11.650  0.00  0.00    +0.000 A 
ATOM     18  C   UNL     1      44.619   6.277  11.418  0.00  0.00    +0.000 A 
ATOM     19  C   UNL     1      45.136   5.149  12.082  0.00  0.00    +0.000 A 
BRANCH  19  20
ATOM     20  C   UNL     1      44.517   3.810  11.783  0.00  0.00    +0.000 C 
ATOM     21  F   UNL     1      45.369   2.857  11.320  0.00  0.00    +0.000 F 
ATOM     22  F   UNL     1      43.928   3.266  12.884  0.00  0.00    +0.000 F 
ATOM     23  F   UNL     1      43.530   3.899  10.846  0.00  0.00    +0.000 F 
ENDBRANCH  19  20
ENDBRANCH  13  14
ENDBRANCH   1  13
TORSDOF 5
ENDMDL
