MODEL 1
REMARK VINA RESULT:    -7.610      0.000      0.000
REMARK INTER + INTRA:          -9.733
REMARK INTER:                  -9.612
REMARK INTRA:                  -0.121
REMARK UNBOUND:                -0.121
REMARK  Name = 
REMARK  5 active torsions:
REMARK  status: ('A' for Active; 'I' for Inactive)
REMARK    1  A    between atoms: N_1  and  C_2
REMARK    2  A    between atoms: C_2  and  C_3
REMARK    3  A    between atoms: C_6  and  C_7
REMARK    4  A    between atoms: C_7  and  N_8
REMARK    5  A    between atoms: C_13  and  C_14
REMARK                            x       y       z     vdW  Elec       q    Type
REMARK                         _______ _______ _______ _____ _____    ______ ____
ROOT
ATOM      1  N   UNL     1      44.154   4.378  10.353  0.00  0.00    +0.000 N 
ATOM      2  C   UNL     1      43.629   3.250  10.935  0.00  0.00    +0.000 A 
ATOM      3  C   UNL     1      44.157   2.153  10.287  0.00  0.00    +0.000 A 
ATOM      4  C   UNL     1      45.040   2.632   9.288  0.00  0.00    +0.000 A 
ATOM      5  C   UNL     1      45.823   2.032   8.280  0.00  0.00    +0.000 A 
ATOM      6  C   UNL     1      46.568   2.870   7.444  0.00  0.00    +0.000 A 
ATOM      7  C   UNL     1      46.533   4.243   7.684  0.00  0.00    +0.000 A 
ATOM      8  N   UNL     1      45.807   4.869   8.649  0.00  0.00    +0.000 NA
ATOM      9  C   UNL     1      45.070   4.020   9.392  0.00  0.00    +0.000 A 
ENDROOT
BRANCH   6  10
ATOM     10  C   UNL     1      47.374   2.383   6.295  0.00  0.00    +0.000 C 
ATOM     11  N   UNL     1      47.274   3.039   5.100  0.00  0.00    +0.000 N 
ATOM     12  O   UNL     1      48.127   1.424   6.407  0.00  0.00    +0.000 OA
ATOM     13  H   UNL     1      46.697   3.844   4.917  0.00  0.00    +0.000 HD
ATOM     14  H   UNL     1      47.860   2.701   4.344  0.00  0.00    +0.000 HD
ENDBRANCH   6  10
BRANCH   1  15
ATOM     15  C   UNL     1      43.775   5.740  10.694  0.00  0.00    +0.000 C 
BRANCH  15  19
ATOM     16  C   UNL     1      47.019   7.110  13.282  0.00  0.00    +0.000 C 
ATOM     17  C   UNL     1      45.914   8.123  12.954  0.00  0.00    +0.000 C 
ATOM     18  C   UNL     1      45.033   7.663  11.798  0.00  0.00    +0.000 C 
ATOM     19  C   UNL     1      44.409   6.273  12.004  0.00  0.00    +0.000 C 
ATOM     20  C   UNL     1      45.424   5.241  12.535  0.00  0.00    +0.000 C 
ATOM     21  C   UNL     1      46.357   5.768  13.624  0.00  0.00    +0.000 C 
BRANCH  16  22
ATOM     22  C   UNL     1      48.067   7.062  12.148  0.00  0.00    +0.000 C 
BRANCH  22  23
ATOM     23  N   UNL     1      49.387   6.634  12.604  0.00  0.00    +0.000 NA
ATOM     24  H   UNL     1      49.300   5.724  13.055  0.00  0.00    +0.000 HD
ATOM     25  H   UNL     1      49.715   7.267  13.331  0.00  0.00    +0.000 HD
ENDBRANCH  22  23
ENDBRANCH  16  22
ENDBRANCH  15  19
ENDBRANCH   1  15
TORSDOF 5
ENDMDL
MODEL 2
REMARK VINA RESULT:    -6.416      4.473      8.151
REMARK INTER + INTRA:          -8.225
REMARK INTER:                  -7.705
REMARK INTRA:                  -0.519
REMARK UNBOUND:                -0.121
REMARK  Name = 
REMARK  5 active torsions:
REMARK  status: ('A' for Active; 'I' for Inactive)
REMARK    1  A    between atoms: N_1  and  C_2
REMARK    2  A    between atoms: C_2  and  C_3
REMARK    3  A    between atoms: C_6  and  C_7
REMARK    4  A    between atoms: C_7  and  N_8
REMARK    5  A    between atoms: C_13  and  C_14
REMARK                            x       y       z     vdW  Elec       q    Type
REMARK                         _______ _______ _______ _____ _____    ______ ____
ROOT
ATOM      1  N   UNL     1      47.840   6.328  13.969  0.00  0.00    +0.000 N 
ATOM      2  C   UNL     1      48.283   7.626  14.034  0.00  0.00    +0.000 A 
ATOM      3  C   UNL     1      48.764   7.848  15.307  0.00  0.00    +0.000 A 
ATOM      4  C   UNL     1      48.620   6.641  16.034  0.00  0.00    +0.000 A 
ATOM      5  C   UNL     1      48.865   6.244  17.365  0.00  0.00    +0.000 A 
ATOM      6  C   UNL     1      48.561   4.927  17.722  0.00  0.00    +0.000 A 
ATOM      7  C   UNL     1      48.078   4.070  16.735  0.00  0.00    +0.000 A 
ATOM      8  N   UNL     1      47.837   4.398  15.437  0.00  0.00    +0.000 NA
ATOM      9  C   UNL     1      48.101   5.689  15.160  0.00  0.00    +0.000 A 
ENDROOT
BRANCH   6  10
ATOM     10  C   UNL     1      48.694   4.396  19.103  0.00  0.00    +0.000 C 
ATOM     11  N   UNL     1      48.343   3.096  19.342  0.00  0.00    +0.000 N 
ATOM     12  O   UNL     1      49.122   5.093  20.014  0.00  0.00    +0.000 OA
ATOM     13  H   UNL     1      48.000   2.444  18.656  0.00  0.00    +0.000 HD
ATOM     14  H   UNL     1      48.475   2.756  20.289  0.00  0.00    +0.000 HD
ENDBRANCH   6  10
BRANCH   1  15
ATOM     15  C   UNL     1      47.176   5.734  12.820  0.00  0.00    +0.000 C 
BRANCH  15  19
ATOM     16  C   UNL     1      43.068   4.718  11.728  0.00  0.00    +0.000 C 
ATOM     17  C   UNL     1      43.440   4.614  13.213  0.00  0.00    +0.000 C 
ATOM     18  C   UNL     1      44.948   4.658  13.435  0.00  0.00    +0.000 C 
ATOM     19  C   UNL     1      45.634   5.889  12.819  0.00  0.00    +0.000 C 
ATOM     20  C   UNL     1      45.152   6.179  11.384  0.00  0.00    +0.000 C 
ATOM     21  C   UNL     1      43.645   6.028  11.175  0.00  0.00    +0.000 C 
BRANCH  16  22
ATOM     22  C   UNL     1      43.488   3.437  10.972  0.00  0.00    +0.000 C 
BRANCH  22  23
ATOM     23  N   UNL     1      43.038   2.212  11.625  0.00  0.00    +0.000 NA
ATOM     24  H   UNL     1      42.506   1.657  10.954  0.00  0.00    +0.000 HD
ATOM     25  H   UNL     1      42.379   2.446  12.366  0.00  0.00    +0.000 HD
ENDBRANCH  22  23
ENDBRANCH  16  22
ENDBRANCH  15  19
ENDBRANCH   1  15
TORSDOF 5
ENDMDL
MODEL 3
REMARK VINA RESULT:    -6.195      3.895      6.011
REMARK INTER + INTRA:          -7.945
REMARK INTER:                  -7.465
REMARK INTRA:                  -0.480
REMARK UNBOUND:                -0.121
REMARK  Name = 
REMARK  5 active torsions:
REMARK  status: ('A' for Active; 'I' for Inactive)
REMARK    1  A    between atoms: N_1  and  C_2
REMARK    2  A    between atoms: C_2  and  C_3
REMARK    3  A    between atoms: C_6  and  C_7
REMARK    4  A    between atoms: C_7  and  N_8
REMARK    5  A    between atoms: C_13  and  C_14
REMARK                            x       y       z     vdW  Elec       q    Type
REMARK                         _______ _______ _______ _____ _____    ______ ____
ROOT
ATOM      1  N   UNL     1      47.626   6.886  13.773  0.00  0.00    +0.000 N 
ATOM      2  C   UNL     1      48.423   7.583  12.896  0.00  0.00    +0.000 A 
ATOM      3  C   UNL     1      47.946   7.360  11.622  0.00  0.00    +0.000 A 
ATOM      4  C   UNL     1      46.817   6.512  11.730  0.00  0.00    +0.000 A 
ATOM      5  C   UNL     1      45.944   5.892  10.811  0.00  0.00    +0.000 A 
ATOM      6  C   UNL     1      44.928   5.079  11.320  0.00  0.00    +0.000 A 
ATOM      7  C   UNL     1      44.803   4.965  12.704  0.00  0.00    +0.000 A 
ATOM      8  N   UNL     1      45.607   5.552  13.631  0.00  0.00    +0.000 NA
ATOM      9  C   UNL     1      46.598   6.283  13.086  0.00  0.00    +0.000 A 
ENDROOT
BRANCH   6  10
ATOM     10  C   UNL     1      43.988   4.303  10.470  0.00  0.00    +0.000 C 
ATOM     11  N   UNL     1      44.022   4.491   9.116  0.00  0.00    +0.000 N 
ATOM     12  O   UNL     1      43.205   3.498  10.958  0.00  0.00    +0.000 OA
ATOM     13  H   UNL     1      44.640   5.115   8.624  0.00  0.00    +0.000 HD
ATOM     14  H   UNL     1      43.389   3.924   8.562  0.00  0.00    +0.000 HD
ENDBRANCH   6  10
BRANCH   1  15
ATOM     15  C   UNL     1      47.857   6.790  15.205  0.00  0.00    +0.000 C 
BRANCH  15  19
ATOM     16  C   UNL     1      49.362   3.822  18.037  0.00  0.00    +0.000 C 
ATOM     17  C   UNL     1      48.404   3.322  16.948  0.00  0.00    +0.000 C 
ATOM     18  C   UNL     1      47.686   4.466  16.241  0.00  0.00    +0.000 C 
ATOM     19  C   UNL     1      48.633   5.523  15.646  0.00  0.00    +0.000 C 
ATOM     20  C   UNL     1      49.756   5.927  16.621  0.00  0.00    +0.000 C 
ATOM     21  C   UNL     1      50.384   4.763  17.387  0.00  0.00    +0.000 C 
BRANCH  16  22
ATOM     22  C   UNL     1      48.572   4.418  19.224  0.00  0.00    +0.000 C 
BRANCH  22  23
ATOM     23  N   UNL     1      48.376   3.470  20.317  0.00  0.00    +0.000 NA
ATOM     24  H   UNL     1      49.278   3.279  20.754  0.00  0.00    +0.000 HD
ATOM     25  H   UNL     1      48.064   2.578  19.939  0.00  0.00    +0.000 HD
ENDBRANCH  22  23
ENDBRANCH  16  22
ENDBRANCH  15  19
ENDBRANCH   1  15
TORSDOF 5
ENDMDL
MODEL 4
REMARK VINA RESULT:    -6.172      3.594      5.781
REMARK INTER + INTRA:          -7.916
REMARK INTER:                  -8.196
REMARK INTRA:                   0.280
REMARK UNBOUND:                -0.121
REMARK  Name = 
REMARK  5 active torsions:
REMARK  status: ('A' for Active; 'I' for Inactive)
REMARK    1  A    between atoms: N_1  and  C_2
REMARK    2  A    between atoms: C_2  and  C_3
REMARK    3  A    between atoms: C_6  and  C_7
REMARK    4  A    between atoms: C_7  and  N_8
REMARK    5  A    between atoms: C_13  and  C_14
REMARK                            x       y       z     vdW  Elec       q    Type
REMARK                         _______ _______ _______ _____ _____    ______ ____
ROOT
ATOM      1  N   UNL     1      47.427   6.731  13.829  0.00  0.00    +0.000 N 
ATOM      2  C   UNL     1      47.110   8.060  13.681  0.00  0.00    +0.000 A 
ATOM      3  C   UNL     1      46.034   8.147  12.824  0.00  0.00    +0.000 A 
ATOM      4  C   UNL     1      45.679   6.828  12.449  0.00  0.00    +0.000 A 
ATOM      5  C   UNL     1      44.727   6.262  11.576  0.00  0.00    +0.000 A 
ATOM      6  C   UNL     1      44.698   4.870  11.450  0.00  0.00    +0.000 A 
ATOM      7  C   UNL     1      45.577   4.119  12.229  0.00  0.00    +0.000 A 
ATOM      8  N   UNL     1      46.503   4.613  13.094  0.00  0.00    +0.000 NA
ATOM      9  C   UNL     1      46.521   5.959  13.139  0.00  0.00    +0.000 A 
ENDROOT
BRANCH   6  10
ATOM     10  C   UNL     1      43.804   4.145  10.512  0.00  0.00    +0.000 C 
ATOM     11  N   UNL     1      43.852   4.462   9.183  0.00  0.00    +0.000 N 
ATOM     12  O   UNL     1      43.045   3.268  10.906  0.00  0.00    +0.000 OA
ATOM     13  H   UNL     1      44.453   5.153   8.765  0.00  0.00    +0.000 HD
ATOM     14  H   UNL     1      43.251   3.927   8.565  0.00  0.00    +0.000 HD
ENDBRANCH   6  10
BRANCH   1  15
ATOM     15  C   UNL     1      48.564   6.228  14.583  0.00  0.00    +0.000 C 
BRANCH  15  19
ATOM     16  C   UNL     1      48.758   3.525  18.012  0.00  0.00    +0.000 C 
ATOM     17  C   UNL     1      49.253   4.961  18.228  0.00  0.00    +0.000 C 
ATOM     18  C   UNL     1      49.457   5.706  16.913  0.00  0.00    +0.000 C 
ATOM     19  C   UNL     1      48.215   5.723  16.007  0.00  0.00    +0.000 C 
ATOM     20  C   UNL     1      47.538   4.342  15.905  0.00  0.00    +0.000 C 
ATOM     21  C   UNL     1      47.441   3.581  17.227  0.00  0.00    +0.000 C 
BRANCH  16  22
ATOM     22  C   UNL     1      49.870   2.656  17.381  0.00  0.00    +0.000 C 
BRANCH  22  23
ATOM     23  N   UNL     1      49.396   1.833  16.273  0.00  0.00    +0.000 NA
ATOM     24  H   UNL     1      49.040   0.953  16.645  0.00  0.00    +0.000 HD
ATOM     25  H   UNL     1      50.184   1.577  15.680  0.00  0.00    +0.000 HD
ENDBRANCH  22  23
ENDBRANCH  16  22
ENDBRANCH  15  19
ENDBRANCH   1  15
TORSDOF 5
ENDMDL
MODEL 5
REMARK VINA RESULT:    -6.048      3.118      5.083
REMARK INTER + INTRA:          -7.760
REMARK INTER:                  -7.448
REMARK INTRA:                  -0.312
REMARK UNBOUND:                -0.121
REMARK  Name = 
REMARK  5 active torsions:
REMARK  status: ('A' for Active; 'I' for Inactive)
REMARK    1  A    between atoms: N_1  and  C_2
REMARK    2  A    between atoms: C_2  and  C_3
REMARK    3  A    between atoms: C_6  and  C_7
REMARK    4  A    between atoms: C_7  and  N_8
REMARK    5  A    between atoms: C_13  and  C_14
REMARK                            x       y       z     vdW  Elec       q    Type
REMARK                         _______ _______ _______ _____ _____    ______ ____
ROOT
ATOM      1  N   UNL     1      47.213   6.779  13.235  0.00  0.00    +0.000 N 
ATOM      2  C   UNL     1      47.691   6.172  14.371  0.00  0.00    +0.000 A 
ATOM      3  C   UNL     1      47.212   4.879  14.395  0.00  0.00    +0.000 A 
ATOM      4  C   UNL     1      46.429   4.693  13.230  0.00  0.00    +0.000 A 
ATOM      5  C   UNL     1      45.645   3.640  12.714  0.00  0.00    +0.000 A 
ATOM      6  C   UNL     1      44.978   3.851  11.503  0.00  0.00    +0.000 A 
ATOM      7  C   UNL     1      45.164   5.070  10.852  0.00  0.00    +0.000 A 
ATOM      8  N   UNL     1      45.919   6.109  11.298  0.00  0.00    +0.000 NA
ATOM      9  C   UNL     1      46.497   5.871  12.490  0.00  0.00    +0.000 A 
ENDROOT
BRANCH   6  10
ATOM     10  C   UNL     1      44.059   2.863  10.884  0.00  0.00    +0.000 C 
ATOM     11  N   UNL     1      44.480   2.177   9.779  0.00  0.00    +0.000 N 
ATOM     12  O   UNL     1      42.948   2.646  11.354  0.00  0.00    +0.000 OA
ATOM     13  H   UNL     1      45.378   2.274   9.334  0.00  0.00    +0.000 HD
ATOM     14  H   UNL     1      43.840   1.487   9.400  0.00  0.00    +0.000 HD
ENDBRANCH   6  10
BRANCH   1  15
ATOM     15  C   UNL     1      47.419   8.177  12.893  0.00  0.00    +0.000 C 
BRANCH  15  19
ATOM     16  C   UNL     1      51.412   9.139  11.400  0.00  0.00    +0.000 C 
ATOM     17  C   UNL     1      50.870   7.738  11.088  0.00  0.00    +0.000 C 
ATOM     18  C   UNL     1      49.643   7.393  11.925  0.00  0.00    +0.000 C 
ATOM     19  C   UNL     1      48.503   8.420  11.813  0.00  0.00    +0.000 C 
ATOM     20  C   UNL     1      49.006   9.874  11.913  0.00  0.00    +0.000 C 
ATOM     21  C   UNL     1      50.294  10.158  11.141  0.00  0.00    +0.000 C 
BRANCH  16  22
ATOM     22  C   UNL     1      52.032   9.180  12.814  0.00  0.00    +0.000 C 
BRANCH  22  23
ATOM     23  N   UNL     1      52.920   8.053  13.084  0.00  0.00    +0.000 NA
ATOM     24  H   UNL     1      52.813   7.364  12.341  0.00  0.00    +0.000 HD
ATOM     25  H   UNL     1      52.618   7.582  13.936  0.00  0.00    +0.000 HD
ENDBRANCH  22  23
ENDBRANCH  16  22
ENDBRANCH  15  19
ENDBRANCH   1  15
TORSDOF 5
ENDMDL
MODEL 6
REMARK VINA RESULT:    -5.757      3.796      6.841
REMARK INTER + INTRA:          -7.393
REMARK INTER:                  -6.956
REMARK INTRA:                  -0.437
REMARK UNBOUND:                -0.121
REMARK  Name = 
REMARK  5 active torsions:
REMARK  status: ('A' for Active; 'I' for Inactive)
REMARK    1  A    between atoms: N_1  and  C_2
REMARK    2  A    between atoms: C_2  and  C_3
REMARK    3  A    between atoms: C_6  and  C_7
REMARK    4  A    between atoms: C_7  and  N_8
REMARK    5  A    between atoms: C_13  and  C_14
REMARK                            x       y       z     vdW  Elec       q    Type
REMARK                         _______ _______ _______ _____ _____    ______ ____
ROOT
ATOM      1  N   UNL     1      46.740   8.191  12.358  0.00  0.00    +0.000 N 
ATOM      2  C   UNL     1      46.092   9.402  12.307  0.00  0.00    +0.000 A 
ATOM      3  C   UNL     1      47.015  10.362  11.948  0.00  0.00    +0.000 A 
ATOM      4  C   UNL     1      48.259   9.710  11.763  0.00  0.00    +0.000 A 
ATOM      5  C   UNL     1      49.569  10.132  11.455  0.00  0.00    +0.000 A 
ATOM      6  C   UNL     1      50.570   9.159  11.381  0.00  0.00    +0.000 A 
ATOM      7  C   UNL     1      50.210   7.826  11.568  0.00  0.00    +0.000 A 
ATOM      8  N   UNL     1      48.962   7.365  11.853  0.00  0.00    +0.000 NA
ATOM      9  C   UNL     1      48.047   8.348  11.962  0.00  0.00    +0.000 A 
ENDROOT
BRANCH   6  10
ATOM     10  C   UNL     1      52.003   9.468  11.143  0.00  0.00    +0.000 C 
ATOM     11  N   UNL     1      52.924   9.063  12.070  0.00  0.00    +0.000 N 
ATOM     12  O   UNL     1      52.368  10.059  10.134  0.00  0.00    +0.000 OA
ATOM     13  H   UNL     1      52.722   8.559  12.917  0.00  0.00    +0.000 HD
ATOM     14  H   UNL     1      53.897   9.263  11.862  0.00  0.00    +0.000 HD
ENDBRANCH   6  10
BRANCH   1  15
ATOM     15  C   UNL     1      46.131   6.943  12.789  0.00  0.00    +0.000 C 
BRANCH  15  19
ATOM     16  C   UNL     1      43.239   4.105  11.151  0.00  0.00    +0.000 C 
ATOM     17  C   UNL     1      42.689   5.220  12.050  0.00  0.00    +0.000 C 
ATOM     18  C   UNL     1      43.790   5.933  12.826  0.00  0.00    +0.000 C 
ATOM     19  C   UNL     1      44.913   6.497  11.940  0.00  0.00    +0.000 C 
ATOM     20  C   UNL     1      45.381   5.492  10.868  0.00  0.00    +0.000 C 
ATOM     21  C   UNL     1      44.253   4.723  10.180  0.00  0.00    +0.000 C 
BRANCH  16  22
ATOM     22  C   UNL     1      43.769   2.931  12.005  0.00  0.00    +0.000 C 
BRANCH  22  23
ATOM     23  N   UNL     1      43.093   1.667  11.725  0.00  0.00    +0.000 NA
ATOM     24  H   UNL     1      43.460   0.951  12.352  0.00  0.00    +0.000 HD
ATOM     25  H   UNL     1      43.336   1.356  10.786  0.00  0.00    +0.000 HD
ENDBRANCH  22  23
ENDBRANCH  16  22
ENDBRANCH  15  19
ENDBRANCH   1  15
TORSDOF 5
ENDMDL
MODEL 7
REMARK VINA RESULT:    -5.670      1.731      2.457
REMARK INTER + INTRA:          -7.283
REMARK INTER:                  -7.091
REMARK INTRA:                  -0.191
REMARK UNBOUND:                -0.121
REMARK  Name = 
REMARK  5 active torsions:
REMARK  status: ('A' for Active; 'I' for Inactive)
REMARK    1  A    between atoms: N_1  and  C_2
REMARK    2  A    between atoms: C_2  and  C_3
REMARK    3  A    between atoms: C_6  and  C_7
REMARK    4  A    between atoms: C_7  and  N_8
REMARK    5  A    between atoms: C_13  and  C_14
REMARK                            x       y       z     vdW  Elec       q    Type
REMARK                         _______ _______ _______ _____ _____    ______ ____
ROOT
ATOM      1  N   UNL     1      44.593   6.254  11.937  0.00  0.00    +0.000 N 
ATOM      2  C   UNL     1      43.872   5.513  12.841  0.00  0.00    +0.000 A 
ATOM      3  C   UNL     1      43.794   4.221  12.364  0.00  0.00    +0.000 A 
ATOM      4  C   UNL     1      44.501   4.176  11.138  0.00  0.00    +0.000 A 
ATOM      5  C   UNL     1      44.737   3.188  10.159  0.00  0.00    +0.000 A 
ATOM      6  C   UNL     1      45.488   3.544   9.036  0.00  0.00    +0.000 A 
ATOM      7  C   UNL     1      46.002   4.839   8.969  0.00  0.00    +0.000 A 
ATOM      8  N   UNL     1      45.817   5.822   9.889  0.00  0.00    +0.000 NA
ATOM      9  C   UNL     1      45.045   5.440  10.925  0.00  0.00    +0.000 A 
ENDROOT
BRANCH   6  10
ATOM     10  C   UNL     1      45.747   2.632   7.893  0.00  0.00    +0.000 C 
ATOM     11  N   UNL     1      46.036   1.321   8.153  0.00  0.00    +0.000 N 
ATOM     12  O   UNL     1      45.691   3.030   6.735  0.00  0.00    +0.000 OA
ATOM     13  H   UNL     1      46.087   0.900   9.066  0.00  0.00    +0.000 HD
ATOM     14  H   UNL     1      46.177   0.718   7.349  0.00  0.00    +0.000 HD
ENDBRANCH   6  10
BRANCH   1  15
ATOM     15  C   UNL     1      44.820   7.688  12.034  0.00  0.00    +0.000 C 
BRANCH  15  19
ATOM     16  C   UNL     1      49.079   8.158  12.892  0.00  0.00    +0.000 C 
ATOM     17  C   UNL     1      48.236   9.439  12.822  0.00  0.00    +0.000 C 
ATOM     18  C   UNL     1      46.868   9.197  12.195  0.00  0.00    +0.000 C 
ATOM     19  C   UNL     1      46.056   8.086  12.880  0.00  0.00    +0.000 C 
ATOM     20  C   UNL     1      46.900   6.829  13.171  0.00  0.00    +0.000 C 
ATOM     21  C   UNL     1      48.303   7.114  13.705  0.00  0.00    +0.000 C 
BRANCH  16  22
ATOM     22  C   UNL     1      49.508   7.712  11.476  0.00  0.00    +0.000 C 
BRANCH  22  23
ATOM     23  N   UNL     1      50.916   7.335  11.395  0.00  0.00    +0.000 NA
ATOM     24  H   UNL     1      50.979   6.336  11.203  0.00  0.00    +0.000 HD
ATOM     25  H   UNL     1      51.353   7.465  12.306  0.00  0.00    +0.000 HD
ENDBRANCH  22  23
ENDBRANCH  16  22
ENDBRANCH  15  19
ENDBRANCH   1  15
TORSDOF 5
ENDMDL
MODEL 8
REMARK VINA RESULT:    -5.462      4.132      7.245
REMARK INTER + INTRA:          -7.019
REMARK INTER:                  -6.743
REMARK INTRA:                  -0.277
REMARK UNBOUND:                -0.121
REMARK  Name = 
REMARK  5 active torsions:
REMARK  status: ('A' for Active; 'I' for Inactive)
REMARK    1  A    between atoms: N_1  and  C_2
REMARK    2  A    between atoms: C_2  and  C_3
REMARK    3  A    between atoms: C_6  and  C_7
REMARK    4  A    between atoms: C_7  and  N_8
REMARK    5  A    between atoms: C_13  and  C_14
REMARK                            x       y       z     vdW  Elec       q    Type
REMARK                         _______ _______ _______ _____ _____    ______ ____
ROOT
ATOM      1  N   UNL     1      49.232   7.565  15.118  0.00  0.00    +0.000 N 
ATOM      2  C   UNL     1      49.146   8.921  15.320  0.00  0.00    +0.000 A 
ATOM      3  C   UNL     1      48.127   9.404  14.526  0.00  0.00    +0.000 A 
ATOM      4  C   UNL     1      47.570   8.304  13.830  0.00  0.00    +0.000 A 
ATOM      5  C   UNL     1      46.564   8.148  12.853  0.00  0.00    +0.000 A 
ATOM      6  C   UNL     1      46.308   6.859  12.376  0.00  0.00    +0.000 A 
ATOM      7  C   UNL     1      47.025   5.797  12.926  0.00  0.00    +0.000 A 
ATOM      8  N   UNL     1      47.991   5.891  13.878  0.00  0.00    +0.000 NA
ATOM      9  C   UNL     1      48.233   7.159  14.265  0.00  0.00    +0.000 A 
ENDROOT
BRANCH   6  10
ATOM     10  C   UNL     1      45.336   6.559  11.294  0.00  0.00    +0.000 C 
ATOM     11  N   UNL     1      44.078   7.088  11.377  0.00  0.00    +0.000 N 
ATOM     12  O   UNL     1      45.647   5.864  10.334  0.00  0.00    +0.000 OA
ATOM     13  H   UNL     1      43.738   7.682  12.115  0.00  0.00    +0.000 HD
ATOM     14  H   UNL     1      43.449   6.889  10.606  0.00  0.00    +0.000 HD
ENDBRANCH   6  10
BRANCH   1  15
ATOM     15  C   UNL     1      50.244   6.702  15.705  0.00  0.00    +0.000 C 
BRANCH  15  19
ATOM     16  C   UNL     1      48.533   4.097  18.769  0.00  0.00    +0.000 C 
ATOM     17  C   UNL     1      50.062   4.219  18.733  0.00  0.00    +0.000 C 
ATOM     18  C   UNL     1      50.560   4.864  17.444  0.00  0.00    +0.000 C 
ATOM     19  C   UNL     1      49.930   6.236  17.150  0.00  0.00    +0.000 C 
ATOM     20  C   UNL     1      48.403   6.243  17.366  0.00  0.00    +0.000 C 
ATOM     21  C   UNL     1      47.933   5.501  18.617  0.00  0.00    +0.000 C 
BRANCH  16  22
ATOM     22  C   UNL     1      48.046   3.052  17.740  0.00  0.00    +0.000 C 
BRANCH  22  23
ATOM     23  N   UNL     1      46.594   3.018  17.600  0.00  0.00    +0.000 NA
ATOM     24  H   UNL     1      46.190   3.757  18.174  0.00  0.00    +0.000 HD
ATOM     25  H   UNL     1      46.237   2.146  17.989  0.00  0.00    +0.000 HD
ENDBRANCH  22  23
ENDBRANCH  16  22
ENDBRANCH  15  19
ENDBRANCH   1  15
TORSDOF 5
ENDMDL
MODEL 9
REMARK VINA RESULT:    -5.376      3.576      5.486
REMARK INTER + INTRA:          -6.911
REMARK INTER:                  -6.549
REMARK INTRA:                  -0.362
REMARK UNBOUND:                -0.121
REMARK  Name = 
REMARK  5 active torsions:
REMARK  status: ('A' for Active; 'I' for Inactive)
REMARK    1  A    between atoms: N_1  and  C_2
REMARK    2  A    between atoms: C_2  and  C_3
REMARK    3  A    between atoms: C_6  and  C_7
REMARK    4  A    between atoms: C_7  and  N_8
REMARK    5  A    between atoms: C_13  and  C_14
REMARK                            x       y       z     vdW  Elec       q    Type
REMARK                         _______ _______ _______ _____ _____    ______ ____
ROOT
ATOM      1  N   UNL     1      46.515   7.827  13.026  0.00  0.00    +0.000 N 
ATOM      2  C   UNL     1      45.798   8.815  12.396  0.00  0.00    +0.000 A 
ATOM      3  C   UNL     1      44.768   8.216  11.703  0.00  0.00    +0.000 A 
ATOM      4  C   UNL     1      44.855   6.821  11.930  0.00  0.00    +0.000 A 
ATOM      5  C   UNL     1      44.148   5.690  11.470  0.00  0.00    +0.000 A 
ATOM      6  C   UNL     1      44.563   4.432  11.916  0.00  0.00    +0.000 A 
ATOM      7  C   UNL     1      45.618   4.369  12.826  0.00  0.00    +0.000 A 
ATOM      8  N   UNL     1      46.322   5.427  13.310  0.00  0.00    +0.000 NA
ATOM      9  C   UNL     1      45.914   6.609  12.810  0.00  0.00    +0.000 A 
ENDROOT
BRANCH   6  10
ATOM     10  C   UNL     1      43.964   3.154  11.455  0.00  0.00    +0.000 C 
ATOM     11  N   UNL     1      43.661   2.198  12.384  0.00  0.00    +0.000 N 
ATOM     12  O   UNL     1      43.727   2.954  10.269  0.00  0.00    +0.000 OA
ATOM     13  H   UNL     1      43.803   2.278  13.377  0.00  0.00    +0.000 HD
ATOM     14  H   UNL     1      43.224   1.349  12.039  0.00  0.00    +0.000 HD
ENDBRANCH   6  10
BRANCH   1  15
ATOM     15  C   UNL     1      47.736   8.044  13.784  0.00  0.00    +0.000 C 
BRANCH  15  19
ATOM     16  C   UNL     1      51.466   9.663  12.183  0.00  0.00    +0.000 C 
ATOM     17  C   UNL     1      50.250   9.661  11.248  0.00  0.00    +0.000 C 
ATOM     18  C   UNL     1      49.119   8.784  11.774  0.00  0.00    +0.000 C 
ATOM     19  C   UNL     1      48.667   9.137  13.201  0.00  0.00    +0.000 C 
ATOM     20  C   UNL     1      49.855   9.358  14.159  0.00  0.00    +0.000 C 
ATOM     21  C   UNL     1      51.013  10.158  13.563  0.00  0.00    +0.000 C 
BRANCH  16  22
ATOM     22  C   UNL     1      52.166   8.286  12.169  0.00  0.00    +0.000 C 
BRANCH  22  23
ATOM     23  N   UNL     1      53.035   8.071  13.321  0.00  0.00    +0.000 NA
ATOM     24  H   UNL     1      53.692   7.321  13.104  0.00  0.00    +0.000 HD
ATOM     25  H   UNL     1      52.481   7.727  14.104  0.00  0.00    +0.000 HD
ENDBRANCH  22  23
ENDBRANCH  16  22
ENDBRANCH  15  19
ENDBRANCH   1  15
TORSDOF 5
ENDMDL
