MODEL 1
REMARK VINA RESULT:    -8.597      0.000      0.000
REMARK INTER + INTRA:         -11.798
REMARK INTER:                 -11.110
REMARK INTRA:                  -0.689
REMARK UNBOUND:                -0.689
REMARK  Name = 
REMARK  5 active torsions:
REMARK  status: ('A' for Active; 'I' for Inactive)
REMARK    1  A    between atoms: C_2  and  C_4
REMARK    2  A    between atoms: C_7  and  O_8
REMARK    3  A    between atoms: O_8  and  C_9
REMARK    4  A    between atoms: C_9  and  C_10
REMARK    5  A    between atoms: C_14  and  C_15
REMARK                            x       y       z     vdW  Elec       q    Type
REMARK                         _______ _______ _______ _____ _____    ______ ____
ROOT
ATOM      1  C   UNL     1      43.383   4.518  11.258  0.00  0.00    +0.000 C 
ENDROOT
BRANCH   1   2
ATOM      2  C   UNL     1      44.617   4.824  12.069  0.00  0.00    +0.000 A 
ATOM      3  C   UNL     1      45.100   3.892  12.981  0.00  0.00    +0.000 A 
ATOM      4  N   UNL     1      46.237   4.079  13.685  0.00  0.00    +0.000 NA
ATOM      5  C   UNL     1      46.878   5.248  13.443  0.00  0.00    +0.000 A 
ATOM      6  C   UNL     1      46.424   6.206  12.535  0.00  0.00    +0.000 A 
ATOM      7  N   UNL     1      45.275   5.995  11.838  0.00  0.00    +0.000 NA
BRANCH   6   8
ATOM      8  C   UNL     1      47.143   7.460  12.253  0.00  0.00    +0.000 A 
ATOM      9  C   UNL     1      46.498   8.702  12.332  0.00  0.00    +0.000 A 
ATOM     10  C   UNL     1      47.208   9.859  12.043  0.00  0.00    +0.000 A 
ATOM     11  N   UNL     1      48.503   9.875  11.680  0.00  0.00    +0.000 NA
ATOM     12  C   UNL     1      49.111   8.676  11.600  0.00  0.00    +0.000 A 
ATOM     13  F   UNL     1      50.398   8.657  11.226  0.00  0.00    +0.000 F 
ATOM     14  C   UNL     1      48.492   7.468  11.872  0.00  0.00    +0.000 A 
ENDBRANCH   6   8
ENDBRANCH   1   2
BRANCH   1  15
ATOM     15  O   UNL     1      43.645   4.740   9.871  0.00  0.00    +0.000 OA
BRANCH  15  19
ATOM     16  C   UNL     1      46.295   2.246   7.826  0.00  0.00    +0.000 A 
ATOM     17  C   UNL     1      45.389   1.666   8.721  0.00  0.00    +0.000 A 
ATOM     18  C   UNL     1      44.485   2.467   9.429  0.00  0.00    +0.000 A 
ATOM     19  C   UNL     1      44.481   3.852   9.250  0.00  0.00    +0.000 A 
ATOM     20  C   UNL     1      45.399   4.429   8.368  0.00  0.00    +0.000 A 
ATOM     21  C   UNL     1      46.308   3.636   7.663  0.00  0.00    +0.000 A 
BRANCH  16  23
ATOM     22  N   UNL     1      48.368   2.070   6.563  0.00  0.00    +0.000 N 
ATOM     23  C   UNL     1      47.266   1.428   7.057  0.00  0.00    +0.000 C 
ATOM     24  O   UNL     1      47.115   0.222   6.904  0.00  0.00    +0.000 OA
ATOM     25  H   UNL     1      49.076   1.480   6.142  0.00  0.00    +0.000 HD
ATOM     26  H   UNL     1      48.653   2.982   6.888  0.00  0.00    +0.000 HD
ENDBRANCH  16  23
ENDBRANCH  15  19
ENDBRANCH   1  15
TORSDOF 5
ENDMDL
MODEL 2
REMARK VINA RESULT:    -8.428      2.394      3.659
REMARK INTER + INTRA:         -11.581
REMARK INTER:                 -10.970
REMARK INTRA:                  -0.611
REMARK UNBOUND:                -0.689
REMARK  Name = 
REMARK  5 active torsions:
REMARK  status: ('A' for Active; 'I' for Inactive)
REMARK    1  A    between atoms: C_2  and  C_4
REMARK    2  A    between atoms: C_7  and  O_8
REMARK    3  A    between atoms: O_8  and  C_9
REMARK    4  A    between atoms: C_9  and  C_10
REMARK    5  A    between atoms: C_14  and  C_15
REMARK                            x       y       z     vdW  Elec       q    Type
REMARK                         _______ _______ _______ _____ _____    ______ ____
ROOT
ATOM      1  C   UNL     1      43.685   4.488  11.420  0.00  0.00    +0.000 C 
ENDROOT
BRANCH   1   2
ATOM      2  C   UNL     1      44.760   5.415  11.931  0.00  0.00    +0.000 A 
ATOM      3  C   UNL     1      44.903   6.684  11.383  0.00  0.00    +0.000 A 
ATOM      4  N   UNL     1      45.799   7.584  11.843  0.00  0.00    +0.000 NA
ATOM      5  C   UNL     1      46.558   7.159  12.882  0.00  0.00    +0.000 A 
ATOM      6  C   UNL     1      46.442   5.893  13.459  0.00  0.00    +0.000 A 
ATOM      7  N   UNL     1      45.533   5.004  12.976  0.00  0.00    +0.000 NA
BRANCH   6   8
ATOM      8  C   UNL     1      47.248   5.450  14.610  0.00  0.00    +0.000 A 
ATOM      9  C   UNL     1      48.251   6.265  15.151  0.00  0.00    +0.000 A 
ATOM     10  C   UNL     1      48.999   5.804  16.226  0.00  0.00    +0.000 A 
ATOM     11  N   UNL     1      48.827   4.598  16.798  0.00  0.00    +0.000 NA
ATOM     12  C   UNL     1      47.865   3.821  16.265  0.00  0.00    +0.000 A 
ATOM     13  F   UNL     1      47.679   2.608  16.803  0.00  0.00    +0.000 F 
ATOM     14  C   UNL     1      47.065   4.192  15.198  0.00  0.00    +0.000 A 
ENDBRANCH   6   8
ENDBRANCH   1   2
BRANCH   1  15
ATOM     15  O   UNL     1      43.588   4.592   9.999  0.00  0.00    +0.000 OA
BRANCH  15  19
ATOM     16  C   UNL     1      46.335   2.258   7.894  0.00  0.00    +0.000 A 
ATOM     17  C   UNL     1      46.328   3.640   7.675  0.00  0.00    +0.000 A 
ATOM     18  C   UNL     1      45.420   4.458   8.359  0.00  0.00    +0.000 A 
ATOM     19  C   UNL     1      44.514   3.903   9.263  0.00  0.00    +0.000 A 
ATOM     20  C   UNL     1      44.513   2.520   9.467  0.00  0.00    +0.000 A 
ATOM     21  C   UNL     1      45.412   1.697   8.783  0.00  0.00    +0.000 A 
BRANCH  16  23
ATOM     22  N   UNL     1      48.365   1.943   6.588  0.00  0.00    +0.000 N 
ATOM     23  C   UNL     1      47.283   1.360   7.189  0.00  0.00    +0.000 C 
ATOM     24  O   UNL     1      47.134   0.144   7.179  0.00  0.00    +0.000 OA
ATOM     25  H   UNL     1      49.061   1.311   6.213  0.00  0.00    +0.000 HD
ATOM     26  H   UNL     1      48.655   2.886   6.799  0.00  0.00    +0.000 HD
ENDBRANCH  16  23
ENDBRANCH  15  19
ENDBRANCH   1  15
TORSDOF 5
ENDMDL
MODEL 3
REMARK VINA RESULT:    -8.402      2.001      2.465
REMARK INTER + INTRA:         -11.547
REMARK INTER:                 -10.881
REMARK INTRA:                  -0.666
REMARK UNBOUND:                -0.689
REMARK  Name = 
REMARK  5 active torsions:
REMARK  status: ('A' for Active; 'I' for Inactive)
REMARK    1  A    between atoms: C_2  and  C_4
REMARK    2  A    between atoms: C_7  and  O_8
REMARK    3  A    between atoms: O_8  and  C_9
REMARK    4  A    between atoms: C_9  and  C_10
REMARK    5  A    between atoms: C_14  and  C_15
REMARK                            x       y       z     vdW  Elec       q    Type
REMARK                         _______ _______ _______ _____ _____    ______ ____
ROOT
ATOM      1  C   UNL     1      43.941   3.239  11.847  0.00  0.00    +0.000 C 
ENDROOT
BRANCH   1   2
ATOM      2  C   UNL     1      44.955   4.226  12.369  0.00  0.00    +0.000 A 
ATOM      3  C   UNL     1      46.061   3.776  13.083  0.00  0.00    +0.000 A 
ATOM      4  N   UNL     1      47.038   4.603  13.516  0.00  0.00    +0.000 NA
ATOM      5  C   UNL     1      46.863   5.911  13.206  0.00  0.00    +0.000 A 
ATOM      6  C   UNL     1      45.769   6.397  12.490  0.00  0.00    +0.000 A 
ATOM      7  N   UNL     1      44.797   5.545  12.066  0.00  0.00    +0.000 NA
BRANCH   6   8
ATOM      8  C   UNL     1      45.602   7.816  12.129  0.00  0.00    +0.000 A 
ATOM      9  C   UNL     1      46.553   8.776  12.499  0.00  0.00    +0.000 A 
ATOM     10  C   UNL     1      46.352  10.105  12.153  0.00  0.00    +0.000 A 
ATOM     11  N   UNL     1      45.279  10.549  11.472  0.00  0.00    +0.000 NA
ATOM     12  C   UNL     1      44.369   9.619  11.127  0.00  0.00    +0.000 A 
ATOM     13  F   UNL     1      43.282  10.032  10.461  0.00  0.00    +0.000 F 
ATOM     14  C   UNL     1      44.482   8.271  11.422  0.00  0.00    +0.000 A 
ENDBRANCH   6   8
ENDBRANCH   1   2
BRANCH   1  15
ATOM     15  O   UNL     1      43.564   3.588  10.514  0.00  0.00    +0.000 OA
BRANCH  15  19
ATOM     16  C   UNL     1      46.408   2.680   7.597  0.00  0.00    +0.000 A 
ATOM     17  C   UNL     1      46.034   4.017   7.770  0.00  0.00    +0.000 A 
ATOM     18  C   UNL     1      45.081   4.363   8.736  0.00  0.00    +0.000 A 
ATOM     19  C   UNL     1      44.495   3.379   9.533  0.00  0.00    +0.000 A 
ATOM     20  C   UNL     1      44.859   2.042   9.346  0.00  0.00    +0.000 A 
ATOM     21  C   UNL     1      45.805   1.689   8.379  0.00  0.00    +0.000 A 
BRANCH  16  23
ATOM     22  N   UNL     1      47.412   2.951   5.397  0.00  0.00    +0.000 N 
ATOM     23  C   UNL     1      47.416   2.275   6.586  0.00  0.00    +0.000 C 
ATOM     24  O   UNL     1      48.246   1.404   6.815  0.00  0.00    +0.000 OA
ATOM     25  H   UNL     1      48.176   2.745   4.764  0.00  0.00    +0.000 HD
ATOM     26  H   UNL     1      46.931   3.830   5.278  0.00  0.00    +0.000 HD
ENDBRANCH  16  23
ENDBRANCH  15  19
ENDBRANCH   1  15
TORSDOF 5
ENDMDL
MODEL 4
REMARK VINA RESULT:    -7.971      1.407      2.195
REMARK INTER + INTRA:         -10.990
REMARK INTER:                 -10.503
REMARK INTRA:                  -0.486
REMARK UNBOUND:                -0.689
REMARK  Name = 
REMARK  5 active torsions:
REMARK  status: ('A' for Active; 'I' for Inactive)
REMARK    1  A    between atoms: C_2  and  C_4
REMARK    2  A    between atoms: C_7  and  O_8
REMARK    3  A    between atoms: O_8  and  C_9
REMARK    4  A    between atoms: C_9  and  C_10
REMARK    5  A    between atoms: C_14  and  C_15
REMARK                            x       y       z     vdW  Elec       q    Type
REMARK                         _______ _______ _______ _____ _____    ______ ____
ROOT
ATOM      1  C   UNL     1      44.104   3.893  11.752  0.00  0.00    +0.000 C 
ENDROOT
BRANCH   1   2
ATOM      2  C   UNL     1      44.576   5.326  11.718  0.00  0.00    +0.000 A 
ATOM      3  C   UNL     1      43.680   6.347  11.421  0.00  0.00    +0.000 A 
ATOM      4  N   UNL     1      44.025   7.653  11.443  0.00  0.00    +0.000 NA
ATOM      5  C   UNL     1      45.315   7.901  11.774  0.00  0.00    +0.000 A 
ATOM      6  C   UNL     1      46.241   6.903  12.079  0.00  0.00    +0.000 A 
ATOM      7  N   UNL     1      45.870   5.594  12.049  0.00  0.00    +0.000 NA
BRANCH   6   8
ATOM      8  C   UNL     1      47.634   7.182  12.470  0.00  0.00    +0.000 A 
ATOM      9  C   UNL     1      48.063   7.022  13.795  0.00  0.00    +0.000 A 
ATOM     10  C   UNL     1      49.380   7.311  14.126  0.00  0.00    +0.000 A 
ATOM     11  N   UNL     1      50.297   7.747  13.243  0.00  0.00    +0.000 NA
ATOM     12  C   UNL     1      49.873   7.903  11.975  0.00  0.00    +0.000 A 
ATOM     13  F   UNL     1      50.759   8.350  11.074  0.00  0.00    +0.000 F 
ATOM     14  C   UNL     1      48.583   7.638  11.546  0.00  0.00    +0.000 A 
ENDBRANCH   6   8
ENDBRANCH   1   2
BRANCH   1  15
ATOM     15  O   UNL     1      43.613   3.512  10.466  0.00  0.00    +0.000 OA
BRANCH  15  19
ATOM     16  C   UNL     1      46.471   2.642   7.550  0.00  0.00    +0.000 A 
ATOM     17  C   UNL     1      46.031   3.965   7.680  0.00  0.00    +0.000 A 
ATOM     18  C   UNL     1      45.072   4.298   8.644  0.00  0.00    +0.000 A 
ATOM     19  C   UNL     1      44.544   3.314   9.482  0.00  0.00    +0.000 A 
ATOM     20  C   UNL     1      44.973   1.992   9.338  0.00  0.00    +0.000 A 
ATOM     21  C   UNL     1      45.926   1.652   8.374  0.00  0.00    +0.000 A 
BRANCH  16  23
ATOM     22  N   UNL     1      47.458   2.907   5.342  0.00  0.00    +0.000 N 
ATOM     23  C   UNL     1      47.488   2.252   6.542  0.00  0.00    +0.000 C 
ATOM     24  O   UNL     1      48.346   1.412   6.783  0.00  0.00    +0.000 OA
ATOM     25  H   UNL     1      48.226   2.714   4.710  0.00  0.00    +0.000 HD
ATOM     26  H   UNL     1      46.949   3.768   5.209  0.00  0.00    +0.000 HD
ENDBRANCH  16  23
ENDBRANCH  15  19
ENDBRANCH   1  15
TORSDOF 5
ENDMDL
MODEL 5
REMARK VINA RESULT:    -7.711      3.017      6.600
REMARK INTER + INTRA:         -10.654
REMARK INTER:                  -9.962
REMARK INTRA:                  -0.692
REMARK UNBOUND:                -0.689
REMARK  Name = 
REMARK  5 active torsions:
REMARK  status: ('A' for Active; 'I' for Inactive)
REMARK    1  A    between atoms: C_2  and  C_4
REMARK    2  A    between atoms: C_7  and  O_8
REMARK    3  A    between atoms: O_8  and  C_9
REMARK    4  A    between atoms: C_9  and  C_10
REMARK    5  A    between atoms: C_14  and  C_15
REMARK                            x       y       z     vdW  Elec       q    Type
REMARK                         _______ _______ _______ _____ _____    ______ ____
ROOT
ATOM      1  C   UNL     1      43.741   6.284  11.110  0.00  0.00    +0.000 C 
ENDROOT
BRANCH   1   2
ATOM      2  C   UNL     1      43.889   4.809  10.832  0.00  0.00    +0.000 A 
ATOM      3  C   UNL     1      43.167   3.884  11.578  0.00  0.00    +0.000 A 
ATOM      4  N   UNL     1      43.204   2.556  11.331  0.00  0.00    +0.000 NA
ATOM      5  C   UNL     1      44.002   2.185  10.301  0.00  0.00    +0.000 A 
ATOM      6  C   UNL     1      44.739   3.084   9.530  0.00  0.00    +0.000 A 
ATOM      7  N   UNL     1      44.687   4.417   9.798  0.00  0.00    +0.000 NA
BRANCH   6   8
ATOM      8  C   UNL     1      45.579   2.676   8.390  0.00  0.00    +0.000 A 
ATOM      9  C   UNL     1      46.177   1.410   8.345  0.00  0.00    +0.000 A 
ATOM     10  C   UNL     1      46.974   1.069   7.260  0.00  0.00    +0.000 A 
ATOM     11  N   UNL     1      47.222   1.891   6.224  0.00  0.00    +0.000 NA
ATOM     12  C   UNL     1      46.648   3.108   6.281  0.00  0.00    +0.000 A 
ATOM     13  F   UNL     1      46.887   3.955   5.271  0.00  0.00    +0.000 F 
ATOM     14  C   UNL     1      45.835   3.538   7.315  0.00  0.00    +0.000 A 
ENDBRANCH   6   8
ENDBRANCH   1   2
BRANCH   1  15
ATOM     15  O   UNL     1      44.218   6.582  12.423  0.00  0.00    +0.000 OA
BRANCH  15  19
ATOM     16  C   UNL     1      48.333   7.201  12.746  0.00  0.00    +0.000 A 
ATOM     17  C   UNL     1      47.799   6.003  13.233  0.00  0.00    +0.000 A 
ATOM     18  C   UNL     1      46.423   5.757  13.146  0.00  0.00    +0.000 A 
ATOM     19  C   UNL     1      45.573   6.706  12.575  0.00  0.00    +0.000 A 
ATOM     20  C   UNL     1      46.108   7.908  12.105  0.00  0.00    +0.000 A 
ATOM     21  C   UNL     1      47.479   8.162  12.194  0.00  0.00    +0.000 A 
BRANCH  16  23
ATOM     22  N   UNL     1      50.505   7.373  11.661  0.00  0.00    +0.000 N 
ATOM     23  C   UNL     1      49.786   7.494  12.818  0.00  0.00    +0.000 C 
ATOM     24  O   UNL     1      50.317   7.871  13.856  0.00  0.00    +0.000 OA
ATOM     25  H   UNL     1      51.468   7.688  11.700  0.00  0.00    +0.000 HD
ATOM     26  H   UNL     1      50.065   7.327  10.755  0.00  0.00    +0.000 HD
ENDBRANCH  16  23
ENDBRANCH  15  19
ENDBRANCH   1  15
TORSDOF 5
ENDMDL
MODEL 6
REMARK VINA RESULT:    -7.482      3.466      7.206
REMARK INTER + INTRA:         -10.358
REMARK INTER:                 -10.141
REMARK INTRA:                  -0.216
REMARK UNBOUND:                -0.689
REMARK  Name = 
REMARK  5 active torsions:
REMARK  status: ('A' for Active; 'I' for Inactive)
REMARK    1  A    between atoms: C_2  and  C_4
REMARK    2  A    between atoms: C_7  and  O_8
REMARK    3  A    between atoms: O_8  and  C_9
REMARK    4  A    between atoms: C_9  and  C_10
REMARK    5  A    between atoms: C_14  and  C_15
REMARK                            x       y       z     vdW  Elec       q    Type
REMARK                         _______ _______ _______ _____ _____    ______ ____
ROOT
ATOM      1  C   UNL     1      46.123   7.196  11.777  0.00  0.00    +0.000 C 
ENDROOT
BRANCH   1   2
ATOM      2  C   UNL     1      45.279   6.139  11.110  0.00  0.00    +0.000 A 
ATOM      3  C   UNL     1      43.912   6.082  11.356  0.00  0.00    +0.000 A 
ATOM      4  N   UNL     1      43.093   5.204  10.736  0.00  0.00    +0.000 NA
ATOM      5  C   UNL     1      43.700   4.374   9.854  0.00  0.00    +0.000 A 
ATOM      6  C   UNL     1      45.069   4.404   9.581  0.00  0.00    +0.000 A 
ATOM      7  N   UNL     1      45.873   5.296  10.219  0.00  0.00    +0.000 NA
BRANCH   6   8
ATOM      8  C   UNL     1      45.718   3.521   8.596  0.00  0.00    +0.000 A 
ATOM      9  C   UNL     1      46.318   4.038   7.440  0.00  0.00    +0.000 A 
ATOM     10  C   UNL     1      46.905   3.171   6.529  0.00  0.00    +0.000 A 
ATOM     11  N   UNL     1      46.937   1.834   6.680  0.00  0.00    +0.000 NA
ATOM     12  C   UNL     1      46.352   1.347   7.790  0.00  0.00    +0.000 A 
ATOM     13  F   UNL     1      46.354   0.018   7.961  0.00  0.00    +0.000 F 
ATOM     14  C   UNL     1      45.745   2.129   8.758  0.00  0.00    +0.000 A 
ENDBRANCH   6   8
ENDBRANCH   1   2
BRANCH   1  15
ATOM     15  O   UNL     1      47.397   6.653  12.125  0.00  0.00    +0.000 OA
BRANCH  15  19
ATOM     16  C   UNL     1      47.542   4.671  15.796  0.00  0.00    +0.000 A 
ATOM     17  C   UNL     1      48.238   5.878  15.662  0.00  0.00    +0.000 A 
ATOM     18  C   UNL     1      48.217   6.572  14.446  0.00  0.00    +0.000 A 
ATOM     19  C   UNL     1      47.504   6.067  13.358  0.00  0.00    +0.000 A 
ATOM     20  C   UNL     1      46.824   4.853  13.491  0.00  0.00    +0.000 A 
ATOM     21  C   UNL     1      46.846   4.151  14.699  0.00  0.00    +0.000 A 
BRANCH  16  23
ATOM     22  N   UNL     1      48.587   4.116  17.922  0.00  0.00    +0.000 N 
ATOM     23  C   UNL     1      47.539   3.908  17.069  0.00  0.00    +0.000 C 
ATOM     24  O   UNL     1      46.619   3.156  17.369  0.00  0.00    +0.000 OA
ATOM     25  H   UNL     1      48.514   3.679  18.834  0.00  0.00    +0.000 HD
ATOM     26  H   UNL     1      49.208   4.906  17.832  0.00  0.00    +0.000 HD
ENDBRANCH  16  23
ENDBRANCH  15  19
ENDBRANCH   1  15
TORSDOF 5
ENDMDL
MODEL 7
REMARK VINA RESULT:    -7.469      3.231      7.029
REMARK INTER + INTRA:         -10.341
REMARK INTER:                  -9.829
REMARK INTRA:                  -0.512
REMARK UNBOUND:                -0.689
REMARK  Name = 
REMARK  5 active torsions:
REMARK  status: ('A' for Active; 'I' for Inactive)
REMARK    1  A    between atoms: C_2  and  C_4
REMARK    2  A    between atoms: C_7  and  O_8
REMARK    3  A    between atoms: O_8  and  C_9
REMARK    4  A    between atoms: C_9  and  C_10
REMARK    5  A    between atoms: C_14  and  C_15
REMARK                            x       y       z     vdW  Elec       q    Type
REMARK                         _______ _______ _______ _____ _____    ______ ____
ROOT
ATOM      1  C   UNL     1      43.794   6.456  11.446  0.00  0.00    +0.000 C 
ENDROOT
BRANCH   1   2
ATOM      2  C   UNL     1      43.894   4.989  11.111  0.00  0.00    +0.000 A 
ATOM      3  C   UNL     1      43.130   4.061  11.811  0.00  0.00    +0.000 A 
ATOM      4  N   UNL     1      43.124   2.744  11.512  0.00  0.00    +0.000 NA
ATOM      5  C   UNL     1      43.922   2.385  10.478  0.00  0.00    +0.000 A 
ATOM      6  C   UNL     1      44.700   3.288   9.752  0.00  0.00    +0.000 A 
ATOM      7  N   UNL     1      44.691   4.610  10.072  0.00  0.00    +0.000 NA
BRANCH   6   8
ATOM      8  C   UNL     1      45.541   2.896   8.607  0.00  0.00    +0.000 A 
ATOM      9  C   UNL     1      45.947   3.834   7.648  0.00  0.00    +0.000 A 
ATOM     10  C   UNL     1      46.725   3.421   6.575  0.00  0.00    +0.000 A 
ATOM     11  N   UNL     1      47.125   2.150   6.384  0.00  0.00    +0.000 NA
ATOM     12  C   UNL     1      46.724   1.256   7.307  0.00  0.00    +0.000 A 
ATOM     13  F   UNL     1      47.094  -0.020   7.137  0.00  0.00    +0.000 F 
ATOM     14  C   UNL     1      45.952   1.570   8.412  0.00  0.00    +0.000 A 
ENDBRANCH   6   8
ENDBRANCH   1   2
BRANCH   1  15
ATOM     15  O   UNL     1      44.971   7.136  11.009  0.00  0.00    +0.000 OA
BRANCH  15  19
ATOM     16  C   UNL     1      48.014   7.615  13.826  0.00  0.00    +0.000 A 
ATOM     17  C   UNL     1      47.022   8.599  13.742  0.00  0.00    +0.000 A 
ATOM     18  C   UNL     1      45.986   8.478  12.808  0.00  0.00    +0.000 A 
ATOM     19  C   UNL     1      45.934   7.376  11.953  0.00  0.00    +0.000 A 
ATOM     20  C   UNL     1      46.935   6.404  12.029  0.00  0.00    +0.000 A 
ATOM     21  C   UNL     1      47.976   6.522  12.954  0.00  0.00    +0.000 A 
BRANCH  16  23
ATOM     22  N   UNL     1      49.243   8.878  15.505  0.00  0.00    +0.000 N 
ATOM     23  C   UNL     1      49.126   7.710  14.805  0.00  0.00    +0.000 C 
ATOM     24  O   UNL     1      49.884   6.770  15.012  0.00  0.00    +0.000 OA
ATOM     25  H   UNL     1      49.932   8.886  16.248  0.00  0.00    +0.000 HD
ATOM     26  H   UNL     1      48.497   9.556  15.553  0.00  0.00    +0.000 HD
ENDBRANCH  16  23
ENDBRANCH  15  19
ENDBRANCH   1  15
TORSDOF 5
ENDMDL
MODEL 8
REMARK VINA RESULT:    -7.062      4.371      7.838
REMARK INTER + INTRA:          -9.815
REMARK INTER:                  -9.348
REMARK INTRA:                  -0.468
REMARK UNBOUND:                -0.689
REMARK  Name = 
REMARK  5 active torsions:
REMARK  status: ('A' for Active; 'I' for Inactive)
REMARK    1  A    between atoms: C_2  and  C_4
REMARK    2  A    between atoms: C_7  and  O_8
REMARK    3  A    between atoms: O_8  and  C_9
REMARK    4  A    between atoms: C_9  and  C_10
REMARK    5  A    between atoms: C_14  and  C_15
REMARK                            x       y       z     vdW  Elec       q    Type
REMARK                         _______ _______ _______ _____ _____    ______ ____
ROOT
ATOM      1  C   UNL     1      45.936   5.157  13.998  0.00  0.00    +0.000 C 
ENDROOT
BRANCH   1   2
ATOM      2  C   UNL     1      45.020   4.879  12.833  0.00  0.00    +0.000 A 
ATOM      3  C   UNL     1      43.689   5.279  12.883  0.00  0.00    +0.000 A 
ATOM      4  N   UNL     1      42.838   5.121  11.846  0.00  0.00    +0.000 NA
ATOM      5  C   UNL     1      43.374   4.539  10.746  0.00  0.00    +0.000 A 
ATOM      6  C   UNL     1      44.704   4.127  10.659  0.00  0.00    +0.000 A 
ATOM      7  N   UNL     1      45.542   4.295  11.717  0.00  0.00    +0.000 NA
BRANCH   6   8
ATOM      8  C   UNL     1      45.289   3.525   9.448  0.00  0.00    +0.000 A 
ATOM      9  C   UNL     1      45.694   4.317   8.365  0.00  0.00    +0.000 A 
ATOM     10  C   UNL     1      46.226   3.710   7.236  0.00  0.00    +0.000 A 
ATOM     11  N   UNL     1      46.381   2.380   7.102  0.00  0.00    +0.000 NA
ATOM     12  C   UNL     1      45.981   1.628   8.144  0.00  0.00    +0.000 A 
ATOM     13  F   UNL     1      46.109   0.298   8.036  0.00  0.00    +0.000 F 
ATOM     14  C   UNL     1      45.445   2.139   9.314  0.00  0.00    +0.000 A 
ENDBRANCH   6   8
ENDBRANCH   1   2
BRANCH   1  15
ATOM     15  O   UNL     1      46.421   3.927  14.540  0.00  0.00    +0.000 OA
BRANCH  15  19
ATOM     16  C   UNL     1      49.356   4.468  17.458  0.00  0.00    +0.000 A 
ATOM     17  C   UNL     1      48.882   3.173  17.221  0.00  0.00    +0.000 A 
ATOM     18  C   UNL     1      47.896   2.949  16.252  0.00  0.00    +0.000 A 
ATOM     19  C   UNL     1      47.375   4.015  15.517  0.00  0.00    +0.000 A 
ATOM     20  C   UNL     1      47.839   5.309  15.769  0.00  0.00    +0.000 A 
ATOM     21  C   UNL     1      48.818   5.540  16.739  0.00  0.00    +0.000 A 
BRANCH  16  23
ATOM     22  N   UNL     1      51.175   3.688  18.875  0.00  0.00    +0.000 N 
ATOM     23  C   UNL     1      50.401   4.743  18.475  0.00  0.00    +0.000 C 
ATOM     24  O   UNL     1      50.597   5.872  18.910  0.00  0.00    +0.000 OA
ATOM     25  H   UNL     1      51.956   3.913  19.479  0.00  0.00    +0.000 HD
ATOM     26  H   UNL     1      51.219   2.824  18.356  0.00  0.00    +0.000 HD
ENDBRANCH  16  23
ENDBRANCH  15  19
ENDBRANCH   1  15
TORSDOF 5
ENDMDL
MODEL 9
REMARK VINA RESULT:    -6.816      3.951      7.835
REMARK INTER + INTRA:          -9.497
REMARK INTER:                  -8.984
REMARK INTRA:                  -0.513
REMARK UNBOUND:                -0.689
REMARK  Name = 
REMARK  5 active torsions:
REMARK  status: ('A' for Active; 'I' for Inactive)
REMARK    1  A    between atoms: C_2  and  C_4
REMARK    2  A    between atoms: C_7  and  O_8
REMARK    3  A    between atoms: O_8  and  C_9
REMARK    4  A    between atoms: C_9  and  C_10
REMARK    5  A    between atoms: C_14  and  C_15
REMARK                            x       y       z     vdW  Elec       q    Type
REMARK                         _______ _______ _______ _____ _____    ______ ____
ROOT
ATOM      1  C   UNL     1      46.456   6.474  13.245  0.00  0.00    +0.000 C 
ENDROOT
BRANCH   1   2
ATOM      2  C   UNL     1      45.402   5.745  12.449  0.00  0.00    +0.000 A 
ATOM      3  C   UNL     1      44.058   5.908  12.762  0.00  0.00    +0.000 A 
ATOM      4  N   UNL     1      43.065   5.338  12.044  0.00  0.00    +0.000 NA
ATOM      5  C   UNL     1      43.474   4.589  10.991  0.00  0.00    +0.000 A 
ATOM      6  C   UNL     1      44.814   4.405  10.647  0.00  0.00    +0.000 A 
ATOM      7  N   UNL     1      45.795   4.988  11.386  0.00  0.00    +0.000 NA
BRANCH   6   8
ATOM      8  C   UNL     1      45.249   3.616   9.481  0.00  0.00    +0.000 A 
ATOM      9  C   UNL     1      45.195   2.216   9.490  0.00  0.00    +0.000 A 
ATOM     10  C   UNL     1      45.630   1.508   8.378  0.00  0.00    +0.000 A 
ATOM     11  N   UNL     1      46.115   2.087   7.263  0.00  0.00    +0.000 NA
ATOM     12  C   UNL     1      46.169   3.432   7.268  0.00  0.00    +0.000 A 
ATOM     13  F   UNL     1      46.660   4.037   6.178  0.00  0.00    +0.000 F 
ATOM     14  C   UNL     1      45.756   4.225   8.325  0.00  0.00    +0.000 A 
ENDBRANCH   6   8
ENDBRANCH   1   2
BRANCH   1  15
ATOM     15  O   UNL     1      47.520   5.579  13.577  0.00  0.00    +0.000 OA
BRANCH  15  19
ATOM     16  C   UNL     1      48.164   4.851  17.636  0.00  0.00    +0.000 A 
ATOM     17  C   UNL     1      48.809   5.942  17.044  0.00  0.00    +0.000 A 
ATOM     18  C   UNL     1      48.622   6.219  15.684  0.00  0.00    +0.000 A 
ATOM     19  C   UNL     1      47.792   5.409  14.908  0.00  0.00    +0.000 A 
ATOM     20  C   UNL     1      47.162   4.311  15.499  0.00  0.00    +0.000 A 
ATOM     21  C   UNL     1      47.350   4.025  16.854  0.00  0.00    +0.000 A 
BRANCH  16  23
ATOM     22  N   UNL     1      48.491   3.209  19.403  0.00  0.00    +0.000 N 
ATOM     23  C   UNL     1      48.336   4.528  19.075  0.00  0.00    +0.000 C 
ATOM     24  O   UNL     1      48.382   5.403  19.931  0.00  0.00    +0.000 OA
ATOM     25  H   UNL     1      48.723   3.015  20.370  0.00  0.00    +0.000 HD
ATOM     26  H   UNL     1      48.721   2.506  18.717  0.00  0.00    +0.000 HD
ENDBRANCH  16  23
ENDBRANCH  15  19
ENDBRANCH   1  15
TORSDOF 5
ENDMDL
