MODEL 1
REMARK VINA RESULT:    -8.466      0.000      0.000
REMARK INTER + INTRA:         -13.211
REMARK INTER:                 -11.930
REMARK INTRA:                  -1.281
REMARK UNBOUND:                -1.281
REMARK  Name = 
REMARK  7 active torsions:
REMARK  status: ('A' for Active; 'I' for Inactive)
REMARK    1  A    between atoms: C_2  and  C_3
REMARK    2  A    between atoms: C_3  and  N_4
REMARK    3  A    between atoms: C_5  and  C_7
REMARK    4  A    between atoms: N_17  and  C_18
REMARK    5  A    between atoms: C_18  and  C_19
REMARK    6  A    between atoms: C_22  and  C_23
REMARK    7  A    between atoms: C_23  and  N_24
REMARK                            x       y       z     vdW  Elec       q    Type
REMARK                         _______ _______ _______ _____ _____    ______ ____
ROOT
ATOM      1  O   UNL     1      46.714   4.865  17.826  0.00  0.00    +0.000 OA
ATOM      2  C   UNL     1      47.408   4.064  17.238  0.00  0.00    +0.000 C 
ATOM      3  N   UNL     1      47.842   4.274  15.941  0.00  0.00    +0.000 N 
ATOM      4  H   UNL     1      48.352   3.524  15.496  0.00  0.00    +0.000 HD
ENDROOT
BRANCH   2   5
ATOM      5  C   UNL     1      47.817   2.717  17.858  0.00  0.00    +0.000 C 
BRANCH   5   6
ATOM      6  N   UNL     1      49.239   2.636  18.104  0.00  0.00    +0.000 N 
ATOM      7  C   UNL     1      50.098   2.128  17.173  0.00  0.00    +0.000 C 
ATOM      8  O   UNL     1      49.680   1.664  16.113  0.00  0.00    +0.000 OA
ATOM      9  H   UNL     1      49.550   2.820  19.053  0.00  0.00    +0.000 HD
BRANCH   7  10
ATOM     10  C   UNL     1      51.526   2.129  17.495  0.00  0.00    +0.000 A 
ATOM     11  C   UNL     1      52.203   0.928  17.657  0.00  0.00    +0.000 A 
ATOM     12  S   UNL     1      53.856   1.122  18.034  0.00  0.00    +0.000 S 
ATOM     13  C   UNL     1      53.717   2.817  18.013  0.00  0.00    +0.000 A 
ATOM     14  N   UNL     1      54.781   3.612  18.303  0.00  0.00    +0.000 NA
ATOM     15  C   UNL     1      54.523   4.877  18.283  0.00  0.00    +0.000 A 
ATOM     16  N   UNL     1      53.300   5.420  17.986  0.00  0.00    +0.000 N 
ATOM     17  C   UNL     1      52.210   4.663  17.652  0.00  0.00    +0.000 A 
ATOM     18  O   UNL     1      51.139   5.191  17.369  0.00  0.00    +0.000 OA
ATOM     19  C   UNL     1      52.435   3.230  17.697  0.00  0.00    +0.000 A 
ATOM     20  H   UNL     1      53.167   6.419  17.974  0.00  0.00    +0.000 HD
ENDBRANCH   7  10
ENDBRANCH   5   6
ENDBRANCH   2   5
BRANCH   3  21
ATOM     21  C   UNL     1      47.552   5.477  15.184  0.00  0.00    +0.000 C 
BRANCH  21  22
ATOM     22  C   UNL     1      46.686   5.202  13.971  0.00  0.00    +0.000 A 
ATOM     23  C   UNL     1      46.297   3.897  13.650  0.00  0.00    +0.000 A 
ATOM     24  C   UNL     1      45.482   3.633  12.535  0.00  0.00    +0.000 A 
ATOM     25  C   UNL     1      45.046   4.670  11.692  0.00  0.00    +0.000 A 
ATOM     26  C   UNL     1      45.432   5.978  12.026  0.00  0.00    +0.000 A 
ATOM     27  C   UNL     1      46.240   6.242  13.144  0.00  0.00    +0.000 A 
BRANCH  25  28
ATOM     28  C   UNL     1      44.257   4.421  10.422  0.00  0.00    +0.000 C 
BRANCH  28  29
ATOM     29  N   UNL     1      44.869   3.503   9.484  0.00  0.00    +0.000 N 
ATOM     30  C   UNL     1      45.702   3.992   8.503  0.00  0.00    +0.000 C 
ATOM     31  O   UNL     1      45.923   5.189   8.343  0.00  0.00    +0.000 OA
ATOM     32  N   UNL     1      46.281   3.011   7.728  0.00  0.00    +0.000 N 
ATOM     33  C   UNL     1      46.064   1.577   7.798  0.00  0.00    +0.000 C 
ATOM     34  C   UNL     1      47.335   1.012   7.192  0.00  0.00    +0.000 C 
ATOM     35  C   UNL     1      47.666   2.008   6.083  0.00  0.00    +0.000 C 
ATOM     36  C   UNL     1      47.090   3.342   6.568  0.00  0.00    +0.000 C 
ATOM     37  H   UNL     1      45.261   2.677   9.892  0.00  0.00    +0.000 HD
ENDBRANCH  28  29
ENDBRANCH  25  28
ENDBRANCH  21  22
ENDBRANCH   3  21
TORSDOF 7
ENDMDL
MODEL 2
REMARK VINA RESULT:    -8.006      2.717      4.211
REMARK INTER + INTRA:         -12.564
REMARK INTER:                 -11.806
REMARK INTRA:                  -0.757
REMARK UNBOUND:                -1.281
REMARK  Name = 
REMARK  7 active torsions:
REMARK  status: ('A' for Active; 'I' for Inactive)
REMARK    1  A    between atoms: C_2  and  C_3
REMARK    2  A    between atoms: C_3  and  N_4
REMARK    3  A    between atoms: C_5  and  C_7
REMARK    4  A    between atoms: N_17  and  C_18
REMARK    5  A    between atoms: C_18  and  C_19
REMARK    6  A    between atoms: C_22  and  C_23
REMARK    7  A    between atoms: C_23  and  N_24
REMARK                            x       y       z     vdW  Elec       q    Type
REMARK                         _______ _______ _______ _____ _____    ______ ____
ROOT
ATOM      1  O   UNL     1      48.224   9.737  12.671  0.00  0.00    +0.000 OA
ATOM      2  C   UNL     1      48.292   8.785  13.418  0.00  0.00    +0.000 C 
ATOM      3  N   UNL     1      47.207   7.967  13.677  0.00  0.00    +0.000 N 
ATOM      4  H   UNL     1      47.328   7.243  14.370  0.00  0.00    +0.000 HD
ENDROOT
BRANCH   2   5
ATOM      5  C   UNL     1      49.576   8.437  14.192  0.00  0.00    +0.000 C 
BRANCH   5   6
ATOM      6  N   UNL     1      49.339   7.474  15.243  0.00  0.00    +0.000 N 
ATOM      7  C   UNL     1      50.368   6.904  15.936  0.00  0.00    +0.000 C 
ATOM      8  O   UNL     1      51.538   7.148  15.645  0.00  0.00    +0.000 OA
ATOM      9  H   UNL     1      48.392   7.120  15.334  0.00  0.00    +0.000 HD
BRANCH   7  10
ATOM     10  C   UNL     1      50.028   5.974  17.014  0.00  0.00    +0.000 A 
ATOM     11  C   UNL     1      50.758   5.982  18.195  0.00  0.00    +0.000 A 
ATOM     12  S   UNL     1      50.225   4.827  19.333  0.00  0.00    +0.000 S 
ATOM     13  C   UNL     1      49.015   4.266  18.278  0.00  0.00    +0.000 A 
ATOM     14  N   UNL     1      48.205   3.231  18.626  0.00  0.00    +0.000 NA
ATOM     15  C   UNL     1      47.356   2.889  17.715  0.00  0.00    +0.000 A 
ATOM     16  N   UNL     1      47.234   3.495  16.493  0.00  0.00    +0.000 N 
ATOM     17  C   UNL     1      48.000   4.564  16.112  0.00  0.00    +0.000 A 
ATOM     18  O   UNL     1      47.843   5.094  15.017  0.00  0.00    +0.000 OA
ATOM     19  C   UNL     1      49.000   4.966  17.084  0.00  0.00    +0.000 A 
ATOM     20  H   UNL     1      46.540   3.189  15.830  0.00  0.00    +0.000 HD
ENDBRANCH   7  10
ENDBRANCH   5   6
ENDBRANCH   2   5
BRANCH   3  21
ATOM     21  C   UNL     1      45.909   8.138  13.053  0.00  0.00    +0.000 C 
BRANCH  21  22
ATOM     22  C   UNL     1      45.368   6.843  12.482  0.00  0.00    +0.000 A 
ATOM     23  C   UNL     1      46.041   5.633  12.687  0.00  0.00    +0.000 A 
ATOM     24  C   UNL     1      45.540   4.424  12.173  0.00  0.00    +0.000 A 
ATOM     25  C   UNL     1      44.355   4.391  11.418  0.00  0.00    +0.000 A 
ATOM     26  C   UNL     1      43.680   5.607  11.224  0.00  0.00    +0.000 A 
ATOM     27  C   UNL     1      44.177   6.813  11.743  0.00  0.00    +0.000 A 
BRANCH  25  28
ATOM     28  C   UNL     1      43.836   3.130  10.756  0.00  0.00    +0.000 C 
BRANCH  28  29
ATOM     29  N   UNL     1      44.708   2.556   9.752  0.00  0.00    +0.000 N 
ATOM     30  C   UNL     1      45.001   3.278   8.617  0.00  0.00    +0.000 C 
ATOM     31  O   UNL     1      44.522   4.383   8.379  0.00  0.00    +0.000 OA
ATOM     32  N   UNL     1      45.902   2.654   7.781  0.00  0.00    +0.000 N 
ATOM     33  C   UNL     1      46.500   1.341   7.938  0.00  0.00    +0.000 C 
ATOM     34  C   UNL     1      47.776   1.450   7.125  0.00  0.00    +0.000 C 
ATOM     35  C   UNL     1      47.362   2.322   5.941  0.00  0.00    +0.000 C 
ATOM     36  C   UNL     1      46.235   3.208   6.481  0.00  0.00    +0.000 C 
ATOM     37  H   UNL     1      45.534   2.116  10.107  0.00  0.00    +0.000 HD
ENDBRANCH  28  29
ENDBRANCH  25  28
ENDBRANCH  21  22
ENDBRANCH   3  21
TORSDOF 7
ENDMDL
MODEL 3
REMARK VINA RESULT:    -7.937      1.796      2.632
REMARK INTER + INTRA:         -12.466
REMARK INTER:                 -11.797
REMARK INTRA:                  -0.669
REMARK UNBOUND:                -1.281
REMARK  Name = 
REMARK  7 active torsions:
REMARK  status: ('A' for Active; 'I' for Inactive)
REMARK    1  A    between atoms: C_2  and  C_3
REMARK    2  A    between atoms: C_3  and  N_4
REMARK    3  A    between atoms: C_5  and  C_7
REMARK    4  A    between atoms: N_17  and  C_18
REMARK    5  A    between atoms: C_18  and  C_19
REMARK    6  A    between atoms: C_22  and  C_23
REMARK    7  A    between atoms: C_23  and  N_24
REMARK                            x       y       z     vdW  Elec       q    Type
REMARK                         _______ _______ _______ _____ _____    ______ ____
ROOT
ATOM      1  O   UNL     1      50.143   6.987  14.923  0.00  0.00    +0.000 OA
ATOM      2  C   UNL     1      49.106   6.882  15.543  0.00  0.00    +0.000 C 
ATOM      3  N   UNL     1      47.884   7.251  15.009  0.00  0.00    +0.000 N 
ATOM      4  H   UNL     1      47.079   7.203  15.617  0.00  0.00    +0.000 HD
ENDROOT
BRANCH   2   5
ATOM      5  C   UNL     1      49.064   6.388  16.999  0.00  0.00    +0.000 C 
BRANCH   5   6
ATOM      6  N   UNL     1      50.263   5.672  17.371  0.00  0.00    +0.000 N 
ATOM      7  C   UNL     1      50.245   4.689  18.317  0.00  0.00    +0.000 C 
ATOM      8  O   UNL     1      49.213   4.421  18.931  0.00  0.00    +0.000 OA
ATOM      9  H   UNL     1      51.142   6.039  17.019  0.00  0.00    +0.000 HD
BRANCH   7  10
ATOM     10  C   UNL     1      51.500   3.989  18.594  0.00  0.00    +0.000 A 
ATOM     11  C   UNL     1      52.454   4.571  19.419  0.00  0.00    +0.000 A 
ATOM     12  S   UNL     1      53.853   3.616  19.623  0.00  0.00    +0.000 S 
ATOM     13  C   UNL     1      53.240   2.403  18.600  0.00  0.00    +0.000 A 
ATOM     14  N   UNL     1      53.973   1.296  18.306  0.00  0.00    +0.000 NA
ATOM     15  C   UNL     1      53.398   0.477  17.491  0.00  0.00    +0.000 A 
ATOM     16  N   UNL     1      52.151   0.657  16.952  0.00  0.00    +0.000 N 
ATOM     17  C   UNL     1      51.361   1.735  17.247  0.00  0.00    +0.000 A 
ATOM     18  O   UNL     1      50.239   1.847  16.762  0.00  0.00    +0.000 OA
ATOM     19  C   UNL     1      51.975   2.709  18.130  0.00  0.00    +0.000 A 
ATOM     20  H   UNL     1      51.751  -0.029  16.331  0.00  0.00    +0.000 HD
ENDBRANCH   7  10
ENDBRANCH   5   6
ENDBRANCH   2   5
BRANCH   3  21
ATOM     21  C   UNL     1      47.718   7.748  13.656  0.00  0.00    +0.000 C 
BRANCH  21  22
ATOM     22  C   UNL     1      46.712   6.940  12.863  0.00  0.00    +0.000 A 
ATOM     23  C   UNL     1      46.707   5.542  12.926  0.00  0.00    +0.000 A 
ATOM     24  C   UNL     1      45.768   4.783  12.204  0.00  0.00    +0.000 A 
ATOM     25  C   UNL     1      44.814   5.403  11.378  0.00  0.00    +0.000 A 
ATOM     26  C   UNL     1      44.819   6.805  11.327  0.00  0.00    +0.000 A 
ATOM     27  C   UNL     1      45.752   7.563  12.053  0.00  0.00    +0.000 A 
BRANCH  25  28
ATOM     28  C   UNL     1      43.855   4.622  10.501  0.00  0.00    +0.000 C 
BRANCH  28  29
ATOM     29  N   UNL     1      44.462   3.589   9.688  0.00  0.00    +0.000 N 
ATOM     30  C   UNL     1      45.315   3.944   8.668  0.00  0.00    +0.000 C 
ATOM     31  O   UNL     1      45.561   5.109   8.369  0.00  0.00    +0.000 OA
ATOM     32  N   UNL     1      45.886   2.867   8.023  0.00  0.00    +0.000 N 
ATOM     33  C   UNL     1      45.642   1.456   8.261  0.00  0.00    +0.000 C 
ATOM     34  C   UNL     1      46.910   0.802   7.744  0.00  0.00    +0.000 C 
ATOM     35  C   UNL     1      47.272   1.653   6.529  0.00  0.00    +0.000 C 
ATOM     36  C   UNL     1      46.715   3.045   6.844  0.00  0.00    +0.000 C 
ATOM     37  H   UNL     1      44.834   2.811  10.197  0.00  0.00    +0.000 HD
ENDBRANCH  28  29
ENDBRANCH  25  28
ENDBRANCH  21  22
ENDBRANCH   3  21
TORSDOF 7
ENDMDL
MODEL 4
REMARK VINA RESULT:    -7.364      2.219      3.236
REMARK INTER + INTRA:         -11.659
REMARK INTER:                 -10.925
REMARK INTRA:                  -0.735
REMARK UNBOUND:                -1.281
REMARK  Name = 
REMARK  7 active torsions:
REMARK  status: ('A' for Active; 'I' for Inactive)
REMARK    1  A    between atoms: C_2  and  C_3
REMARK    2  A    between atoms: C_3  and  N_4
REMARK    3  A    between atoms: C_5  and  C_7
REMARK    4  A    between atoms: N_17  and  C_18
REMARK    5  A    between atoms: C_18  and  C_19
REMARK    6  A    between atoms: C_22  and  C_23
REMARK    7  A    between atoms: C_23  and  N_24
REMARK                            x       y       z     vdW  Elec       q    Type
REMARK                         _______ _______ _______ _____ _____    ______ ____
ROOT
ATOM      1  O   UNL     1      49.207   9.022  13.391  0.00  0.00    +0.000 OA
ATOM      2  C   UNL     1      48.587   8.526  14.307  0.00  0.00    +0.000 C 
ATOM      3  N   UNL     1      47.251   8.184  14.197  0.00  0.00    +0.000 N 
ATOM      4  H   UNL     1      46.789   7.846  15.029  0.00  0.00    +0.000 HD
ENDROOT
BRANCH   2   5
ATOM      5  C   UNL     1      49.214   8.287  15.692  0.00  0.00    +0.000 C 
BRANCH   5   6
ATOM      6  N   UNL     1      49.540   6.896  15.914  0.00  0.00    +0.000 N 
ATOM      7  C   UNL     1      49.013   6.198  16.961  0.00  0.00    +0.000 C 
ATOM      8  O   UNL     1      48.289   6.748  17.788  0.00  0.00    +0.000 OA
ATOM      9  H   UNL     1      50.297   6.510  15.359  0.00  0.00    +0.000 HD
BRANCH   7  10
ATOM     10  C   UNL     1      49.366   4.782  17.079  0.00  0.00    +0.000 A 
ATOM     11  C   UNL     1      48.392   3.806  16.906  0.00  0.00    +0.000 A 
ATOM     12  S   UNL     1      48.982   2.215  17.085  0.00  0.00    +0.000 S 
ATOM     13  C   UNL     1      50.553   2.778  17.418  0.00  0.00    +0.000 A 
ATOM     14  N   UNL     1      51.560   1.913  17.712  0.00  0.00    +0.000 NA
ATOM     15  C   UNL     1      52.689   2.480  17.978  0.00  0.00    +0.000 A 
ATOM     16  N   UNL     1      52.906   3.833  17.964  0.00  0.00    +0.000 N 
ATOM     17  C   UNL     1      51.935   4.740  17.639  0.00  0.00    +0.000 A 
ATOM     18  O   UNL     1      52.177   5.943  17.614  0.00  0.00    +0.000 OA
ATOM     19  C   UNL     1      50.633   4.158  17.368  0.00  0.00    +0.000 A 
ATOM     20  H   UNL     1      53.817   4.213  18.168  0.00  0.00    +0.000 HD
ENDBRANCH   7  10
ENDBRANCH   5   6
ENDBRANCH   2   5
BRANCH   3  21
ATOM     21  C   UNL     1      46.482   8.341  12.977  0.00  0.00    +0.000 C 
BRANCH  21  22
ATOM     22  C   UNL     1      45.860   7.039  12.514  0.00  0.00    +0.000 A 
ATOM     23  C   UNL     1      46.524   5.822  12.703  0.00  0.00    +0.000 A 
ATOM     24  C   UNL     1      45.949   4.606  12.290  0.00  0.00    +0.000 A 
ATOM     25  C   UNL     1      44.696   4.575  11.654  0.00  0.00    +0.000 A 
ATOM     26  C   UNL     1      44.032   5.799  11.476  0.00  0.00    +0.000 A 
ATOM     27  C   UNL     1      44.603   7.012  11.895  0.00  0.00    +0.000 A 
BRANCH  25  28
ATOM     28  C   UNL     1      44.088   3.302  11.098  0.00  0.00    +0.000 C 
BRANCH  28  29
ATOM     29  N   UNL     1      44.838   2.676  10.029  0.00  0.00    +0.000 N 
ATOM     30  C   UNL     1      45.052   3.366   8.857  0.00  0.00    +0.000 C 
ATOM     31  O   UNL     1      44.596   4.485   8.641  0.00  0.00    +0.000 OA
ATOM     32  N   UNL     1      45.845   2.691   7.953  0.00  0.00    +0.000 N 
ATOM     33  C   UNL     1      46.402   1.357   8.081  0.00  0.00    +0.000 C 
ATOM     34  C   UNL     1      47.600   1.399   7.151  0.00  0.00    +0.000 C 
ATOM     35  C   UNL     1      47.111   2.267   5.993  0.00  0.00    +0.000 C 
ATOM     36  C   UNL     1      46.076   3.208   6.617  0.00  0.00    +0.000 C 
ATOM     37  H   UNL     1      45.676   2.209  10.314  0.00  0.00    +0.000 HD
ENDBRANCH  28  29
ENDBRANCH  25  28
ENDBRANCH  21  22
ENDBRANCH   3  21
TORSDOF 7
ENDMDL
MODEL 5
REMARK VINA RESULT:    -7.245      3.914     10.254
REMARK INTER + INTRA:         -11.491
REMARK INTER:                 -10.522
REMARK INTRA:                  -0.969
REMARK UNBOUND:                -1.281
REMARK  Name = 
REMARK  7 active torsions:
REMARK  status: ('A' for Active; 'I' for Inactive)
REMARK    1  A    between atoms: C_2  and  C_3
REMARK    2  A    between atoms: C_3  and  N_4
REMARK    3  A    between atoms: C_5  and  C_7
REMARK    4  A    between atoms: N_17  and  C_18
REMARK    5  A    between atoms: C_18  and  C_19
REMARK    6  A    between atoms: C_22  and  C_23
REMARK    7  A    between atoms: C_23  and  N_24
REMARK                            x       y       z     vdW  Elec       q    Type
REMARK                         _______ _______ _______ _____ _____    ______ ____
ROOT
ATOM      1  O   UNL     1      49.487   7.088  17.854  0.00  0.00    +0.000 OA
ATOM      2  C   UNL     1      49.146   6.618  16.790  0.00  0.00    +0.000 C 
ATOM      3  N   UNL     1      48.828   5.280  16.640  0.00  0.00    +0.000 N 
ATOM      4  H   UNL     1      48.627   4.953  15.706  0.00  0.00    +0.000 HD
ENDROOT
BRANCH   2   5
ATOM      5  C   UNL     1      49.094   7.454  15.499  0.00  0.00    +0.000 C 
BRANCH   5   6
ATOM      6  N   UNL     1      47.897   7.202  14.729  0.00  0.00    +0.000 N 
ATOM      7  C   UNL     1      47.947   6.599  13.506  0.00  0.00    +0.000 C 
ATOM      8  O   UNL     1      49.024   6.306  12.989  0.00  0.00    +0.000 OA
ATOM      9  H   UNL     1      47.041   7.634  15.062  0.00  0.00    +0.000 HD
BRANCH   7  10
ATOM     10  C   UNL     1      46.679   6.344  12.821  0.00  0.00    +0.000 A 
ATOM     11  C   UNL     1      45.976   7.394  12.244  0.00  0.00    +0.000 A 
ATOM     12  S   UNL     1      44.520   6.911  11.498  0.00  0.00    +0.000 S 
ATOM     13  C   UNL     1      44.770   5.287  11.938  0.00  0.00    +0.000 A 
ATOM     14  N   UNL     1      43.853   4.329  11.637  0.00  0.00    +0.000 NA
ATOM     15  C   UNL     1      44.157   3.148  12.062  0.00  0.00    +0.000 A 
ATOM     16  N   UNL     1      45.300   2.835  12.749  0.00  0.00    +0.000 N 
ATOM     17  C   UNL     1      46.268   3.756  13.043  0.00  0.00    +0.000 A 
ATOM     18  O   UNL     1      47.290   3.429  13.640  0.00  0.00    +0.000 OA
ATOM     19  C   UNL     1      45.960   5.110  12.622  0.00  0.00    +0.000 A 
ATOM     20  H   UNL     1      45.485   1.888  13.042  0.00  0.00    +0.000 HD
ENDBRANCH   7  10
ENDBRANCH   5   6
ENDBRANCH   2   5
BRANCH   3  21
ATOM     21  C   UNL     1      48.826   4.329  17.735  0.00  0.00    +0.000 C 
BRANCH  21  22
ATOM     22  C   UNL     1      50.085   3.487  17.771  0.00  0.00    +0.000 A 
ATOM     23  C   UNL     1      50.075   2.165  17.310  0.00  0.00    +0.000 A 
ATOM     24  C   UNL     1      51.241   1.379  17.326  0.00  0.00    +0.000 A 
ATOM     25  C   UNL     1      52.453   1.887  17.825  0.00  0.00    +0.000 A 
ATOM     26  C   UNL     1      52.458   3.216  18.277  0.00  0.00    +0.000 A 
ATOM     27  C   UNL     1      51.295   4.003  18.255  0.00  0.00    +0.000 A 
BRANCH  25  28
ATOM     28  C   UNL     1      53.705   1.043  17.960  0.00  0.00    +0.000 C 
BRANCH  28  29
ATOM     29  N   UNL     1      53.497  -0.292  18.483  0.00  0.00    +0.000 N 
ATOM     30  C   UNL     1      54.311  -1.319  18.061  0.00  0.00    +0.000 C 
ATOM     31  O   UNL     1      55.189  -1.179  17.215  0.00  0.00    +0.000 OA
ATOM     32  N   UNL     1      54.061  -2.519  18.692  0.00  0.00    +0.000 N 
ATOM     33  C   UNL     1      53.030  -2.811  19.671  0.00  0.00    +0.000 C 
ATOM     34  C   UNL     1      53.597  -4.007  20.414  0.00  0.00    +0.000 C 
ATOM     35  C   UNL     1      54.309  -4.794  19.316  0.00  0.00    +0.000 C 
ATOM     36  C   UNL     1      54.735  -3.739  18.289  0.00  0.00    +0.000 C 
ATOM     37  H   UNL     1      53.358  -0.343  19.473  0.00  0.00    +0.000 HD
ENDBRANCH  28  29
ENDBRANCH  25  28
ENDBRANCH  21  22
ENDBRANCH   3  21
TORSDOF 7
ENDMDL
MODEL 6
REMARK VINA RESULT:    -6.941      2.872      4.531
REMARK INTER + INTRA:         -11.063
REMARK INTER:                  -9.441
REMARK INTRA:                  -1.623
REMARK UNBOUND:                -1.281
REMARK  Name = 
REMARK  7 active torsions:
REMARK  status: ('A' for Active; 'I' for Inactive)
REMARK    1  A    between atoms: C_2  and  C_3
REMARK    2  A    between atoms: C_3  and  N_4
REMARK    3  A    between atoms: C_5  and  C_7
REMARK    4  A    between atoms: N_17  and  C_18
REMARK    5  A    between atoms: C_18  and  C_19
REMARK    6  A    between atoms: C_22  and  C_23
REMARK    7  A    between atoms: C_23  and  N_24
REMARK                            x       y       z     vdW  Elec       q    Type
REMARK                         _______ _______ _______ _____ _____    ______ ____
ROOT
ATOM      1  O   UNL     1      51.233  10.024  12.743  0.00  0.00    +0.000 OA
ATOM      2  C   UNL     1      50.991   9.250  13.643  0.00  0.00    +0.000 C 
ATOM      3  N   UNL     1      49.708   9.049  14.122  0.00  0.00    +0.000 N 
ATOM      4  H   UNL     1      49.602   8.445  14.924  0.00  0.00    +0.000 HD
ENDROOT
BRANCH   2   5
ATOM      5  C   UNL     1      52.094   8.465  14.374  0.00  0.00    +0.000 C 
BRANCH   5   6
ATOM      6  N   UNL     1      51.592   7.260  14.995  0.00  0.00    +0.000 N 
ATOM      7  C   UNL     1      51.780   7.009  16.323  0.00  0.00    +0.000 C 
ATOM      8  O   UNL     1      52.439   7.774  17.024  0.00  0.00    +0.000 OA
ATOM      9  H   UNL     1      51.239   6.540  14.373  0.00  0.00    +0.000 HD
BRANCH   7  10
ATOM     10  C   UNL     1      51.195   5.784  16.871  0.00  0.00    +0.000 A 
ATOM     11  C   UNL     1      52.018   4.787  17.378  0.00  0.00    +0.000 A 
ATOM     12  S   UNL     1      51.165   3.432  17.968  0.00  0.00    +0.000 S 
ATOM     13  C   UNL     1      49.669   4.125  17.548  0.00  0.00    +0.000 A 
ATOM     14  N   UNL     1      48.504   3.453  17.748  0.00  0.00    +0.000 NA
ATOM     15  C   UNL     1      47.450   4.084  17.350  0.00  0.00    +0.000 A 
ATOM     16  N   UNL     1      47.453   5.330  16.782  0.00  0.00    +0.000 N 
ATOM     17  C   UNL     1      48.595   6.061  16.595  0.00  0.00    +0.000 A 
ATOM     18  O   UNL     1      48.552   7.185  16.105  0.00  0.00    +0.000 OA
ATOM     19  C   UNL     1      49.816   5.382  16.989  0.00  0.00    +0.000 A 
ATOM     20  H   UNL     1      46.592   5.775  16.505  0.00  0.00    +0.000 HD
ENDBRANCH   7  10
ENDBRANCH   5   6
ENDBRANCH   2   5
BRANCH   3  21
ATOM     21  C   UNL     1      48.536   9.703  13.571  0.00  0.00    +0.000 C 
BRANCH  21  22
ATOM     22  C   UNL     1      47.587   8.725  12.909  0.00  0.00    +0.000 A 
ATOM     23  C   UNL     1      47.942   7.381  12.746  0.00  0.00    +0.000 A 
ATOM     24  C   UNL     1      47.063   6.462  12.145  0.00  0.00    +0.000 A 
ATOM     25  C   UNL     1      45.804   6.867  11.670  0.00  0.00    +0.000 A 
ATOM     26  C   UNL     1      45.450   8.214  11.845  0.00  0.00    +0.000 A 
ATOM     27  C   UNL     1      46.325   9.130  12.451  0.00  0.00    +0.000 A 
BRANCH  25  28
ATOM     28  C   UNL     1      44.870   5.936  10.922  0.00  0.00    +0.000 C 
BRANCH  28  29
ATOM     29  N   UNL     1      45.463   5.231   9.805  0.00  0.00    +0.000 N 
ATOM     30  C   UNL     1      45.331   3.863   9.720  0.00  0.00    +0.000 C 
ATOM     31  O   UNL     1      44.771   3.186  10.575  0.00  0.00    +0.000 OA
ATOM     32  N   UNL     1      45.872   3.325   8.571  0.00  0.00    +0.000 N 
ATOM     33  C   UNL     1      46.589   4.017   7.516  0.00  0.00    +0.000 C 
ATOM     34  C   UNL     1      46.397   3.104   6.320  0.00  0.00    +0.000 C 
ATOM     35  C   UNL     1      46.450   1.707   6.935  0.00  0.00    +0.000 C 
ATOM     36  C   UNL     1      45.936   1.889   8.367  0.00  0.00    +0.000 C 
ATOM     37  H   UNL     1      45.312   5.651   8.909  0.00  0.00    +0.000 HD
ENDBRANCH  28  29
ENDBRANCH  25  28
ENDBRANCH  21  22
ENDBRANCH   3  21
TORSDOF 7
ENDMDL
MODEL 7
REMARK VINA RESULT:    -6.938      4.076      6.287
REMARK INTER + INTRA:         -11.059
REMARK INTER:                  -9.472
REMARK INTRA:                  -1.587
REMARK UNBOUND:                -1.281
REMARK  Name = 
REMARK  7 active torsions:
REMARK  status: ('A' for Active; 'I' for Inactive)
REMARK    1  A    between atoms: C_2  and  C_3
REMARK    2  A    between atoms: C_3  and  N_4
REMARK    3  A    between atoms: C_5  and  C_7
REMARK    4  A    between atoms: N_17  and  C_18
REMARK    5  A    between atoms: C_18  and  C_19
REMARK    6  A    between atoms: C_22  and  C_23
REMARK    7  A    between atoms: C_23  and  N_24
REMARK                            x       y       z     vdW  Elec       q    Type
REMARK                         _______ _______ _______ _____ _____    ______ ____
ROOT
ATOM      1  O   UNL     1      50.194   5.509  16.643  0.00  0.00    +0.000 OA
ATOM      2  C   UNL     1      49.550   6.482  16.314  0.00  0.00    +0.000 C 
ATOM      3  N   UNL     1      48.282   6.380  15.768  0.00  0.00    +0.000 N 
ATOM      4  H   UNL     1      47.845   7.233  15.451  0.00  0.00    +0.000 HD
ENDROOT
BRANCH   2   5
ATOM      5  C   UNL     1      50.108   7.912  16.416  0.00  0.00    +0.000 C 
BRANCH   5   6
ATOM      6  N   UNL     1      49.751   8.724  15.275  0.00  0.00    +0.000 N 
ATOM      7  C   UNL     1      50.424   8.628  14.092  0.00  0.00    +0.000 C 
ATOM      8  O   UNL     1      51.400   7.889  13.977  0.00  0.00    +0.000 OA
ATOM      9  H   UNL     1      49.090   9.476  15.439  0.00  0.00    +0.000 HD
BRANCH   7  10
ATOM     10  C   UNL     1      49.961   9.458  12.978  0.00  0.00    +0.000 A 
ATOM     11  C   UNL     1      50.878  10.011  12.094  0.00  0.00    +0.000 A 
ATOM     12  S   UNL     1      50.159  10.952  10.866  0.00  0.00    +0.000 S 
ATOM     13  C   UNL     1      48.601  10.667  11.486  0.00  0.00    +0.000 A 
ATOM     14  N   UNL     1      47.504  11.232  10.913  0.00  0.00    +0.000 NA
ATOM     15  C   UNL     1      46.391  10.958  11.509  0.00  0.00    +0.000 A 
ATOM     16  N   UNL     1      46.273  10.161  12.616  0.00  0.00    +0.000 N 
ATOM     17  C   UNL     1      47.342   9.540  13.205  0.00  0.00    +0.000 A 
ATOM     18  O   UNL     1      47.190   8.814  14.182  0.00  0.00    +0.000 OA
ATOM     19  C   UNL     1      48.625   9.846  12.598  0.00  0.00    +0.000 A 
ATOM     20  H   UNL     1      45.372   9.974  13.026  0.00  0.00    +0.000 HD
ENDBRANCH   7  10
ENDBRANCH   5   6
ENDBRANCH   2   5
BRANCH   3  21
ATOM     21  C   UNL     1      47.589   5.120  15.582  0.00  0.00    +0.000 C 
BRANCH  21  22
ATOM     22  C   UNL     1      46.805   5.077  14.287  0.00  0.00    +0.000 A 
ATOM     23  C   UNL     1      45.603   4.365  14.201  0.00  0.00    +0.000 A 
ATOM     24  C   UNL     1      44.860   4.331  13.007  0.00  0.00    +0.000 A 
ATOM     25  C   UNL     1      45.309   4.995  11.853  0.00  0.00    +0.000 A 
ATOM     26  C   UNL     1      46.510   5.714  11.949  0.00  0.00    +0.000 A 
ATOM     27  C   UNL     1      47.249   5.755  13.143  0.00  0.00    +0.000 A 
BRANCH  25  28
ATOM     28  C   UNL     1      44.597   4.896  10.518  0.00  0.00    +0.000 C 
BRANCH  28  29
ATOM     29  N   UNL     1      45.010   3.792   9.677  0.00  0.00    +0.000 N 
ATOM     30  C   UNL     1      45.794   4.039   8.573  0.00  0.00    +0.000 C 
ATOM     31  O   UNL     1      46.132   5.166   8.225  0.00  0.00    +0.000 OA
ATOM     32  N   UNL     1      46.183   2.898   7.904  0.00  0.00    +0.000 N 
ATOM     33  C   UNL     1      45.814   1.525   8.197  0.00  0.00    +0.000 C 
ATOM     34  C   UNL     1      46.950   0.730   7.580  0.00  0.00    +0.000 C 
ATOM     35  C   UNL     1      47.282   1.520   6.316  0.00  0.00    +0.000 C 
ATOM     36  C   UNL     1      46.908   2.968   6.648  0.00  0.00    +0.000 C 
ATOM     37  H   UNL     1      45.344   2.986  10.168  0.00  0.00    +0.000 HD
ENDBRANCH  28  29
ENDBRANCH  25  28
ENDBRANCH  21  22
ENDBRANCH   3  21
TORSDOF 7
ENDMDL
MODEL 8
REMARK VINA RESULT:    -6.898      5.289      6.708
REMARK INTER + INTRA:         -11.002
REMARK INTER:                  -9.689
REMARK INTRA:                  -1.314
REMARK UNBOUND:                -1.281
REMARK  Name = 
REMARK  7 active torsions:
REMARK  status: ('A' for Active; 'I' for Inactive)
REMARK    1  A    between atoms: C_2  and  C_3
REMARK    2  A    between atoms: C_3  and  N_4
REMARK    3  A    between atoms: C_5  and  C_7
REMARK    4  A    between atoms: N_17  and  C_18
REMARK    5  A    between atoms: C_18  and  C_19
REMARK    6  A    between atoms: C_22  and  C_23
REMARK    7  A    between atoms: C_23  and  N_24
REMARK                            x       y       z     vdW  Elec       q    Type
REMARK                         _______ _______ _______ _____ _____    ______ ____
ROOT
ATOM      1  O   UNL     1      47.510   9.278  14.933  0.00  0.00    +0.000 OA
ATOM      2  C   UNL     1      48.406   9.199  14.121  0.00  0.00    +0.000 C 
ATOM      3  N   UNL     1      48.962   7.988  13.748  0.00  0.00    +0.000 N 
ATOM      4  H   UNL     1      49.755   8.015  13.123  0.00  0.00    +0.000 HD
ENDROOT
BRANCH   2   5
ATOM      5  C   UNL     1      49.048  10.441  13.479  0.00  0.00    +0.000 C 
BRANCH   5   6
ATOM      6  N   UNL     1      50.172  10.105  12.636  0.00  0.00    +0.000 N 
ATOM      7  C   UNL     1      50.286  10.594  11.367  0.00  0.00    +0.000 C 
ATOM      8  O   UNL     1      49.399  11.290  10.876  0.00  0.00    +0.000 OA
ATOM      9  H   UNL     1      50.786   9.367  12.967  0.00  0.00    +0.000 HD
BRANCH   7  10
ATOM     10  C   UNL     1      51.483  10.234  10.605  0.00  0.00    +0.000 A 
ATOM     11  C   UNL     1      52.265  11.227  10.029  0.00  0.00    +0.000 A 
ATOM     12  S   UNL     1      53.614  10.624   9.176  0.00  0.00    +0.000 S 
ATOM     13  C   UNL     1      53.188   9.016   9.532  0.00  0.00    +0.000 A 
ATOM     14  N   UNL     1      53.919   7.974   9.054  0.00  0.00    +0.000 NA
ATOM     15  C   UNL     1      53.460   6.810   9.374  0.00  0.00    +0.000 A 
ATOM     16  N   UNL     1      52.345   6.593  10.139  0.00  0.00    +0.000 N 
ATOM     17  C   UNL     1      51.599   7.608  10.673  0.00  0.00    +0.000 A 
ATOM     18  O   UNL     1      50.619   7.371  11.374  0.00  0.00    +0.000 OA
ATOM     19  C   UNL     1      52.047   8.940  10.312  0.00  0.00    +0.000 A 
ATOM     20  H   UNL     1      52.046   5.657  10.365  0.00  0.00    +0.000 HD
ENDBRANCH   7  10
ENDBRANCH   5   6
ENDBRANCH   2   5
BRANCH   3  21
ATOM     21  C   UNL     1      48.501   6.707  14.249  0.00  0.00    +0.000 C 
BRANCH  21  22
ATOM     22  C   UNL     1      47.424   6.097  13.374  0.00  0.00    +0.000 A 
ATOM     23  C   UNL     1      46.838   4.872  13.711  0.00  0.00    +0.000 A 
ATOM     24  C   UNL     1      45.827   4.305  12.913  0.00  0.00    +0.000 A 
ATOM     25  C   UNL     1      45.387   4.939  11.740  0.00  0.00    +0.000 A 
ATOM     26  C   UNL     1      45.973   6.172  11.413  0.00  0.00    +0.000 A 
ATOM     27  C   UNL     1      46.976   6.742  12.213  0.00  0.00    +0.000 A 
BRANCH  25  28
ATOM     28  C   UNL     1      44.379   4.313  10.796  0.00  0.00    +0.000 C 
BRANCH  28  29
ATOM     29  N   UNL     1      44.927   3.367   9.846  0.00  0.00    +0.000 N 
ATOM     30  C   UNL     1      45.559   3.832   8.715  0.00  0.00    +0.000 C 
ATOM     31  O   UNL     1      45.647   5.024   8.433  0.00  0.00    +0.000 OA
ATOM     32  N   UNL     1      46.104   2.835   7.934  0.00  0.00    +0.000 N 
ATOM     33  C   UNL     1      46.029   1.400   8.144  0.00  0.00    +0.000 C 
ATOM     34  C   UNL     1      47.242   0.884   7.393  0.00  0.00    +0.000 C 
ATOM     35  C   UNL     1      47.316   1.803   6.175  0.00  0.00    +0.000 C 
ATOM     36  C   UNL     1      46.700   3.126   6.643  0.00  0.00    +0.000 C 
ATOM     37  H   UNL     1      45.447   2.613  10.249  0.00  0.00    +0.000 HD
ENDBRANCH  28  29
ENDBRANCH  25  28
ENDBRANCH  21  22
ENDBRANCH   3  21
TORSDOF 7
ENDMDL
MODEL 9
REMARK VINA RESULT:    -6.718      3.358      9.988
REMARK INTER + INTRA:         -10.748
REMARK INTER:                  -9.644
REMARK INTRA:                  -1.105
REMARK UNBOUND:                -1.281
REMARK  Name = 
REMARK  7 active torsions:
REMARK  status: ('A' for Active; 'I' for Inactive)
REMARK    1  A    between atoms: C_2  and  C_3
REMARK    2  A    between atoms: C_3  and  N_4
REMARK    3  A    between atoms: C_5  and  C_7
REMARK    4  A    between atoms: N_17  and  C_18
REMARK    5  A    between atoms: C_18  and  C_19
REMARK    6  A    between atoms: C_22  and  C_23
REMARK    7  A    between atoms: C_23  and  N_24
REMARK                            x       y       z     vdW  Elec       q    Type
REMARK                         _______ _______ _______ _____ _____    ______ ____
ROOT
ATOM      1  O   UNL     1      47.901   9.904  13.305  0.00  0.00    +0.000 OA
ATOM      2  C   UNL     1      48.270   8.855  12.822  0.00  0.00    +0.000 C 
ATOM      3  N   UNL     1      49.214   8.050  13.435  0.00  0.00    +0.000 N 
ATOM      4  H   UNL     1      49.523   7.232  12.930  0.00  0.00    +0.000 HD
ENDROOT
BRANCH   2   5
ATOM      5  C   UNL     1      47.767   8.355  11.457  0.00  0.00    +0.000 C 
BRANCH   5   6
ATOM      6  N   UNL     1      46.986   7.144  11.570  0.00  0.00    +0.000 N 
ATOM      7  C   UNL     1      45.622   7.174  11.597  0.00  0.00    +0.000 C 
ATOM      8  O   UNL     1      45.012   8.242  11.589  0.00  0.00    +0.000 OA
ATOM      9  H   UNL     1      47.492   6.292  11.789  0.00  0.00    +0.000 HD
BRANCH   7  10
ATOM     10  C   UNL     1      44.916   5.893  11.667  0.00  0.00    +0.000 A 
ATOM     11  C   UNL     1      44.179   5.566  12.798  0.00  0.00    +0.000 A 
ATOM     12  S   UNL     1      43.432   4.035  12.706  0.00  0.00    +0.000 S 
ATOM     13  C   UNL     1      44.083   3.751  11.161  0.00  0.00    +0.000 A 
ATOM     14  N   UNL     1      43.862   2.577  10.511  0.00  0.00    +0.000 NA
ATOM     15  C   UNL     1      44.446   2.485   9.363  0.00  0.00    +0.000 A 
ATOM     16  N   UNL     1      45.220   3.464   8.799  0.00  0.00    +0.000 N 
ATOM     17  C   UNL     1      45.441   4.675   9.397  0.00  0.00    +0.000 A 
ATOM     18  O   UNL     1      46.122   5.536   8.847  0.00  0.00    +0.000 OA
ATOM     19  C   UNL     1      44.839   4.818  10.710  0.00  0.00    +0.000 A 
ATOM     20  H   UNL     1      45.638   3.335   7.891  0.00  0.00    +0.000 HD
ENDBRANCH   7  10
ENDBRANCH   5   6
ENDBRANCH   2   5
BRANCH   3  21
ATOM     21  C   UNL     1      49.814   8.355  14.720  0.00  0.00    +0.000 C 
BRANCH  21  22
ATOM     22  C   UNL     1      49.887   7.142  15.625  0.00  0.00    +0.000 A 
ATOM     23  C   UNL     1      48.758   6.346  15.848  0.00  0.00    +0.000 A 
ATOM     24  C   UNL     1      48.819   5.210  16.676  0.00  0.00    +0.000 A 
ATOM     25  C   UNL     1      50.012   4.847  17.324  0.00  0.00    +0.000 A 
ATOM     26  C   UNL     1      51.142   5.645  17.089  0.00  0.00    +0.000 A 
ATOM     27  C   UNL     1      51.083   6.775  16.256  0.00  0.00    +0.000 A 
BRANCH  25  28
ATOM     28  C   UNL     1      50.096   3.696  18.307  0.00  0.00    +0.000 C 
BRANCH  28  29
ATOM     29  N   UNL     1      51.403   3.086  18.434  0.00  0.00    +0.000 N 
ATOM     30  C   UNL     1      51.711   1.981  17.673  0.00  0.00    +0.000 C 
ATOM     31  O   UNL     1      50.912   1.442  16.912  0.00  0.00    +0.000 OA
ATOM     32  N   UNL     1      53.010   1.545  17.829  0.00  0.00    +0.000 N 
ATOM     33  C   UNL     1      54.024   2.074  18.722  0.00  0.00    +0.000 C 
ATOM     34  C   UNL     1      55.319   1.650  18.054  0.00  0.00    +0.000 C 
ATOM     35  C   UNL     1      54.982   0.274  17.484  0.00  0.00    +0.000 C 
ATOM     36  C   UNL     1      53.477   0.322  17.202  0.00  0.00    +0.000 C 
ATOM     37  H   UNL     1      52.172   3.726  18.443  0.00  0.00    +0.000 HD
ENDBRANCH  28  29
ENDBRANCH  25  28
ENDBRANCH  21  22
ENDBRANCH   3  21
TORSDOF 7
ENDMDL
