MODEL 1
REMARK VINA RESULT:    -8.176      0.000      0.000
REMARK INTER + INTRA:         -11.615
REMARK INTER:                 -10.566
REMARK INTRA:                  -1.049
REMARK UNBOUND:                -1.049
REMARK  Name = 
REMARK  5 active torsions:
REMARK  status: ('A' for Active; 'I' for Inactive)
REMARK    1  A    between atoms: C_7  and  C_8
REMARK    2  A    between atoms: N_10  and  C_11
REMARK    3  A    between atoms: C_11  and  C_12
REMARK    4  A    between atoms: C_15  and  C_16
REMARK    5  A    between atoms: C_16  and  N_17
REMARK                            x       y       z     vdW  Elec       q    Type
REMARK                         _______ _______ _______ _____ _____    ______ ____
ROOT
ATOM      1  C   UNL     1      48.088   7.014  13.960  0.00  0.00    +0.000 C 
ATOM      2  O   UNL     1      48.802   7.256  12.989  0.00  0.00    +0.000 OA
ATOM      3  N   UNL     1      46.732   7.211  13.922  0.00  0.00    +0.000 N 
ATOM      4  H   UNL     1      46.164   7.024  14.742  0.00  0.00    +0.000 HD
ENDROOT
BRANCH   1  11
ATOM      5  N   UNL     1      47.969   2.300  18.767  0.00  0.00    +0.000 N 
ATOM      6  C   UNL     1      48.115   3.338  17.907  0.00  0.00    +0.000 A 
ATOM      7  N   UNL     1      49.071   4.200  18.066  0.00  0.00    +0.000 NA
ATOM      8  C   UNL     1      49.133   5.180  17.124  0.00  0.00    +0.000 A 
ATOM      9  S   UNL     1      50.353   6.363  17.182  0.00  0.00    +0.000 S 
ATOM     10  C   UNL     1      49.784   7.096  15.753  0.00  0.00    +0.000 A 
ATOM     11  C   UNL     1      48.662   6.480  15.210  0.00  0.00    +0.000 A 
ATOM     12  C   UNL     1      48.293   5.352  16.040  0.00  0.00    +0.000 A 
ATOM     13  C   UNL     1      47.225   4.379  15.914  0.00  0.00    +0.000 A 
ATOM     14  O   UNL     1      46.385   4.386  15.018  0.00  0.00    +0.000 OA
ATOM     15  N   UNL     1      47.207   3.411  16.888  0.00  0.00    +0.000 N 
ATOM     16  H   UNL     1      48.502   2.410  19.624  0.00  0.00    +0.000 HD
ATOM     17  H   UNL     1      47.051   1.902  18.903  0.00  0.00    +0.000 HD
ATOM     18  H   UNL     1      46.496   2.705  16.794  0.00  0.00    +0.000 HD
ENDBRANCH   1  11
BRANCH   3  19
ATOM     19  C   UNL     1      46.040   7.663  12.739  0.00  0.00    +0.000 C 
BRANCH  19  20
ATOM     20  C   UNL     1      45.680   6.531  11.811  0.00  0.00    +0.000 A 
ATOM     21  C   UNL     1      46.177   6.504  10.500  0.00  0.00    +0.000 A 
ATOM     22  C   UNL     1      45.861   5.449   9.638  0.00  0.00    +0.000 A 
ATOM     23  C   UNL     1      45.022   4.410  10.061  0.00  0.00    +0.000 A 
ATOM     24  C   UNL     1      44.527   4.435  11.373  0.00  0.00    +0.000 A 
ATOM     25  C   UNL     1      44.846   5.489  12.236  0.00  0.00    +0.000 A 
BRANCH  23  26
ATOM     26  C   UNL     1      44.629   3.298   9.114  0.00  0.00    +0.000 C 
BRANCH  26  27
ATOM     27  N   UNL     1      44.962   3.652   7.739  0.00  0.00    +0.000 N 
ATOM     28  C   UNL     1      46.037   2.904   7.216  0.00  0.00    +0.000 A 
ATOM     29  C   UNL     1      46.439   3.144   5.917  0.00  0.00    +0.000 A 
ATOM     30  C   UNL     1      47.481   2.382   5.436  0.00  0.00    +0.000 A 
ATOM     31  N   UNL     1      48.108   1.441   6.162  0.00  0.00    +0.000 NA
ATOM     32  C   UNL     1      47.636   1.273   7.402  0.00  0.00    +0.000 A 
ATOM     33  N   UNL     1      46.626   1.954   7.964  0.00  0.00    +0.000 NA
ATOM     34  H   UNL     1      45.156   4.643   7.640  0.00  0.00    +0.000 HD
ENDBRANCH  26  27
ENDBRANCH  23  26
ENDBRANCH  19  20
ENDBRANCH   3  19
TORSDOF 5
ENDMDL
MODEL 2
REMARK VINA RESULT:    -7.831      1.636      2.191
REMARK INTER + INTRA:         -11.169
REMARK INTER:                 -10.440
REMARK INTRA:                  -0.729
REMARK UNBOUND:                -1.049
REMARK  Name = 
REMARK  5 active torsions:
REMARK  status: ('A' for Active; 'I' for Inactive)
REMARK    1  A    between atoms: C_7  and  C_8
REMARK    2  A    between atoms: N_10  and  C_11
REMARK    3  A    between atoms: C_11  and  C_12
REMARK    4  A    between atoms: C_15  and  C_16
REMARK    5  A    between atoms: C_16  and  N_17
REMARK                            x       y       z     vdW  Elec       q    Type
REMARK                         _______ _______ _______ _____ _____    ______ ____
ROOT
ATOM      1  C   UNL     1      47.814   5.826  14.683  0.00  0.00    +0.000 C 
ATOM      2  O   UNL     1      48.797   6.168  14.030  0.00  0.00    +0.000 OA
ATOM      3  N   UNL     1      46.539   6.112  14.266  0.00  0.00    +0.000 N 
ATOM      4  H   UNL     1      45.743   5.837  14.830  0.00  0.00    +0.000 HD
ENDROOT
BRANCH   1  11
ATOM      5  N   UNL     1      49.753   5.754  21.132  0.00  0.00    +0.000 N 
ATOM      6  C   UNL     1      49.342   5.585  19.850  0.00  0.00    +0.000 A 
ATOM      7  N   UNL     1      48.830   4.459  19.463  0.00  0.00    +0.000 NA
ATOM      8  C   UNL     1      48.429   4.419  18.163  0.00  0.00    +0.000 A 
ATOM      9  S   UNL     1      47.708   3.019  17.520  0.00  0.00    +0.000 S 
ATOM     10  C   UNL     1      47.490   3.764  16.003  0.00  0.00    +0.000 A 
ATOM     11  C   UNL     1      47.963   5.070  15.942  0.00  0.00    +0.000 A 
ATOM     12  C   UNL     1      48.518   5.434  17.228  0.00  0.00    +0.000 A 
ATOM     13  C   UNL     1      49.118   6.667  17.699  0.00  0.00    +0.000 A 
ATOM     14  O   UNL     1      49.283   7.666  17.003  0.00  0.00    +0.000 OA
ATOM     15  N   UNL     1      49.505   6.657  19.018  0.00  0.00    +0.000 N 
ATOM     16  H   UNL     1      49.834   4.883  21.646  0.00  0.00    +0.000 HD
ATOM     17  H   UNL     1      50.491   6.416  21.326  0.00  0.00    +0.000 HD
ATOM     18  H   UNL     1      49.888   7.517  19.371  0.00  0.00    +0.000 HD
ENDBRANCH   1  11
BRANCH   3  19
ATOM     19  C   UNL     1      46.256   6.783  13.019  0.00  0.00    +0.000 C 
BRANCH  19  20
ATOM     20  C   UNL     1      45.815   5.831  11.937  0.00  0.00    +0.000 A 
ATOM     21  C   UNL     1      46.067   6.125  10.589  0.00  0.00    +0.000 A 
ATOM     22  C   UNL     1      45.676   5.240   9.580  0.00  0.00    +0.000 A 
ATOM     23  C   UNL     1      45.003   4.053   9.895  0.00  0.00    +0.000 A 
ATOM     24  C   UNL     1      44.753   3.756  11.243  0.00  0.00    +0.000 A 
ATOM     25  C   UNL     1      45.148   4.641  12.252  0.00  0.00    +0.000 A 
BRANCH  23  26
ATOM     26  C   UNL     1      44.524   3.120   8.804  0.00  0.00    +0.000 C 
BRANCH  26  27
ATOM     27  N   UNL     1      44.978   3.583   7.497  0.00  0.00    +0.000 N 
ATOM     28  C   UNL     1      46.096   2.873   7.013  0.00  0.00    +0.000 A 
ATOM     29  C   UNL     1      46.612   3.216   5.779  0.00  0.00    +0.000 A 
ATOM     30  C   UNL     1      47.694   2.490   5.332  0.00  0.00    +0.000 A 
ATOM     31  N   UNL     1      48.255   1.489   6.032  0.00  0.00    +0.000 NA
ATOM     32  C   UNL     1      47.674   1.224   7.207  0.00  0.00    +0.000 A 
ATOM     33  N   UNL     1      46.617   1.863   7.731  0.00  0.00    +0.000 NA
ATOM     34  H   UNL     1      45.179   4.578   7.497  0.00  0.00    +0.000 HD
ENDBRANCH  26  27
ENDBRANCH  23  26
ENDBRANCH  19  20
ENDBRANCH   3  19
TORSDOF 5
ENDMDL
MODEL 3
REMARK VINA RESULT:    -7.343      3.774      8.668
REMARK INTER + INTRA:         -10.538
REMARK INTER:                  -9.743
REMARK INTRA:                  -0.794
REMARK UNBOUND:                -1.049
REMARK  Name = 
REMARK  5 active torsions:
REMARK  status: ('A' for Active; 'I' for Inactive)
REMARK    1  A    between atoms: C_7  and  C_8
REMARK    2  A    between atoms: N_10  and  C_11
REMARK    3  A    between atoms: C_11  and  C_12
REMARK    4  A    between atoms: C_15  and  C_16
REMARK    5  A    between atoms: C_16  and  N_17
REMARK                            x       y       z     vdW  Elec       q    Type
REMARK                         _______ _______ _______ _____ _____    ______ ____
ROOT
ATOM      1  C   UNL     1      47.972   6.771  13.405  0.00  0.00    +0.000 C 
ATOM      2  O   UNL     1      49.058   6.512  12.892  0.00  0.00    +0.000 OA
ATOM      3  N   UNL     1      47.883   7.405  14.617  0.00  0.00    +0.000 N 
ATOM      4  H   UNL     1      46.976   7.591  15.032  0.00  0.00    +0.000 HD
ENDROOT
BRANCH   1  11
ATOM      5  N   UNL     1      43.390   2.085  11.855  0.00  0.00    +0.000 N 
ATOM      6  C   UNL     1      44.223   3.138  12.048  0.00  0.00    +0.000 A 
ATOM      7  N   UNL     1      43.916   4.314  11.597  0.00  0.00    +0.000 NA
ATOM      8  C   UNL     1      44.816   5.297  11.877  0.00  0.00    +0.000 A 
ATOM      9  S   UNL     1      44.534   6.898  11.380  0.00  0.00    +0.000 S 
ATOM     10  C   UNL     1      45.979   7.434  12.106  0.00  0.00    +0.000 A 
ATOM     11  C   UNL     1      46.709   6.425  12.725  0.00  0.00    +0.000 A 
ATOM     12  C   UNL     1      46.004   5.170  12.572  0.00  0.00    +0.000 A 
ATOM     13  C   UNL     1      46.318   3.832  13.037  0.00  0.00    +0.000 A 
ATOM     14  O   UNL     1      47.333   3.538  13.663  0.00  0.00    +0.000 OA
ATOM     15  N   UNL     1      45.378   2.878  12.731  0.00  0.00    +0.000 N 
ATOM     16  H   UNL     1      42.675   2.260  11.157  0.00  0.00    +0.000 HD
ATOM     17  H   UNL     1      43.780   1.153  11.819  0.00  0.00    +0.000 HD
ATOM     18  H   UNL     1      45.561   1.952  13.079  0.00  0.00    +0.000 HD
ENDBRANCH   1  11
BRANCH   3  19
ATOM     19  C   UNL     1      49.041   7.858  15.350  0.00  0.00    +0.000 C 
BRANCH  19  20
ATOM     20  C   UNL     1      49.655   6.769  16.193  0.00  0.00    +0.000 A 
ATOM     21  C   UNL     1      51.048   6.672  16.319  0.00  0.00    +0.000 A 
ATOM     22  C   UNL     1      51.625   5.676  17.113  0.00  0.00    +0.000 A 
ATOM     23  C   UNL     1      50.822   4.740  17.777  0.00  0.00    +0.000 A 
ATOM     24  C   UNL     1      49.429   4.838  17.654  0.00  0.00    +0.000 A 
ATOM     25  C   UNL     1      48.852   5.838  16.863  0.00  0.00    +0.000 A 
BRANCH  23  26
ATOM     26  C   UNL     1      51.442   3.623  18.588  0.00  0.00    +0.000 C 
BRANCH  26  27
ATOM     27  N   UNL     1      51.606   2.425  17.771  0.00  0.00    +0.000 N 
ATOM     28  C   UNL     1      52.796   1.721  18.046  0.00  0.00    +0.000 A 
ATOM     29  C   UNL     1      53.057   0.564  17.341  0.00  0.00    +0.000 A 
ATOM     30  C   UNL     1      54.222  -0.105  17.649  0.00  0.00    +0.000 A 
ATOM     31  N   UNL     1      55.092   0.314  18.583  0.00  0.00    +0.000 NA
ATOM     32  C   UNL     1      54.742   1.436  19.221  0.00  0.00    +0.000 A 
ATOM     33  N   UNL     1      53.633   2.158  19.003  0.00  0.00    +0.000 NA
ATOM     34  H   UNL     1      51.555   2.634  16.779  0.00  0.00    +0.000 HD
ENDBRANCH  26  27
ENDBRANCH  23  26
ENDBRANCH  19  20
ENDBRANCH   3  19
TORSDOF 5
ENDMDL
MODEL 4
REMARK VINA RESULT:    -7.258      1.611      2.321
REMARK INTER + INTRA:         -10.428
REMARK INTER:                  -9.754
REMARK INTRA:                  -0.674
REMARK UNBOUND:                -1.049
REMARK  Name = 
REMARK  5 active torsions:
REMARK  status: ('A' for Active; 'I' for Inactive)
REMARK    1  A    between atoms: C_7  and  C_8
REMARK    2  A    between atoms: N_10  and  C_11
REMARK    3  A    between atoms: C_11  and  C_12
REMARK    4  A    between atoms: C_15  and  C_16
REMARK    5  A    between atoms: C_16  and  N_17
REMARK                            x       y       z     vdW  Elec       q    Type
REMARK                         _______ _______ _______ _____ _____    ______ ____
ROOT
ATOM      1  C   UNL     1      48.882   7.780  15.146  0.00  0.00    +0.000 C 
ATOM      2  O   UNL     1      49.840   7.602  14.397  0.00  0.00    +0.000 OA
ATOM      3  N   UNL     1      47.702   8.310  14.690  0.00  0.00    +0.000 N 
ATOM      4  H   UNL     1      46.931   8.467  15.331  0.00  0.00    +0.000 HD
ENDROOT
BRANCH   1  11
ATOM      5  N   UNL     1      48.328   3.010  19.868  0.00  0.00    +0.000 N 
ATOM      6  C   UNL     1      48.452   4.091  19.058  0.00  0.00    +0.000 A 
ATOM      7  N   UNL     1      48.807   5.241  19.539  0.00  0.00    +0.000 NA
ATOM      8  C   UNL     1      48.925   6.243  18.625  0.00  0.00    +0.000 A 
ATOM      9  S   UNL     1      49.415   7.800  19.103  0.00  0.00    +0.000 S 
ATOM     10  C   UNL     1      49.354   8.369  17.497  0.00  0.00    +0.000 A 
ATOM     11  C   UNL     1      48.955   7.410  16.573  0.00  0.00    +0.000 A 
ATOM     12  C   UNL     1      48.702   6.163  17.263  0.00  0.00    +0.000 A 
ATOM     13  C   UNL     1      48.285   4.864  16.772  0.00  0.00    +0.000 A 
ATOM     14  O   UNL     1      48.036   4.616  15.595  0.00  0.00    +0.000 OA
ATOM     15  N   UNL     1      48.182   3.887  17.734  0.00  0.00    +0.000 N 
ATOM     16  H   UNL     1      48.306   3.248  20.855  0.00  0.00    +0.000 HD
ATOM     17  H   UNL     1      47.686   2.275  19.608  0.00  0.00    +0.000 HD
ATOM     18  H   UNL     1      47.931   2.971  17.405  0.00  0.00    +0.000 HD
ENDBRANCH   1  11
BRANCH   3  19
ATOM     19  C   UNL     1      47.480   8.648  13.305  0.00  0.00    +0.000 C 
BRANCH  19  20
ATOM     20  C   UNL     1      46.471   7.743  12.644  0.00  0.00    +0.000 A 
ATOM     21  C   UNL     1      45.336   8.284  12.021  0.00  0.00    +0.000 A 
ATOM     22  C   UNL     1      44.405   7.453  11.391  0.00  0.00    +0.000 A 
ATOM     23  C   UNL     1      44.574   6.063  11.390  0.00  0.00    +0.000 A 
ATOM     24  C   UNL     1      45.711   5.522  12.010  0.00  0.00    +0.000 A 
ATOM     25  C   UNL     1      46.645   6.354  12.637  0.00  0.00    +0.000 A 
BRANCH  23  26
ATOM     26  C   UNL     1      43.539   5.156  10.763  0.00  0.00    +0.000 C 
BRANCH  26  27
ATOM     27  N   UNL     1      43.986   3.767  10.796  0.00  0.00    +0.000 N 
ATOM     28  C   UNL     1      44.689   3.381   9.636  0.00  0.00    +0.000 A 
ATOM     29  C   UNL     1      45.170   2.089   9.556  0.00  0.00    +0.000 A 
ATOM     30  C   UNL     1      45.866   1.753   8.415  0.00  0.00    +0.000 A 
ATOM     31  N   UNL     1      46.087   2.609   7.403  0.00  0.00    +0.000 NA
ATOM     32  C   UNL     1      45.595   3.839   7.583  0.00  0.00    +0.000 A 
ATOM     33  N   UNL     1      44.911   4.270   8.653  0.00  0.00    +0.000 NA
ATOM     34  H   UNL     1      43.215   3.126  10.958  0.00  0.00    +0.000 HD
ENDBRANCH  26  27
ENDBRANCH  23  26
ENDBRANCH  19  20
ENDBRANCH   3  19
TORSDOF 5
ENDMDL
MODEL 5
REMARK VINA RESULT:    -7.253      3.019      4.215
REMARK INTER + INTRA:         -10.422
REMARK INTER:                  -9.522
REMARK INTRA:                  -0.900
REMARK UNBOUND:                -1.049
REMARK  Name = 
REMARK  5 active torsions:
REMARK  status: ('A' for Active; 'I' for Inactive)
REMARK    1  A    between atoms: C_7  and  C_8
REMARK    2  A    between atoms: N_10  and  C_11
REMARK    3  A    between atoms: C_11  and  C_12
REMARK    4  A    between atoms: C_15  and  C_16
REMARK    5  A    between atoms: C_16  and  N_17
REMARK                            x       y       z     vdW  Elec       q    Type
REMARK                         _______ _______ _______ _____ _____    ______ ____
ROOT
ATOM      1  C   UNL     1      47.507   8.166  13.145  0.00  0.00    +0.000 C 
ATOM      2  O   UNL     1      46.474   8.831  13.184  0.00  0.00    +0.000 OA
ATOM      3  N   UNL     1      47.508   6.824  13.428  0.00  0.00    +0.000 N 
ATOM      4  H   UNL     1      48.375   6.298  13.408  0.00  0.00    +0.000 HD
ENDROOT
BRANCH   1  11
ATOM      5  N   UNL     1      54.190   8.420  13.933  0.00  0.00    +0.000 N 
ATOM      6  C   UNL     1      52.862   8.523  13.674  0.00  0.00    +0.000 A 
ATOM      7  N   UNL     1      52.426   9.352  12.777  0.00  0.00    +0.000 NA
ATOM      8  C   UNL     1      51.079   9.346  12.585  0.00  0.00    +0.000 A 
ATOM      9  S   UNL     1      50.364  10.356  11.419  0.00  0.00    +0.000 S 
ATOM     10  C   UNL     1      48.811   9.745  11.765  0.00  0.00    +0.000 A 
ATOM     11  C   UNL     1      48.793   8.782  12.769  0.00  0.00    +0.000 A 
ATOM     12  C   UNL     1      50.144   8.566  13.242  0.00  0.00    +0.000 A 
ATOM     13  C   UNL     1      50.674   7.671  14.252  0.00  0.00    +0.000 A 
ATOM     14  O   UNL     1      49.988   6.915  14.935  0.00  0.00    +0.000 OA
ATOM     15  N   UNL     1      52.039   7.714  14.406  0.00  0.00    +0.000 N 
ATOM     16  H   UNL     1      54.735   9.185  13.550  0.00  0.00    +0.000 HD
ATOM     17  H   UNL     1      54.487   8.124  14.852  0.00  0.00    +0.000 HD
ATOM     18  H   UNL     1      52.427   7.072  15.075  0.00  0.00    +0.000 HD
ENDBRANCH   1  11
BRANCH   3  19
ATOM     19  C   UNL     1      46.305   6.089  13.740  0.00  0.00    +0.000 C 
BRANCH  19  20
ATOM     20  C   UNL     1      45.785   5.304  12.563  0.00  0.00    +0.000 A 
ATOM     21  C   UNL     1      45.713   3.905  12.622  0.00  0.00    +0.000 A 
ATOM     22  C   UNL     1      45.215   3.170  11.541  0.00  0.00    +0.000 A 
ATOM     23  C   UNL     1      44.802   3.816  10.369  0.00  0.00    +0.000 A 
ATOM     24  C   UNL     1      44.871   5.216  10.312  0.00  0.00    +0.000 A 
ATOM     25  C   UNL     1      45.365   5.951  11.395  0.00  0.00    +0.000 A 
BRANCH  23  26
ATOM     26  C   UNL     1      44.320   3.023   9.175  0.00  0.00    +0.000 C 
BRANCH  26  27
ATOM     27  N   UNL     1      44.873   3.568   7.940  0.00  0.00    +0.000 N 
ATOM     28  C   UNL     1      45.939   2.804   7.422  0.00  0.00    +0.000 A 
ATOM     29  C   UNL     1      46.538   3.217   6.248  0.00  0.00    +0.000 A 
ATOM     30  C   UNL     1      47.566   2.437   5.765  0.00  0.00    +0.000 A 
ATOM     31  N   UNL     1      47.998   1.320   6.374  0.00  0.00    +0.000 NA
ATOM     32  C   UNL     1      47.344   0.996   7.495  0.00  0.00    +0.000 A 
ATOM     33  N   UNL     1      46.330   1.680   8.047  0.00  0.00    +0.000 NA
ATOM     34  H   UNL     1      45.167   4.534   8.051  0.00  0.00    +0.000 HD
ENDBRANCH  26  27
ENDBRANCH  23  26
ENDBRANCH  19  20
ENDBRANCH   3  19
TORSDOF 5
ENDMDL
MODEL 6
REMARK VINA RESULT:    -7.221      2.042      2.457
REMARK INTER + INTRA:         -10.380
REMARK INTER:                  -9.569
REMARK INTRA:                  -0.811
REMARK UNBOUND:                -1.049
REMARK  Name = 
REMARK  5 active torsions:
REMARK  status: ('A' for Active; 'I' for Inactive)
REMARK    1  A    between atoms: C_7  and  C_8
REMARK    2  A    between atoms: N_10  and  C_11
REMARK    3  A    between atoms: C_11  and  C_12
REMARK    4  A    between atoms: C_15  and  C_16
REMARK    5  A    between atoms: C_16  and  N_17
REMARK                            x       y       z     vdW  Elec       q    Type
REMARK                         _______ _______ _______ _____ _____    ______ ____
ROOT
ATOM      1  C   UNL     1      48.768   6.335  16.176  0.00  0.00    +0.000 C 
ATOM      2  O   UNL     1      48.076   7.037  16.911  0.00  0.00    +0.000 OA
ATOM      3  N   UNL     1      48.511   6.230  14.834  0.00  0.00    +0.000 N 
ATOM      4  H   UNL     1      49.082   5.629  14.249  0.00  0.00    +0.000 HD
ENDROOT
BRANCH   1  11
ATOM      5  N   UNL     1      51.454   0.412  17.924  0.00  0.00    +0.000 N 
ATOM      6  C   UNL     1      51.062   1.682  17.651  0.00  0.00    +0.000 A 
ATOM      7  N   UNL     1      51.885   2.673  17.796  0.00  0.00    +0.000 NA
ATOM      8  C   UNL     1      51.387   3.895  17.463  0.00  0.00    +0.000 A 
ATOM      9  S   UNL     1      52.359   5.287  17.570  0.00  0.00    +0.000 S 
ATOM     10  C   UNL     1      51.101   6.275  16.984  0.00  0.00    +0.000 A 
ATOM     11  C   UNL     1      49.924   5.588  16.707  0.00  0.00    +0.000 A 
ATOM     12  C   UNL     1      50.115   4.184  17.003  0.00  0.00    +0.000 A 
ATOM     13  C   UNL     1      49.222   3.048  16.878  0.00  0.00    +0.000 A 
ATOM     14  O   UNL     1      48.058   3.122  16.493  0.00  0.00    +0.000 OA
ATOM     15  N   UNL     1      49.773   1.838  17.224  0.00  0.00    +0.000 N 
ATOM     16  H   UNL     1      52.320   0.363  18.451  0.00  0.00    +0.000 HD
ATOM     17  H   UNL     1      50.759  -0.263  18.211  0.00  0.00    +0.000 HD
ATOM     18  H   UNL     1      49.179   1.034  17.107  0.00  0.00    +0.000 HD
ENDBRANCH   1  11
BRANCH   3  19
ATOM     19  C   UNL     1      47.454   6.964  14.179  0.00  0.00    +0.000 C 
BRANCH  19  20
ATOM     20  C   UNL     1      46.654   6.106  13.232  0.00  0.00    +0.000 A 
ATOM     21  C   UNL     1      46.481   6.497  11.897  0.00  0.00    +0.000 A 
ATOM     22  C   UNL     1      45.755   5.699  11.008  0.00  0.00    +0.000 A 
ATOM     23  C   UNL     1      45.165   4.505  11.441  0.00  0.00    +0.000 A 
ATOM     24  C   UNL     1      45.340   4.111  12.776  0.00  0.00    +0.000 A 
ATOM     25  C   UNL     1      46.070   4.909  13.664  0.00  0.00    +0.000 A 
BRANCH  23  26
ATOM     26  C   UNL     1      44.327   3.668  10.499  0.00  0.00    +0.000 C 
BRANCH  26  27
ATOM     27  N   UNL     1      45.018   2.428  10.161  0.00  0.00    +0.000 N 
ATOM     28  C   UNL     1      45.602   2.449   8.877  0.00  0.00    +0.000 A 
ATOM     29  C   UNL     1      46.293   1.333   8.448  0.00  0.00    +0.000 A 
ATOM     30  C   UNL     1      46.863   1.397   7.195  0.00  0.00    +0.000 A 
ATOM     31  N   UNL     1      46.775   2.473   6.395  0.00  0.00    +0.000 NA
ATOM     32  C   UNL     1      46.099   3.507   6.907  0.00  0.00    +0.000 A 
ATOM     33  N   UNL     1      45.513   3.551   8.113  0.00  0.00    +0.000 NA
ATOM     34  H   UNL     1      44.409   1.620  10.245  0.00  0.00    +0.000 HD
ENDBRANCH  26  27
ENDBRANCH  23  26
ENDBRANCH  19  20
ENDBRANCH   3  19
TORSDOF 5
ENDMDL
MODEL 7
REMARK VINA RESULT:    -7.053      2.238      3.061
REMARK INTER + INTRA:         -10.163
REMARK INTER:                  -9.604
REMARK INTRA:                  -0.559
REMARK UNBOUND:                -1.049
REMARK  Name = 
REMARK  5 active torsions:
REMARK  status: ('A' for Active; 'I' for Inactive)
REMARK    1  A    between atoms: C_7  and  C_8
REMARK    2  A    between atoms: N_10  and  C_11
REMARK    3  A    between atoms: C_11  and  C_12
REMARK    4  A    between atoms: C_15  and  C_16
REMARK    5  A    between atoms: C_16  and  N_17
REMARK                            x       y       z     vdW  Elec       q    Type
REMARK                         _______ _______ _______ _____ _____    ______ ____
ROOT
ATOM      1  C   UNL     1      48.485   6.890  16.007  0.00  0.00    +0.000 C 
ATOM      2  O   UNL     1      48.459   8.113  16.127  0.00  0.00    +0.000 OA
ATOM      3  N   UNL     1      48.027   6.270  14.873  0.00  0.00    +0.000 N 
ATOM      4  H   UNL     1      48.040   5.257  14.803  0.00  0.00    +0.000 HD
ENDROOT
BRANCH   1  11
ATOM      5  N   UNL     1      53.893   4.375  19.135  0.00  0.00    +0.000 N 
ATOM      6  C   UNL     1      52.704   4.762  18.607  0.00  0.00    +0.000 A 
ATOM      7  N   UNL     1      51.587   4.388  19.148  0.00  0.00    +0.000 NA
ATOM      8  C   UNL     1      50.462   4.864  18.547  0.00  0.00    +0.000 A 
ATOM      9  S   UNL     1      48.923   4.485  19.163  0.00  0.00    +0.000 S 
ATOM     10  C   UNL     1      48.155   5.426  17.968  0.00  0.00    +0.000 A 
ATOM     11  C   UNL     1      49.033   6.033  17.076  0.00  0.00    +0.000 A 
ATOM     12  C   UNL     1      50.391   5.682  17.435  0.00  0.00    +0.000 A 
ATOM     13  C   UNL     1      51.663   6.057  16.850  0.00  0.00    +0.000 A 
ATOM     14  O   UNL     1      51.785   6.770  15.858  0.00  0.00    +0.000 OA
ATOM     15  N   UNL     1      52.767   5.553  17.494  0.00  0.00    +0.000 N 
ATOM     16  H   UNL     1      53.807   3.614  19.802  0.00  0.00    +0.000 HD
ATOM     17  H   UNL     1      54.696   4.300  18.528  0.00  0.00    +0.000 HD
ATOM     18  H   UNL     1      53.659   5.834  17.124  0.00  0.00    +0.000 HD
ENDBRANCH   1  11
BRANCH   3  19
ATOM     19  C   UNL     1      47.533   6.997  13.729  0.00  0.00    +0.000 C 
BRANCH  19  20
ATOM     20  C   UNL     1      46.651   6.153  12.843  0.00  0.00    +0.000 A 
ATOM     21  C   UNL     1      46.306   6.597  11.559  0.00  0.00    +0.000 A 
ATOM     22  C   UNL     1      45.503   5.813  10.725  0.00  0.00    +0.000 A 
ATOM     23  C   UNL     1      45.007   4.579  11.166  0.00  0.00    +0.000 A 
ATOM     24  C   UNL     1      45.355   4.134  12.450  0.00  0.00    +0.000 A 
ATOM     25  C   UNL     1      46.162   4.917  13.283  0.00  0.00    +0.000 A 
BRANCH  23  26
ATOM     26  C   UNL     1      44.088   3.755  10.292  0.00  0.00    +0.000 C 
BRANCH  26  27
ATOM     27  N   UNL     1      44.709   2.478   9.955  0.00  0.00    +0.000 N 
ATOM     28  C   UNL     1      45.463   2.524   8.763  0.00  0.00    +0.000 A 
ATOM     29  C   UNL     1      46.106   1.376   8.345  0.00  0.00    +0.000 A 
ATOM     30  C   UNL     1      46.846   1.463   7.186  0.00  0.00    +0.000 A 
ATOM     31  N   UNL     1      46.962   2.590   6.464  0.00  0.00    +0.000 NA
ATOM     32  C   UNL     1      46.314   3.650   6.959  0.00  0.00    +0.000 A 
ATOM     33  N   UNL     1      45.574   3.675   8.078  0.00  0.00    +0.000 NA
ATOM     34  H   UNL     1      44.027   1.729   9.898  0.00  0.00    +0.000 HD
ENDBRANCH  26  27
ENDBRANCH  23  26
ENDBRANCH  19  20
ENDBRANCH   3  19
TORSDOF 5
ENDMDL
MODEL 8
REMARK VINA RESULT:    -7.005      4.797      7.170
REMARK INTER + INTRA:         -10.101
REMARK INTER:                  -9.314
REMARK INTRA:                  -0.787
REMARK UNBOUND:                -1.049
REMARK  Name = 
REMARK  5 active torsions:
REMARK  status: ('A' for Active; 'I' for Inactive)
REMARK    1  A    between atoms: C_7  and  C_8
REMARK    2  A    between atoms: N_10  and  C_11
REMARK    3  A    between atoms: C_11  and  C_12
REMARK    4  A    between atoms: C_15  and  C_16
REMARK    5  A    between atoms: C_16  and  N_17
REMARK                            x       y       z     vdW  Elec       q    Type
REMARK                         _______ _______ _______ _____ _____    ______ ____
ROOT
ATOM      1  C   UNL     1      45.200   7.581  11.678  0.00  0.00    +0.000 C 
ATOM      2  O   UNL     1      44.588   8.521  11.174  0.00  0.00    +0.000 OA
ATOM      3  N   UNL     1      46.456   7.742  12.205  0.00  0.00    +0.000 N 
ATOM      4  H   UNL     1      46.951   6.949  12.598  0.00  0.00    +0.000 HD
ENDROOT
BRANCH   1  11
ATOM      5  N   UNL     1      44.554   1.427   9.021  0.00  0.00    +0.000 N 
ATOM      6  C   UNL     1      44.546   2.618   9.670  0.00  0.00    +0.000 A 
ATOM      7  N   UNL     1      43.886   2.764  10.776  0.00  0.00    +0.000 NA
ATOM      8  C   UNL     1      43.977   3.995  11.350  0.00  0.00    +0.000 A 
ATOM      9  S   UNL     1      43.191   4.327  12.821  0.00  0.00    +0.000 S 
ATOM     10  C   UNL     1      43.803   5.917  12.850  0.00  0.00    +0.000 A 
ATOM     11  C   UNL     1      44.598   6.237  11.755  0.00  0.00    +0.000 A 
ATOM     12  C   UNL     1      44.682   5.087  10.879  0.00  0.00    +0.000 A 
ATOM     13  C   UNL     1      45.387   4.885   9.628  0.00  0.00    +0.000 A 
ATOM     14  O   UNL     1      46.055   5.748   9.063  0.00  0.00    +0.000 OA
ATOM     15  N   UNL     1      45.264   3.626   9.091  0.00  0.00    +0.000 N 
ATOM     16  H   UNL     1      43.836   0.788   9.346  0.00  0.00    +0.000 HD
ATOM     17  H   UNL     1      44.691   1.417   8.020  0.00  0.00    +0.000 HD
ATOM     18  H   UNL     1      45.778   3.458   8.243  0.00  0.00    +0.000 HD
ENDBRANCH   1  11
BRANCH   3  19
ATOM     19  C   UNL     1      47.126   9.020  12.255  0.00  0.00    +0.000 C 
BRANCH  19  20
ATOM     20  C   UNL     1      48.562   8.938  11.805  0.00  0.00    +0.000 A 
ATOM     21  C   UNL     1      49.204   7.695  11.708  0.00  0.00    +0.000 A 
ATOM     22  C   UNL     1      50.531   7.608  11.275  0.00  0.00    +0.000 A 
ATOM     23  C   UNL     1      51.253   8.765  10.955  0.00  0.00    +0.000 A 
ATOM     24  C   UNL     1      50.611  10.008  11.049  0.00  0.00    +0.000 A 
ATOM     25  C   UNL     1      49.282  10.094  11.478  0.00  0.00    +0.000 A 
BRANCH  23  26
ATOM     26  C   UNL     1      52.707   8.683  10.545  0.00  0.00    +0.000 C 
BRANCH  26  27
ATOM     27  N   UNL     1      53.101   7.296  10.325  0.00  0.00    +0.000 N 
ATOM     28  C   UNL     1      53.166   6.945   8.961  0.00  0.00    +0.000 A 
ATOM     29  C   UNL     1      53.538   5.658   8.627  0.00  0.00    +0.000 A 
ATOM     30  C   UNL     1      53.607   5.357   7.284  0.00  0.00    +0.000 A 
ATOM     31  N   UNL     1      53.331   6.243   6.312  0.00  0.00    +0.000 NA
ATOM     32  C   UNL     1      52.996   7.466   6.736  0.00  0.00    +0.000 A 
ATOM     33  N   UNL     1      52.906   7.864   8.014  0.00  0.00    +0.000 NA
ATOM     34  H   UNL     1      52.493   6.647  10.815  0.00  0.00    +0.000 HD
ENDBRANCH  26  27
ENDBRANCH  23  26
ENDBRANCH  19  20
ENDBRANCH   3  19
TORSDOF 5
ENDMDL
MODEL 9
REMARK VINA RESULT:    -6.965      3.022      9.025
REMARK INTER + INTRA:         -10.050
REMARK INTER:                  -9.235
REMARK INTRA:                  -0.815
REMARK UNBOUND:                -1.049
REMARK  Name = 
REMARK  5 active torsions:
REMARK  status: ('A' for Active; 'I' for Inactive)
REMARK    1  A    between atoms: C_7  and  C_8
REMARK    2  A    between atoms: N_10  and  C_11
REMARK    3  A    between atoms: C_11  and  C_12
REMARK    4  A    between atoms: C_15  and  C_16
REMARK    5  A    between atoms: C_16  and  N_17
REMARK                            x       y       z     vdW  Elec       q    Type
REMARK                         _______ _______ _______ _____ _____    ______ ____
ROOT
ATOM      1  C   UNL     1      44.309   4.697  10.272  0.00  0.00    +0.000 C 
ATOM      2  O   UNL     1      43.153   4.775  10.684  0.00  0.00    +0.000 OA
ATOM      3  N   UNL     1      45.232   5.676  10.533  0.00  0.00    +0.000 N 
ATOM      4  H   UNL     1      46.175   5.600  10.167  0.00  0.00    +0.000 HD
ENDROOT
BRANCH   1  11
ATOM      5  N   UNL     1      48.498   2.157   5.652  0.00  0.00    +0.000 N 
ATOM      6  C   UNL     1      47.565   2.506   6.572  0.00  0.00    +0.000 A 
ATOM      7  N   UNL     1      46.768   1.616   7.077  0.00  0.00    +0.000 NA
ATOM      8  C   UNL     1      45.894   2.081   8.011  0.00  0.00    +0.000 A 
ATOM      9  S   UNL     1      44.809   1.026   8.785  0.00  0.00    +0.000 S 
ATOM     10  C   UNL     1      44.180   2.289   9.741  0.00  0.00    +0.000 A 
ATOM     11  C   UNL     1      44.759   3.528   9.492  0.00  0.00    +0.000 A 
ATOM     12  C   UNL     1      45.766   3.382   8.462  0.00  0.00    +0.000 A 
ATOM     13  C   UNL     1      46.662   4.347   7.855  0.00  0.00    +0.000 A 
ATOM     14  O   UNL     1      46.680   5.544   8.130  0.00  0.00    +0.000 OA
ATOM     15  N   UNL     1      47.525   3.827   6.919  0.00  0.00    +0.000 N 
ATOM     16  H   UNL     1      48.345   1.236   5.254  0.00  0.00    +0.000 HD
ATOM     17  H   UNL     1      48.808   2.847   4.983  0.00  0.00    +0.000 HD
ATOM     18  H   UNL     1      48.179   4.476   6.516  0.00  0.00    +0.000 HD
ENDBRANCH   1  11
BRANCH   3  19
ATOM     19  C   UNL     1      44.937   6.834  11.343  0.00  0.00    +0.000 C 
BRANCH  19  20
ATOM     20  C   UNL     1      45.990   7.091  12.391  0.00  0.00    +0.000 A 
ATOM     21  C   UNL     1      46.818   6.049  12.833  0.00  0.00    +0.000 A 
ATOM     22  C   UNL     1      47.808   6.283  13.792  0.00  0.00    +0.000 A 
ATOM     23  C   UNL     1      47.975   7.557  14.349  0.00  0.00    +0.000 A 
ATOM     24  C   UNL     1      47.149   8.600  13.905  0.00  0.00    +0.000 A 
ATOM     25  C   UNL     1      46.161   8.367  12.942  0.00  0.00    +0.000 A 
BRANCH  23  26
ATOM     26  C   UNL     1      49.003   7.803  15.431  0.00  0.00    +0.000 C 
BRANCH  26  27
ATOM     27  N   UNL     1      48.409   7.631  16.752  0.00  0.00    +0.000 N 
ATOM     28  C   UNL     1      48.775   6.419  17.374  0.00  0.00    +0.000 A 
ATOM     29  C   UNL     1      48.281   6.149  18.634  0.00  0.00    +0.000 A 
ATOM     30  C   UNL     1      48.673   4.963  19.216  0.00  0.00    +0.000 A 
ATOM     31  N   UNL     1      49.494   4.081  18.621  0.00  0.00    +0.000 NA
ATOM     32  C   UNL     1      49.931   4.441  17.409  0.00  0.00    +0.000 A 
ATOM     33  N   UNL     1      49.617   5.571  16.757  0.00  0.00    +0.000 NA
ATOM     34  H   UNL     1      47.397   7.709  16.725  0.00  0.00    +0.000 HD
ENDBRANCH  26  27
ENDBRANCH  23  26
ENDBRANCH  19  20
ENDBRANCH   3  19
TORSDOF 5
ENDMDL
