MODEL 1
REMARK VINA RESULT:    -7.120      0.000      0.000
REMARK INTER + INTRA:         -11.091
REMARK INTER:                 -10.033
REMARK INTRA:                  -1.058
REMARK UNBOUND:                -1.058
REMARK  Name = 
REMARK  7 active torsions:
REMARK  status: ('A' for Active; 'I' for Inactive)
REMARK    1  A    between atoms: C_2  and  C_19
REMARK    2  A    between atoms: N_3  and  C_4
REMARK    3  A    between atoms: C_4  and  C_5
REMARK    4  A    between atoms: C_8  and  O_9
REMARK    5  A    between atoms: O_9  and  C_10
REMARK    6  A    between atoms: C_10  and  C_11
REMARK    7  A    between atoms: C_11  and  N_12
REMARK                            x       y       z     vdW  Elec       q    Type
REMARK                         _______ _______ _______ _____ _____    ______ ____
ROOT
ATOM      1  O   UNL     1      49.300   6.668  13.604  0.00  0.00    +0.000 OA
ATOM      2  C   UNL     1      48.427   6.628  14.472  0.00  0.00    +0.000 C 
ATOM      3  N   UNL     1      47.103   6.815  14.183  0.00  0.00    +0.000 N 
ATOM      4  H   UNL     1      46.442   6.946  14.943  0.00  0.00    +0.000 HD
ENDROOT
BRANCH   2   5
ATOM      5  C   UNL     1      48.751   6.322  15.870  0.00  0.00    +0.000 A 
ATOM      6  C   UNL     1      49.406   7.265  16.652  0.00  0.00    +0.000 A 
ATOM      7  S   UNL     1      49.724   6.733  18.241  0.00  0.00    +0.000 S 
ATOM      8  C   UNL     1      48.960   5.241  17.953  0.00  0.00    +0.000 A 
ATOM      9  N   UNL     1      48.858   4.306  18.938  0.00  0.00    +0.000 NA
ATOM     10  C   UNL     1      48.216   3.239  18.595  0.00  0.00    +0.000 A 
ATOM     11  N   UNL     1      47.679   3.017  17.356  0.00  0.00    +0.000 N 
ATOM     12  C   UNL     1      47.819   3.898  16.311  0.00  0.00    +0.000 A 
ATOM     13  O   UNL     1      47.441   3.606  15.180  0.00  0.00    +0.000 OA
ATOM     14  C   UNL     1      48.495   5.138  16.655  0.00  0.00    +0.000 A 
ATOM     15  H   UNL     1      47.211   2.145  17.144  0.00  0.00    +0.000 HD
ENDBRANCH   2   5
BRANCH   3  16
ATOM     16  C   UNL     1      46.631   7.168  12.871  0.00  0.00    +0.000 C 
BRANCH  16  17
ATOM     17  C   UNL     1      45.767   6.092  12.284  0.00  0.00    +0.000 A 
ATOM     18  C   UNL     1      45.942   4.737  12.588  0.00  0.00    +0.000 A 
ATOM     19  C   UNL     1      45.134   3.781  11.970  0.00  0.00    +0.000 A 
ATOM     20  C   UNL     1      44.184   4.214  11.060  0.00  0.00    +0.000 A 
ATOM     21  N   UNL     1      43.958   5.517  10.790  0.00  0.00    +0.000 NA
ATOM     22  C   UNL     1      44.740   6.422  11.411  0.00  0.00    +0.000 A 
BRANCH  20  23
ATOM     23  O   UNL     1      43.428   3.253  10.415  0.00  0.00    +0.000 OA
BRANCH  23  24
ATOM     24  C   UNL     1      44.253   2.169   9.954  0.00  0.00    +0.000 C 
BRANCH  24  25
ATOM     25  C   UNL     1      44.727   2.439   8.516  0.00  0.00    +0.000 C 
BRANCH  25  26
ATOM     26  N   UNL     1      46.163   2.771   8.422  0.00  0.00    +0.000 NA
ATOM     27  C   UNL     1      46.833   1.948   7.406  0.00  0.00    +0.000 C 
ATOM     28  C   UNL     1      46.644   2.703   6.100  0.00  0.00    +0.000 C 
ATOM     29  O   UNL     1      46.366   4.062   6.459  0.00  0.00    +0.000 OA
ATOM     30  C   UNL     1      46.396   4.113   7.884  0.00  0.00    +0.000 C 
ENDBRANCH  25  26
ENDBRANCH  24  25
ENDBRANCH  23  24
ENDBRANCH  20  23
ENDBRANCH  16  17
ENDBRANCH   3  16
TORSDOF 7
ENDMDL
MODEL 2
REMARK VINA RESULT:    -6.951      2.748      8.288
REMARK INTER + INTRA:         -10.854
REMARK INTER:                  -9.858
REMARK INTRA:                  -0.995
REMARK UNBOUND:                -1.058
REMARK  Name = 
REMARK  7 active torsions:
REMARK  status: ('A' for Active; 'I' for Inactive)
REMARK    1  A    between atoms: C_2  and  C_19
REMARK    2  A    between atoms: N_3  and  C_4
REMARK    3  A    between atoms: C_4  and  C_5
REMARK    4  A    between atoms: C_8  and  O_9
REMARK    5  A    between atoms: O_9  and  C_10
REMARK    6  A    between atoms: C_10  and  C_11
REMARK    7  A    between atoms: C_11  and  N_12
REMARK                            x       y       z     vdW  Elec       q    Type
REMARK                         _______ _______ _______ _____ _____    ______ ____
ROOT
ATOM      1  O   UNL     1      44.756   7.400  11.877  0.00  0.00    +0.000 OA
ATOM      2  C   UNL     1      45.444   6.391  11.723  0.00  0.00    +0.000 C 
ATOM      3  N   UNL     1      46.800   6.397  11.904  0.00  0.00    +0.000 N 
ATOM      4  H   UNL     1      47.346   5.597  11.601  0.00  0.00    +0.000 HD
ENDROOT
BRANCH   2   5
ATOM      5  C   UNL     1      44.839   5.098  11.384  0.00  0.00    +0.000 A 
ATOM      6  C   UNL     1      44.035   4.444  12.309  0.00  0.00    +0.000 A 
ATOM      7  S   UNL     1      43.437   2.945  11.757  0.00  0.00    +0.000 S 
ATOM      8  C   UNL     1      44.197   3.136  10.248  0.00  0.00    +0.000 A 
ATOM      9  N   UNL     1      44.062   2.194   9.273  0.00  0.00    +0.000 NA
ATOM     10  C   UNL     1      44.655   2.487   8.164  0.00  0.00    +0.000 A 
ATOM     11  N   UNL     1      45.379   3.627   7.944  0.00  0.00    +0.000 N 
ATOM     12  C   UNL     1      45.604   4.570   8.919  0.00  0.00    +0.000 A 
ATOM     13  O   UNL     1      46.368   5.511   8.727  0.00  0.00    +0.000 OA
ATOM     14  C   UNL     1      44.920   4.312  10.175  0.00  0.00    +0.000 A 
ATOM     15  H   UNL     1      45.843   3.783   7.058  0.00  0.00    +0.000 HD
ENDBRANCH   2   5
BRANCH   3  16
ATOM     16  C   UNL     1      47.544   7.595  12.192  0.00  0.00    +0.000 C 
BRANCH  16  17
ATOM     17  C   UNL     1      48.449   7.413  13.374  0.00  0.00    +0.000 A 
ATOM     18  C   UNL     1      49.627   8.149  13.540  0.00  0.00    +0.000 A 
ATOM     19  C   UNL     1      50.450   7.897  14.640  0.00  0.00    +0.000 A 
ATOM     20  C   UNL     1      50.068   6.909  15.532  0.00  0.00    +0.000 A 
ATOM     21  N   UNL     1      48.911   6.222  15.425  0.00  0.00    +0.000 NA
ATOM     22  C   UNL     1      48.125   6.495  14.364  0.00  0.00    +0.000 A 
BRANCH  20  23
ATOM     23  O   UNL     1      50.919   6.632  16.585  0.00  0.00    +0.000 OA
BRANCH  23  24
ATOM     24  C   UNL     1      50.352   5.643  17.463  0.00  0.00    +0.000 C 
BRANCH  24  25
ATOM     25  C   UNL     1      51.088   4.303  17.297  0.00  0.00    +0.000 C 
BRANCH  25  26
ATOM     26  N   UNL     1      50.386   3.165  17.925  0.00  0.00    +0.000 NA
ATOM     27  C   UNL     1      48.929   3.302  17.792  0.00  0.00    +0.000 C 
ATOM     28  C   UNL     1      48.596   2.677  16.447  0.00  0.00    +0.000 C 
ATOM     29  O   UNL     1      49.689   1.809  16.125  0.00  0.00    +0.000 OA
ATOM     30  C   UNL     1      50.608   1.905  17.211  0.00  0.00    +0.000 C 
ENDBRANCH  25  26
ENDBRANCH  24  25
ENDBRANCH  23  24
ENDBRANCH  20  23
ENDBRANCH  16  17
ENDBRANCH   3  16
TORSDOF 7
ENDMDL
MODEL 3
REMARK VINA RESULT:    -6.850      3.317      7.836
REMARK INTER + INTRA:         -10.711
REMARK INTER:                  -9.824
REMARK INTRA:                  -0.887
REMARK UNBOUND:                -1.058
REMARK  Name = 
REMARK  7 active torsions:
REMARK  status: ('A' for Active; 'I' for Inactive)
REMARK    1  A    between atoms: C_2  and  C_19
REMARK    2  A    between atoms: N_3  and  C_4
REMARK    3  A    between atoms: C_4  and  C_5
REMARK    4  A    between atoms: C_8  and  O_9
REMARK    5  A    between atoms: O_9  and  C_10
REMARK    6  A    between atoms: C_10  and  C_11
REMARK    7  A    between atoms: C_11  and  N_12
REMARK                            x       y       z     vdW  Elec       q    Type
REMARK                         _______ _______ _______ _____ _____    ______ ____
ROOT
ATOM      1  O   UNL     1      45.737   7.881  11.924  0.00  0.00    +0.000 OA
ATOM      2  C   UNL     1      46.386   6.959  11.429  0.00  0.00    +0.000 C 
ATOM      3  N   UNL     1      47.754   6.939  11.445  0.00  0.00    +0.000 N 
ATOM      4  H   UNL     1      48.248   6.256  10.879  0.00  0.00    +0.000 HD
ENDROOT
BRANCH   2   5
ATOM      5  C   UNL     1      45.726   5.792  10.833  0.00  0.00    +0.000 A 
ATOM      6  C   UNL     1      45.886   5.519   9.481  0.00  0.00    +0.000 A 
ATOM      7  S   UNL     1      45.030   4.142   8.954  0.00  0.00    +0.000 S 
ATOM      8  C   UNL     1      44.449   3.836  10.523  0.00  0.00    +0.000 A 
ATOM      9  N   UNL     1      43.657   2.758  10.778  0.00  0.00    +0.000 NA
ATOM     10  C   UNL     1      43.325   2.622  12.019  0.00  0.00    +0.000 A 
ATOM     11  N   UNL     1      43.701   3.471  13.024  0.00  0.00    +0.000 N 
ATOM     12  C   UNL     1      44.438   4.611  12.804  0.00  0.00    +0.000 A 
ATOM     13  O   UNL     1      44.642   5.417  13.706  0.00  0.00    +0.000 OA
ATOM     14  C   UNL     1      44.878   4.788  11.430  0.00  0.00    +0.000 A 
ATOM     15  H   UNL     1      43.382   3.323  13.973  0.00  0.00    +0.000 HD
ENDBRANCH   2   5
BRANCH   3  16
ATOM     16  C   UNL     1      48.545   8.030  11.951  0.00  0.00    +0.000 C 
BRANCH  16  17
ATOM     17  C   UNL     1      49.143   7.707  13.288  0.00  0.00    +0.000 A 
ATOM     18  C   UNL     1      50.362   8.243  13.716  0.00  0.00    +0.000 A 
ATOM     19  C   UNL     1      50.887   7.863  14.953  0.00  0.00    +0.000 A 
ATOM     20  C   UNL     1      50.176   6.951  15.715  0.00  0.00    +0.000 A 
ATOM     21  N   UNL     1      48.972   6.461  15.351  0.00  0.00    +0.000 NA
ATOM     22  C   UNL     1      48.479   6.854  14.160  0.00  0.00    +0.000 A 
BRANCH  20  23
ATOM     23  O   UNL     1      50.733   6.542  16.913  0.00  0.00    +0.000 OA
BRANCH  23  24
ATOM     24  C   UNL     1      50.011   5.427  17.465  0.00  0.00    +0.000 C 
BRANCH  24  25
ATOM     25  C   UNL     1      50.867   4.151  17.386  0.00  0.00    +0.000 C 
BRANCH  25  26
ATOM     26  N   UNL     1      50.179   2.950  17.900  0.00  0.00    +0.000 NA
ATOM     27  C   UNL     1      48.724   3.055  17.724  0.00  0.00    +0.000 C 
ATOM     28  C   UNL     1      48.457   2.525  16.325  0.00  0.00    +0.000 C 
ATOM     29  O   UNL     1      49.587   1.715  15.979  0.00  0.00    +0.000 OA
ATOM     30  C   UNL     1      50.464   1.755  17.103  0.00  0.00    +0.000 C 
ENDBRANCH  25  26
ENDBRANCH  24  25
ENDBRANCH  23  24
ENDBRANCH  20  23
ENDBRANCH  16  17
ENDBRANCH   3  16
TORSDOF 7
ENDMDL
MODEL 4
REMARK VINA RESULT:    -6.631      1.719      2.210
REMARK INTER + INTRA:         -10.402
REMARK INTER:                  -9.858
REMARK INTRA:                  -0.544
REMARK UNBOUND:                -1.058
REMARK  Name = 
REMARK  7 active torsions:
REMARK  status: ('A' for Active; 'I' for Inactive)
REMARK    1  A    between atoms: C_2  and  C_19
REMARK    2  A    between atoms: N_3  and  C_4
REMARK    3  A    between atoms: C_4  and  C_5
REMARK    4  A    between atoms: C_8  and  O_9
REMARK    5  A    between atoms: O_9  and  C_10
REMARK    6  A    between atoms: C_10  and  C_11
REMARK    7  A    between atoms: C_11  and  N_12
REMARK                            x       y       z     vdW  Elec       q    Type
REMARK                         _______ _______ _______ _____ _____    ______ ____
ROOT
ATOM      1  O   UNL     1      50.160   6.710  15.048  0.00  0.00    +0.000 OA
ATOM      2  C   UNL     1      49.166   6.999  15.714  0.00  0.00    +0.000 C 
ATOM      3  N   UNL     1      47.932   7.169  15.148  0.00  0.00    +0.000 N 
ATOM      4  H   UNL     1      47.183   7.573  15.701  0.00  0.00    +0.000 HD
ENDROOT
BRANCH   2   5
ATOM      5  C   UNL     1      49.235   7.128  17.174  0.00  0.00    +0.000 A 
ATOM      6  C   UNL     1      49.254   8.387  17.760  0.00  0.00    +0.000 A 
ATOM      7  S   UNL     1      49.360   8.349  19.462  0.00  0.00    +0.000 S 
ATOM      8  C   UNL     1      49.340   6.649  19.479  0.00  0.00    +0.000 A 
ATOM      9  N   UNL     1      49.379   5.961  20.654  0.00  0.00    +0.000 NA
ATOM     10  C   UNL     1      49.313   4.677  20.522  0.00  0.00    +0.000 A 
ATOM     11  N   UNL     1      49.225   4.020  19.325  0.00  0.00    +0.000 N 
ATOM     12  C   UNL     1      49.256   4.666  18.113  0.00  0.00    +0.000 A 
ATOM     13  O   UNL     1      49.311   4.037  17.060  0.00  0.00    +0.000 OA
ATOM     14  C   UNL     1      49.283   6.117  18.203  0.00  0.00    +0.000 A 
ATOM     15  H   UNL     1      49.206   3.009  19.291  0.00  0.00    +0.000 HD
ENDBRANCH   2   5
BRANCH   3  16
ATOM     16  C   UNL     1      47.712   7.122  13.727  0.00  0.00    +0.000 C 
BRANCH  16  17
ATOM     17  C   UNL     1      46.710   6.069  13.357  0.00  0.00    +0.000 A 
ATOM     18  C   UNL     1      45.495   6.372  12.731  0.00  0.00    +0.000 A 
ATOM     19  C   UNL     1      44.585   5.350  12.458  0.00  0.00    +0.000 A 
ATOM     20  C   UNL     1      44.919   4.058  12.829  0.00  0.00    +0.000 A 
ATOM     21  N   UNL     1      46.105   3.730  13.384  0.00  0.00    +0.000 NA
ATOM     22  C   UNL     1      46.974   4.733  13.623  0.00  0.00    +0.000 A 
BRANCH  20  23
ATOM     23  O   UNL     1      43.986   3.063  12.601  0.00  0.00    +0.000 OA
BRANCH  23  24
ATOM     24  C   UNL     1      43.620   3.005  11.211  0.00  0.00    +0.000 C 
BRANCH  24  25
ATOM     25  C   UNL     1      44.877   2.857  10.338  0.00  0.00    +0.000 C 
BRANCH  25  26
ATOM     26  N   UNL     1      44.588   2.391   8.966  0.00  0.00    +0.000 NA
ATOM     27  C   UNL     1      44.687   3.493   8.000  0.00  0.00    +0.000 C 
ATOM     28  C   UNL     1      46.153   3.539   7.602  0.00  0.00    +0.000 C 
ATOM     29  O   UNL     1      46.695   2.249   7.913  0.00  0.00    +0.000 OA
ATOM     30  C   UNL     1      45.618   1.485   8.452  0.00  0.00    +0.000 C 
ENDBRANCH  25  26
ENDBRANCH  24  25
ENDBRANCH  23  24
ENDBRANCH  20  23
ENDBRANCH  16  17
ENDBRANCH   3  16
TORSDOF 7
ENDMDL
MODEL 5
REMARK VINA RESULT:    -6.513      2.281      3.000
REMARK INTER + INTRA:         -10.236
REMARK INTER:                  -9.376
REMARK INTRA:                  -0.860
REMARK UNBOUND:                -1.058
REMARK  Name = 
REMARK  7 active torsions:
REMARK  status: ('A' for Active; 'I' for Inactive)
REMARK    1  A    between atoms: C_2  and  C_19
REMARK    2  A    between atoms: N_3  and  C_4
REMARK    3  A    between atoms: C_4  and  C_5
REMARK    4  A    between atoms: C_8  and  O_9
REMARK    5  A    between atoms: O_9  and  C_10
REMARK    6  A    between atoms: C_10  and  C_11
REMARK    7  A    between atoms: C_11  and  N_12
REMARK                            x       y       z     vdW  Elec       q    Type
REMARK                         _______ _______ _______ _____ _____    ______ ____
ROOT
ATOM      1  O   UNL     1      50.195   6.295  15.777  0.00  0.00    +0.000 OA
ATOM      2  C   UNL     1      49.052   6.308  16.234  0.00  0.00    +0.000 C 
ATOM      3  N   UNL     1      47.950   6.459  15.437  0.00  0.00    +0.000 N 
ATOM      4  H   UNL     1      47.047   6.638  15.866  0.00  0.00    +0.000 HD
ENDROOT
BRANCH   2   5
ATOM      5  C   UNL     1      48.797   6.108  17.664  0.00  0.00    +0.000 A 
ATOM      6  C   UNL     1      49.090   4.887  18.257  0.00  0.00    +0.000 A 
ATOM      7  S   UNL     1      48.709   4.823  19.919  0.00  0.00    +0.000 S 
ATOM      8  C   UNL     1      48.179   6.439  19.914  0.00  0.00    +0.000 A 
ATOM      9  N   UNL     1      47.735   7.033  21.057  0.00  0.00    +0.000 NA
ATOM     10  C   UNL     1      47.406   8.275  20.919  0.00  0.00    +0.000 A 
ATOM     11  N   UNL     1      47.468   8.971  19.743  0.00  0.00    +0.000 N 
ATOM     12  C   UNL     1      47.838   8.397  18.551  0.00  0.00    +0.000 A 
ATOM     13  O   UNL     1      47.753   9.015  17.495  0.00  0.00    +0.000 OA
ATOM     14  C   UNL     1      48.264   7.011  18.657  0.00  0.00    +0.000 A 
ATOM     15  H   UNL     1      47.167   9.937  19.697  0.00  0.00    +0.000 HD
ENDBRANCH   2   5
BRANCH   3  16
ATOM     16  C   UNL     1      48.037   6.711  14.023  0.00  0.00    +0.000 C 
BRANCH  16  17
ATOM     17  C   UNL     1      46.996   5.947  13.259  0.00  0.00    +0.000 A 
ATOM     18  C   UNL     1      46.517   6.367  12.013  0.00  0.00    +0.000 A 
ATOM     19  C   UNL     1      45.512   5.636  11.378  0.00  0.00    +0.000 A 
ATOM     20  C   UNL     1      45.014   4.513  12.017  0.00  0.00    +0.000 A 
ATOM     21  N   UNL     1      45.494   4.056  13.193  0.00  0.00    +0.000 NA
ATOM     22  C   UNL     1      46.476   4.770  13.779  0.00  0.00    +0.000 A 
BRANCH  20  23
ATOM     23  O   UNL     1      43.982   3.829  11.402  0.00  0.00    +0.000 OA
BRANCH  23  24
ATOM     24  C   UNL     1      44.199   3.730   9.983  0.00  0.00    +0.000 C 
BRANCH  24  25
ATOM     25  C   UNL     1      45.182   2.588   9.677  0.00  0.00    +0.000 C 
BRANCH  25  26
ATOM     26  N   UNL     1      45.178   2.174   8.259  0.00  0.00    +0.000 NA
ATOM     27  C   UNL     1      45.227   3.340   7.366  0.00  0.00    +0.000 C 
ATOM     28  C   UNL     1      46.706   3.648   7.201  0.00  0.00    +0.000 C 
ATOM     29  O   UNL     1      47.408   2.445   7.537  0.00  0.00    +0.000 OA
ATOM     30  C   UNL     1      46.410   1.482   7.872  0.00  0.00    +0.000 C 
ENDBRANCH  25  26
ENDBRANCH  24  25
ENDBRANCH  23  24
ENDBRANCH  20  23
ENDBRANCH  16  17
ENDBRANCH   3  16
TORSDOF 7
ENDMDL
MODEL 6
REMARK VINA RESULT:    -6.346      3.693      8.456
REMARK INTER + INTRA:         -10.001
REMARK INTER:                  -9.121
REMARK INTRA:                  -0.880
REMARK UNBOUND:                -1.058
REMARK  Name = 
REMARK  7 active torsions:
REMARK  status: ('A' for Active; 'I' for Inactive)
REMARK    1  A    between atoms: C_2  and  C_19
REMARK    2  A    between atoms: N_3  and  C_4
REMARK    3  A    between atoms: C_4  and  C_5
REMARK    4  A    between atoms: C_8  and  O_9
REMARK    5  A    between atoms: O_9  and  C_10
REMARK    6  A    between atoms: C_10  and  C_11
REMARK    7  A    between atoms: C_11  and  N_12
REMARK                            x       y       z     vdW  Elec       q    Type
REMARK                         _______ _______ _______ _____ _____    ______ ____
ROOT
ATOM      1  O   UNL     1      48.004   6.685  12.025  0.00  0.00    +0.000 OA
ATOM      2  C   UNL     1      47.014   6.603  12.753  0.00  0.00    +0.000 C 
ATOM      3  N   UNL     1      47.051   6.948  14.076  0.00  0.00    +0.000 N 
ATOM      4  H   UNL     1      46.269   6.703  14.675  0.00  0.00    +0.000 HD
ENDROOT
BRANCH   2   5
ATOM      5  C   UNL     1      45.712   6.177  12.228  0.00  0.00    +0.000 A 
ATOM      6  C   UNL     1      44.876   7.100  11.613  0.00  0.00    +0.000 A 
ATOM      7  S   UNL     1      43.396   6.439  11.085  0.00  0.00    +0.000 S 
ATOM      8  C   UNL     1      43.837   4.886  11.620  0.00  0.00    +0.000 A 
ATOM      9  N   UNL     1      43.005   3.822  11.443  0.00  0.00    +0.000 NA
ATOM     10  C   UNL     1      43.484   2.696  11.856  0.00  0.00    +0.000 A 
ATOM     11  N   UNL     1      44.712   2.539  12.440  0.00  0.00    +0.000 N 
ATOM     12  C   UNL     1      45.554   3.591  12.706  0.00  0.00    +0.000 A 
ATOM     13  O   UNL     1      46.586   3.430  13.351  0.00  0.00    +0.000 OA
ATOM     14  C   UNL     1      45.084   4.877  12.219  0.00  0.00    +0.000 A 
ATOM     15  H   UNL     1      45.016   1.631  12.768  0.00  0.00    +0.000 HD
ENDBRANCH   2   5
BRANCH   3  16
ATOM     16  C   UNL     1      48.262   7.339  14.748  0.00  0.00    +0.000 C 
BRANCH  16  17
ATOM     17  C   UNL     1      48.772   6.252  15.647  0.00  0.00    +0.000 A 
ATOM     18  C   UNL     1      50.024   6.315  16.268  0.00  0.00    +0.000 A 
ATOM     19  C   UNL     1      50.460   5.246  17.054  0.00  0.00    +0.000 A 
ATOM     20  C   UNL     1      49.628   4.146  17.184  0.00  0.00    +0.000 A 
ATOM     21  N   UNL     1      48.394   4.083  16.641  0.00  0.00    +0.000 NA
ATOM     22  C   UNL     1      47.990   5.133  15.900  0.00  0.00    +0.000 A 
BRANCH  20  23
ATOM     23  O   UNL     1      50.094   3.073  17.921  0.00  0.00    +0.000 OA
BRANCH  23  24
ATOM     24  C   UNL     1      50.603   2.038  17.061  0.00  0.00    +0.000 C 
BRANCH  24  25
ATOM     25  C   UNL     1      51.580   1.138  17.837  0.00  0.00    +0.000 C 
BRANCH  25  26
ATOM     26  N   UNL     1      52.976   1.244  17.368  0.00  0.00    +0.000 NA
ATOM     27  C   UNL     1      53.602   2.486  17.841  0.00  0.00    +0.000 C 
ATOM     28  C   UNL     1      54.161   2.148  19.214  0.00  0.00    +0.000 C 
ATOM     29  O   UNL     1      54.295   0.722  19.253  0.00  0.00    +0.000 OA
ATOM     30  C   UNL     1      53.853   0.246  17.983  0.00  0.00    +0.000 C 
ENDBRANCH  25  26
ENDBRANCH  24  25
ENDBRANCH  23  24
ENDBRANCH  20  23
ENDBRANCH  16  17
ENDBRANCH   3  16
TORSDOF 7
ENDMDL
MODEL 7
REMARK VINA RESULT:    -6.301      3.425      7.666
REMARK INTER + INTRA:          -9.938
REMARK INTER:                  -8.660
REMARK INTRA:                  -1.278
REMARK UNBOUND:                -1.058
REMARK  Name = 
REMARK  7 active torsions:
REMARK  status: ('A' for Active; 'I' for Inactive)
REMARK    1  A    between atoms: C_2  and  C_19
REMARK    2  A    between atoms: N_3  and  C_4
REMARK    3  A    between atoms: C_4  and  C_5
REMARK    4  A    between atoms: C_8  and  O_9
REMARK    5  A    between atoms: O_9  and  C_10
REMARK    6  A    between atoms: C_10  and  C_11
REMARK    7  A    between atoms: C_11  and  N_12
REMARK                            x       y       z     vdW  Elec       q    Type
REMARK                         _______ _______ _______ _____ _____    ______ ____
ROOT
ATOM      1  O   UNL     1      47.707   7.196  11.635  0.00  0.00    +0.000 OA
ATOM      2  C   UNL     1      46.733   7.326  12.376  0.00  0.00    +0.000 C 
ATOM      3  N   UNL     1      46.747   8.163  13.459  0.00  0.00    +0.000 N 
ATOM      4  H   UNL     1      45.994   8.111  14.138  0.00  0.00    +0.000 HD
ENDROOT
BRANCH   2   5
ATOM      5  C   UNL     1      45.470   6.627  12.112  0.00  0.00    +0.000 A 
ATOM      6  C   UNL     1      44.382   7.328  11.607  0.00  0.00    +0.000 A 
ATOM      7  S   UNL     1      42.992   6.365  11.383  0.00  0.00    +0.000 S 
ATOM      8  C   UNL     1      43.808   4.970  11.912  0.00  0.00    +0.000 A 
ATOM      9  N   UNL     1      43.180   3.761  11.940  0.00  0.00    +0.000 NA
ATOM     10  C   UNL     1      43.929   2.780  12.321  0.00  0.00    +0.000 A 
ATOM     11  N   UNL     1      45.242   2.899  12.687  0.00  0.00    +0.000 N 
ATOM     12  C   UNL     1      45.897   4.106  12.745  0.00  0.00    +0.000 A 
ATOM     13  O   UNL     1      47.031   4.191  13.205  0.00  0.00    +0.000 OA
ATOM     14  C   UNL     1      45.113   5.239  12.282  0.00  0.00    +0.000 A 
ATOM     15  H   UNL     1      45.766   2.093  13.004  0.00  0.00    +0.000 HD
ENDBRANCH   2   5
BRANCH   3  16
ATOM     16  C   UNL     1      47.923   8.880  13.876  0.00  0.00    +0.000 C 
BRANCH  16  17
ATOM     17  C   UNL     1      48.606   8.202  15.026  0.00  0.00    +0.000 A 
ATOM     18  C   UNL     1      48.339   8.529  16.360  0.00  0.00    +0.000 A 
ATOM     19  C   UNL     1      49.046   7.893  17.382  0.00  0.00    +0.000 A 
ATOM     20  C   UNL     1      50.005   6.956  17.032  0.00  0.00    +0.000 A 
ATOM     21  N   UNL     1      50.244   6.583  15.758  0.00  0.00    +0.000 NA
ATOM     22  C   UNL     1      49.537   7.199  14.789  0.00  0.00    +0.000 A 
BRANCH  20  23
ATOM     23  O   UNL     1      50.735   6.374  18.051  0.00  0.00    +0.000 OA
BRANCH  23  24
ATOM     24  C   UNL     1      49.934   5.435  18.791  0.00  0.00    +0.000 C 
BRANCH  24  25
ATOM     25  C   UNL     1      50.028   4.040  18.152  0.00  0.00    +0.000 C 
BRANCH  25  26
ATOM     26  N   UNL     1      48.749   3.300  18.165  0.00  0.00    +0.000 NA
ATOM     27  C   UNL     1      47.610   4.207  17.972  0.00  0.00    +0.000 C 
ATOM     28  C   UNL     1      47.448   4.322  16.465  0.00  0.00    +0.000 C 
ATOM     29  O   UNL     1      48.093   3.173  15.903  0.00  0.00    +0.000 OA
ATOM     30  C   UNL     1      48.597   2.420  17.004  0.00  0.00    +0.000 C 
ENDBRANCH  25  26
ENDBRANCH  24  25
ENDBRANCH  23  24
ENDBRANCH  20  23
ENDBRANCH  16  17
ENDBRANCH   3  16
TORSDOF 7
ENDMDL
MODEL 8
REMARK VINA RESULT:    -5.843      3.036      9.228
REMARK INTER + INTRA:          -9.293
REMARK INTER:                  -8.314
REMARK INTRA:                  -0.979
REMARK UNBOUND:                -1.058
REMARK  Name = 
REMARK  7 active torsions:
REMARK  status: ('A' for Active; 'I' for Inactive)
REMARK    1  A    between atoms: C_2  and  C_19
REMARK    2  A    between atoms: N_3  and  C_4
REMARK    3  A    between atoms: C_4  and  C_5
REMARK    4  A    between atoms: C_8  and  O_9
REMARK    5  A    between atoms: O_9  and  C_10
REMARK    6  A    between atoms: C_10  and  C_11
REMARK    7  A    between atoms: C_11  and  N_12
REMARK                            x       y       z     vdW  Elec       q    Type
REMARK                         _______ _______ _______ _____ _____    ______ ____
ROOT
ATOM      1  O   UNL     1      43.725   2.637  10.011  0.00  0.00    +0.000 OA
ATOM      2  C   UNL     1      44.902   2.863   9.728  0.00  0.00    +0.000 C 
ATOM      3  N   UNL     1      45.635   3.824  10.370  0.00  0.00    +0.000 N 
ATOM      4  H   UNL     1      46.538   4.095   9.993  0.00  0.00    +0.000 HD
ENDROOT
BRANCH   2   5
ATOM      5  C   UNL     1      45.611   2.072   8.716  0.00  0.00    +0.000 A 
ATOM      6  C   UNL     1      45.540   0.685   8.744  0.00  0.00    +0.000 A 
ATOM      7  S   UNL     1      46.442  -0.071   7.510  0.00  0.00    +0.000 S 
ATOM      8  C   UNL     1      46.925   1.428   6.869  0.00  0.00    +0.000 A 
ATOM      9  N   UNL     1      47.711   1.494   5.759  0.00  0.00    +0.000 NA
ATOM     10  C   UNL     1      47.964   2.694   5.356  0.00  0.00    +0.000 A 
ATOM     11  N   UNL     1      47.516   3.833   5.968  0.00  0.00    +0.000 N 
ATOM     12  C   UNL     1      46.783   3.819   7.130  0.00  0.00    +0.000 A 
ATOM     13  O   UNL     1      46.513   4.859   7.723  0.00  0.00    +0.000 OA
ATOM     14  C   UNL     1      46.429   2.490   7.603  0.00  0.00    +0.000 A 
ATOM     15  H   UNL     1      47.776   4.746   5.616  0.00  0.00    +0.000 HD
ENDBRANCH   2   5
BRANCH   3  16
ATOM     16  C   UNL     1      45.070   4.712  11.351  0.00  0.00    +0.000 C 
BRANCH  16  17
ATOM     17  C   UNL     1      46.131   5.337  12.207  0.00  0.00    +0.000 A 
ATOM     18  C   UNL     1      46.799   6.511  11.841  0.00  0.00    +0.000 A 
ATOM     19  C   UNL     1      47.811   7.014  12.661  0.00  0.00    +0.000 A 
ATOM     20  C   UNL     1      48.125   6.318  13.817  0.00  0.00    +0.000 A 
ATOM     21  N   UNL     1      47.461   5.215  14.221  0.00  0.00    +0.000 NA
ATOM     22  C   UNL     1      46.477   4.758  13.421  0.00  0.00    +0.000 A 
BRANCH  20  23
ATOM     23  O   UNL     1      49.166   6.797  14.591  0.00  0.00    +0.000 OA
BRANCH  23  24
ATOM     24  C   UNL     1      48.710   7.150  15.909  0.00  0.00    +0.000 C 
BRANCH  24  25
ATOM     25  C   UNL     1      49.653   6.560  16.971  0.00  0.00    +0.000 C 
BRANCH  25  26
ATOM     26  N   UNL     1      49.986   5.140  16.738  0.00  0.00    +0.000 NA
ATOM     27  C   UNL     1      51.263   4.783  17.371  0.00  0.00    +0.000 C 
ATOM     28  C   UNL     1      50.903   4.395  18.796  0.00  0.00    +0.000 C 
ATOM     29  O   UNL     1      49.510   4.059  18.781  0.00  0.00    +0.000 OA
ATOM     30  C   UNL     1      49.074   4.229  17.433  0.00  0.00    +0.000 C 
ENDBRANCH  25  26
ENDBRANCH  24  25
ENDBRANCH  23  24
ENDBRANCH  20  23
ENDBRANCH  16  17
ENDBRANCH   3  16
TORSDOF 7
ENDMDL
MODEL 9
REMARK VINA RESULT:    -5.737      3.335      9.063
REMARK INTER + INTRA:          -9.143
REMARK INTER:                  -8.166
REMARK INTRA:                  -0.976
REMARK UNBOUND:                -1.058
REMARK  Name = 
REMARK  7 active torsions:
REMARK  status: ('A' for Active; 'I' for Inactive)
REMARK    1  A    between atoms: C_2  and  C_19
REMARK    2  A    between atoms: N_3  and  C_4
REMARK    3  A    between atoms: C_4  and  C_5
REMARK    4  A    between atoms: C_8  and  O_9
REMARK    5  A    between atoms: O_9  and  C_10
REMARK    6  A    between atoms: C_10  and  C_11
REMARK    7  A    between atoms: C_11  and  N_12
REMARK                            x       y       z     vdW  Elec       q    Type
REMARK                         _______ _______ _______ _____ _____    ______ ____
ROOT
ATOM      1  O   UNL     1      48.562   5.907  12.745  0.00  0.00    +0.000 OA
ATOM      2  C   UNL     1      47.529   6.354  13.244  0.00  0.00    +0.000 C 
ATOM      3  N   UNL     1      47.539   7.124  14.375  0.00  0.00    +0.000 N 
ATOM      4  H   UNL     1      46.663   7.325  14.848  0.00  0.00    +0.000 HD
ENDROOT
BRANCH   2   5
ATOM      5  C   UNL     1      46.220   6.132  12.621  0.00  0.00    +0.000 A 
ATOM      6  C   UNL     1      45.535   7.195  12.046  0.00  0.00    +0.000 A 
ATOM      7  S   UNL     1      44.021   6.760  11.392  0.00  0.00    +0.000 S 
ATOM      8  C   UNL     1      44.246   5.128  11.815  0.00  0.00    +0.000 A 
ATOM      9  N   UNL     1      43.307   4.191  11.509  0.00  0.00    +0.000 NA
ATOM     10  C   UNL     1      43.626   2.986  11.849  0.00  0.00    +0.000 A 
ATOM     11  N   UNL     1      44.790   2.636  12.478  0.00  0.00    +0.000 N 
ATOM     12  C   UNL     1      45.733   3.555  12.872  0.00  0.00    +0.000 A 
ATOM     13  O   UNL     1      46.699   3.221  13.551  0.00  0.00    +0.000 OA
ATOM     14  C   UNL     1      45.445   4.923  12.472  0.00  0.00    +0.000 A 
ATOM     15  H   UNL     1      44.966   1.675  12.743  0.00  0.00    +0.000 HD
ENDBRANCH   2   5
BRANCH   3  16
ATOM     16  C   UNL     1      48.737   7.393  15.127  0.00  0.00    +0.000 C 
BRANCH  16  17
ATOM     17  C   UNL     1      48.656   6.832  16.516  0.00  0.00    +0.000 A 
ATOM     18  C   UNL     1      48.726   7.638  17.658  0.00  0.00    +0.000 A 
ATOM     19  C   UNL     1      48.694   7.047  18.923  0.00  0.00    +0.000 A 
ATOM     20  C   UNL     1      48.600   5.668  19.000  0.00  0.00    +0.000 A 
ATOM     21  N   UNL     1      48.477   4.872  17.917  0.00  0.00    +0.000 NA
ATOM     22  C   UNL     1      48.494   5.467  16.707  0.00  0.00    +0.000 A 
BRANCH  20  23
ATOM     23  O   UNL     1      48.624   5.093  20.257  0.00  0.00    +0.000 OA
BRANCH  23  24
ATOM     24  C   UNL     1      49.628   5.703  21.087  0.00  0.00    +0.000 C 
BRANCH  24  25
ATOM     25  C   UNL     1      50.883   4.816  21.139  0.00  0.00    +0.000 C 
BRANCH  25  26
ATOM     26  N   UNL     1      52.003   5.333  20.325  0.00  0.00    +0.000 NA
ATOM     27  C   UNL     1      53.299   4.954  20.904  0.00  0.00    +0.000 C 
ATOM     28  C   UNL     1      53.603   3.582  20.327  0.00  0.00    +0.000 C 
ATOM     29  O   UNL     1      52.812   3.461  19.139  0.00  0.00    +0.000 OA
ATOM     30  C   UNL     1      52.091   4.686  19.014  0.00  0.00    +0.000 C 
ENDBRANCH  25  26
ENDBRANCH  24  25
ENDBRANCH  23  24
ENDBRANCH  20  23
ENDBRANCH  16  17
ENDBRANCH   3  16
TORSDOF 7
ENDMDL
