MODEL 1
REMARK VINA RESULT:    -8.617      0.000      0.000
REMARK INTER + INTRA:         -14.094
REMARK INTER:                 -12.647
REMARK INTRA:                  -1.447
REMARK UNBOUND:                -1.447
REMARK  Name = 
REMARK  9 active torsions:
REMARK  status: ('A' for Active; 'I' for Inactive)
REMARK    1  A    between atoms: C_1  and  C_2
REMARK    2  A    between atoms: C_2  and  C_3
REMARK    3  A    between atoms: C_3  and  N_4
REMARK    4  A    between atoms: C_3  and  C_17
REMARK    5  A    between atoms: C_5  and  C_7
REMARK    6  A    between atoms: C_20  and  C_21
REMARK    7  A    between atoms: C_21  and  N_22
REMARK    8  A    between atoms: N_22  and  C_23
REMARK    9  A    between atoms: C_23  and  C_24
REMARK                            x       y       z     vdW  Elec       q    Type
REMARK                         _______ _______ _______ _____ _____    ______ ____
ROOT
ATOM      1  C   UNL     1      48.190   6.637  13.199  0.00  0.00    +0.000 C 
ENDROOT
BRANCH   1   2
ATOM      2  C   UNL     1      46.967   5.903  12.659  0.00  0.00    +0.000 A 
ATOM      3  C   UNL     1      46.400   6.283  11.435  0.00  0.00    +0.000 A 
ATOM      4  C   UNL     1      45.288   5.606  10.919  0.00  0.00    +0.000 A 
ATOM      5  C   UNL     1      44.724   4.519  11.604  0.00  0.00    +0.000 A 
ATOM      6  C   UNL     1      45.292   4.133  12.824  0.00  0.00    +0.000 A 
ATOM      7  C   UNL     1      46.396   4.816  13.345  0.00  0.00    +0.000 A 
BRANCH   5   8
ATOM      8  C   UNL     1      43.521   3.788  11.050  0.00  0.00    +0.000 C 
BRANCH   8   9
ATOM      9  N   UNL     1      43.727   3.407   9.655  0.00  0.00    +0.000 NA
ATOM     10  H   UNL     1      44.244   4.151   9.186  0.00  0.00    +0.000 HD
BRANCH   9  11
ATOM     11  C   UNL     1      44.512   2.169   9.553  0.00  0.00    +0.000 C 
BRANCH  11  12
ATOM     12  C   UNL     1      45.568   2.253   8.465  0.00  0.00    +0.000 A 
ATOM     13  C   UNL     1      45.741   3.441   7.753  0.00  0.00    +0.000 A 
ATOM     14  C   UNL     1      46.707   3.494   6.754  0.00  0.00    +0.000 A 
ATOM     15  C   UNL     1      47.470   2.365   6.486  0.00  0.00    +0.000 A 
ATOM     16  C   UNL     1      47.238   1.226   7.238  0.00  0.00    +0.000 A 
ATOM     17  N   UNL     1      46.310   1.144   8.219  0.00  0.00    +0.000 NA
ENDBRANCH  11  12
ENDBRANCH   9  11
ENDBRANCH   8   9
ENDBRANCH   5   8
ENDBRANCH   1   2
BRANCH   1  18
ATOM     18  N   UNL     1      48.088   6.710  14.647  0.00  0.00    +0.000 N 
ATOM     19  C   UNL     1      49.151   6.803  15.505  0.00  0.00    +0.000 C 
ATOM     20  O   UNL     1      50.313   6.879  15.120  0.00  0.00    +0.000 OA
ATOM     21  H   UNL     1      47.164   6.549  15.029  0.00  0.00    +0.000 HD
BRANCH  19  22
ATOM     22  C   UNL     1      48.799   6.853  16.931  0.00  0.00    +0.000 A 
ATOM     23  C   UNL     1      48.427   8.052  17.527  0.00  0.00    +0.000 A 
ATOM     24  S   UNL     1      48.035   7.895  19.183  0.00  0.00    +0.000 S 
ATOM     25  C   UNL     1      48.407   6.234  19.175  0.00  0.00    +0.000 A 
ATOM     26  N   UNL     1      48.324   5.485  20.309  0.00  0.00    +0.000 NA
ATOM     27  C   UNL     1      48.676   4.252  20.165  0.00  0.00    +0.000 A 
ATOM     28  N   UNL     1      49.093   3.694  18.983  0.00  0.00    +0.000 N 
ATOM     29  C   UNL     1      49.115   4.387  17.806  0.00  0.00    +0.000 A 
ATOM     30  O   UNL     1      49.351   3.816  16.748  0.00  0.00    +0.000 OA
ATOM     31  C   UNL     1      48.784   5.797  17.918  0.00  0.00    +0.000 A 
ATOM     32  H   UNL     1      49.317   2.712  18.919  0.00  0.00    +0.000 HD
ENDBRANCH  19  22
ENDBRANCH   1  18
BRANCH   1  34
ATOM     33  C   UNL     1      49.568   8.216  11.726  0.00  0.00    +0.000 C 
ATOM     34  C   UNL     1      48.345   8.055  12.619  0.00  0.00    +0.000 C 
ENDBRANCH   1  34
TORSDOF 8
ENDMDL
MODEL 2
REMARK VINA RESULT:    -8.226      1.600      2.632
REMARK INTER + INTRA:         -13.521
REMARK INTER:                 -11.917
REMARK INTRA:                  -1.604
REMARK UNBOUND:                -1.447
REMARK  Name = 
REMARK  9 active torsions:
REMARK  status: ('A' for Active; 'I' for Inactive)
REMARK    1  A    between atoms: C_1  and  C_2
REMARK    2  A    between atoms: C_2  and  C_3
REMARK    3  A    between atoms: C_3  and  N_4
REMARK    4  A    between atoms: C_3  and  C_17
REMARK    5  A    between atoms: C_5  and  C_7
REMARK    6  A    between atoms: C_20  and  C_21
REMARK    7  A    between atoms: C_21  and  N_22
REMARK    8  A    between atoms: N_22  and  C_23
REMARK    9  A    between atoms: C_23  and  C_24
REMARK                            x       y       z     vdW  Elec       q    Type
REMARK                         _______ _______ _______ _____ _____    ______ ____
ROOT
ATOM      1  C   UNL     1      48.353   6.720  13.255  0.00  0.00    +0.000 C 
ENDROOT
BRANCH   1   2
ATOM      2  C   UNL     1      47.089   6.082  12.689  0.00  0.00    +0.000 A 
ATOM      3  C   UNL     1      46.602   6.473  11.435  0.00  0.00    +0.000 A 
ATOM      4  C   UNL     1      45.453   5.882  10.896  0.00  0.00    +0.000 A 
ATOM      5  C   UNL     1      44.770   4.871  11.587  0.00  0.00    +0.000 A 
ATOM      6  C   UNL     1      45.258   4.472  12.837  0.00  0.00    +0.000 A 
ATOM      7  C   UNL     1      46.400   5.070  13.381  0.00  0.00    +0.000 A 
BRANCH   5   8
ATOM      8  C   UNL     1      43.527   4.233  11.007  0.00  0.00    +0.000 C 
BRANCH   8   9
ATOM      9  N   UNL     1      43.778   3.695   9.673  0.00  0.00    +0.000 NA
ATOM     10  H   UNL     1      44.263   4.403   9.121  0.00  0.00    +0.000 HD
BRANCH   9  11
ATOM     11  C   UNL     1      44.630   2.499   9.734  0.00  0.00    +0.000 C 
BRANCH  11  12
ATOM     12  C   UNL     1      45.572   2.410   8.547  0.00  0.00    +0.000 A 
ATOM     13  C   UNL     1      45.801   3.536   7.753  0.00  0.00    +0.000 A 
ATOM     14  C   UNL     1      46.660   3.432   6.665  0.00  0.00    +0.000 A 
ATOM     15  C   UNL     1      47.264   2.212   6.390  0.00  0.00    +0.000 A 
ATOM     16  C   UNL     1      46.987   1.143   7.226  0.00  0.00    +0.000 A 
ATOM     17  N   UNL     1      46.160   1.213   8.295  0.00  0.00    +0.000 NA
ENDBRANCH  11  12
ENDBRANCH   9  11
ENDBRANCH   8   9
ENDBRANCH   5   8
ENDBRANCH   1   2
BRANCH   1  18
ATOM     18  N   UNL     1      48.118   7.066  14.648  0.00  0.00    +0.000 N 
ATOM     19  C   UNL     1      48.987   6.819  15.675  0.00  0.00    +0.000 C 
ATOM     20  O   UNL     1      50.091   6.310  15.507  0.00  0.00    +0.000 OA
ATOM     21  H   UNL     1      47.184   7.393  14.864  0.00  0.00    +0.000 HD
BRANCH  19  22
ATOM     22  C   UNL     1      48.524   7.251  17.002  0.00  0.00    +0.000 A 
ATOM     23  C   UNL     1      48.336   6.326  18.021  0.00  0.00    +0.000 A 
ATOM     24  S   UNL     1      47.818   7.031  19.490  0.00  0.00    +0.000 S 
ATOM     25  C   UNL     1      47.767   8.584  18.797  0.00  0.00    +0.000 A 
ATOM     26  N   UNL     1      47.356   9.666  19.513  0.00  0.00    +0.000 NA
ATOM     27  C   UNL     1      47.328  10.772  18.848  0.00  0.00    +0.000 A 
ATOM     28  N   UNL     1      47.686  10.897  17.530  0.00  0.00    +0.000 N 
ATOM     29  C   UNL     1      48.180   9.856  16.796  0.00  0.00    +0.000 A 
ATOM     30  O   UNL     1      48.628  10.041  15.671  0.00  0.00    +0.000 OA
ATOM     31  C   UNL     1      48.180   8.572  17.476  0.00  0.00    +0.000 A 
ATOM     32  H   UNL     1      47.684  11.796  17.071  0.00  0.00    +0.000 HD
ENDBRANCH  19  22
ENDBRANCH   1  18
BRANCH   1  34
ATOM     33  C   UNL     1      50.185   7.857  11.872  0.00  0.00    +0.000 C 
ATOM     34  C   UNL     1      48.793   7.975  12.478  0.00  0.00    +0.000 C 
ENDBRANCH   1  34
TORSDOF 8
ENDMDL
MODEL 3
REMARK VINA RESULT:    -7.218      2.972      8.471
REMARK INTER + INTRA:         -12.041
REMARK INTER:                 -10.230
REMARK INTRA:                  -1.811
REMARK UNBOUND:                -1.447
REMARK  Name = 
REMARK  9 active torsions:
REMARK  status: ('A' for Active; 'I' for Inactive)
REMARK    1  A    between atoms: C_1  and  C_2
REMARK    2  A    between atoms: C_2  and  C_3
REMARK    3  A    between atoms: C_3  and  N_4
REMARK    4  A    between atoms: C_3  and  C_17
REMARK    5  A    between atoms: C_5  and  C_7
REMARK    6  A    between atoms: C_20  and  C_21
REMARK    7  A    between atoms: C_21  and  N_22
REMARK    8  A    between atoms: N_22  and  C_23
REMARK    9  A    between atoms: C_23  and  C_24
REMARK                            x       y       z     vdW  Elec       q    Type
REMARK                         _______ _______ _______ _____ _____    ______ ____
ROOT
ATOM      1  C   UNL     1      47.762   7.772  12.292  0.00  0.00    +0.000 C 
ENDROOT
BRANCH   1   2
ATOM      2  C   UNL     1      48.120   7.810  13.774  0.00  0.00    +0.000 A 
ATOM      3  C   UNL     1      47.890   8.970  14.526  0.00  0.00    +0.000 A 
ATOM      4  C   UNL     1      48.197   9.012  15.892  0.00  0.00    +0.000 A 
ATOM      5  C   UNL     1      48.726   7.890  16.547  0.00  0.00    +0.000 A 
ATOM      6  C   UNL     1      48.951   6.727  15.800  0.00  0.00    +0.000 A 
ATOM      7  C   UNL     1      48.654   6.688  14.433  0.00  0.00    +0.000 A 
BRANCH   5   8
ATOM      8  C   UNL     1      49.061   7.933  18.021  0.00  0.00    +0.000 C 
BRANCH   8   9
ATOM      9  N   UNL     1      47.938   7.476  18.835  0.00  0.00    +0.000 NA
ATOM     10  H   UNL     1      47.152   7.265  18.220  0.00  0.00    +0.000 HD
BRANCH   9  11
ATOM     11  C   UNL     1      48.281   6.254  19.575  0.00  0.00    +0.000 C 
BRANCH  11  12
ATOM     12  C   UNL     1      48.243   5.022  18.689  0.00  0.00    +0.000 A 
ATOM     13  C   UNL     1      49.390   4.244  18.530  0.00  0.00    +0.000 A 
ATOM     14  C   UNL     1      49.338   3.125  17.706  0.00  0.00    +0.000 A 
ATOM     15  C   UNL     1      48.150   2.813  17.058  0.00  0.00    +0.000 A 
ATOM     16  C   UNL     1      47.055   3.635  17.269  0.00  0.00    +0.000 A 
ATOM     17  N   UNL     1      47.073   4.726  18.068  0.00  0.00    +0.000 NA
ENDBRANCH  11  12
ENDBRANCH   9  11
ENDBRANCH   8   9
ENDBRANCH   5   8
ENDBRANCH   1   2
BRANCH   1  18
ATOM     18  N   UNL     1      46.923   6.611  12.045  0.00  0.00    +0.000 N 
ATOM     19  C   UNL     1      45.557   6.632  11.966  0.00  0.00    +0.000 C 
ATOM     20  O   UNL     1      44.899   7.664  12.056  0.00  0.00    +0.000 OA
ATOM     21  H   UNL     1      47.398   5.717  12.065  0.00  0.00    +0.000 HD
BRANCH  19  22
ATOM     22  C   UNL     1      44.926   5.327  11.718  0.00  0.00    +0.000 A 
ATOM     23  C   UNL     1      44.193   4.695  12.714  0.00  0.00    +0.000 A 
ATOM     24  S   UNL     1      43.523   3.202  12.220  0.00  0.00    +0.000 S 
ATOM     25  C   UNL     1      44.240   3.321  10.681  0.00  0.00    +0.000 A 
ATOM     26  N   UNL     1      44.097   2.332   9.756  0.00  0.00    +0.000 NA
ATOM     27  C   UNL     1      44.729   2.537   8.650  0.00  0.00    +0.000 A 
ATOM     28  N   UNL     1      45.484   3.651   8.378  0.00  0.00    +0.000 N 
ATOM     29  C   UNL     1      45.588   4.701   9.245  0.00  0.00    +0.000 A 
ATOM     30  O   UNL     1      46.147   5.738   8.907  0.00  0.00    +0.000 OA
ATOM     31  C   UNL     1      44.945   4.502  10.532  0.00  0.00    +0.000 A 
ATOM     32  H   UNL     1      45.923   3.778   7.479  0.00  0.00    +0.000 HD
ENDBRANCH  19  22
ENDBRANCH   1  18
BRANCH   1  34
ATOM     33  C   UNL     1      49.977   8.863  11.614  0.00  0.00    +0.000 C 
ATOM     34  C   UNL     1      48.999   7.721  11.376  0.00  0.00    +0.000 C 
ENDBRANCH   1  34
TORSDOF 8
ENDMDL
MODEL 4
REMARK VINA RESULT:    -7.136      1.731      2.620
REMARK INTER + INTRA:         -11.920
REMARK INTER:                 -10.594
REMARK INTRA:                  -1.326
REMARK UNBOUND:                -1.447
REMARK  Name = 
REMARK  9 active torsions:
REMARK  status: ('A' for Active; 'I' for Inactive)
REMARK    1  A    between atoms: C_1  and  C_2
REMARK    2  A    between atoms: C_2  and  C_3
REMARK    3  A    between atoms: C_3  and  N_4
REMARK    4  A    between atoms: C_3  and  C_17
REMARK    5  A    between atoms: C_5  and  C_7
REMARK    6  A    between atoms: C_20  and  C_21
REMARK    7  A    between atoms: C_21  and  N_22
REMARK    8  A    between atoms: N_22  and  C_23
REMARK    9  A    between atoms: C_23  and  C_24
REMARK                            x       y       z     vdW  Elec       q    Type
REMARK                         _______ _______ _______ _____ _____    ______ ____
ROOT
ATOM      1  C   UNL     1      48.969   7.151  14.338  0.00  0.00    +0.000 C 
ENDROOT
BRANCH   1   2
ATOM      2  C   UNL     1      47.842   6.563  13.495  0.00  0.00    +0.000 A 
ATOM      3  C   UNL     1      47.127   5.448  13.952  0.00  0.00    +0.000 A 
ATOM      4  C   UNL     1      46.078   4.909  13.197  0.00  0.00    +0.000 A 
ATOM      5  C   UNL     1      45.703   5.482  11.972  0.00  0.00    +0.000 A 
ATOM      6  C   UNL     1      46.411   6.600  11.516  0.00  0.00    +0.000 A 
ATOM      7  C   UNL     1      47.466   7.133  12.265  0.00  0.00    +0.000 A 
BRANCH   5   8
ATOM      8  C   UNL     1      44.572   4.900  11.153  0.00  0.00    +0.000 C 
BRANCH   8   9
ATOM      9  N   UNL     1      44.891   4.908   9.727  0.00  0.00    +0.000 NA
ATOM     10  H   UNL     1      45.904   4.943   9.619  0.00  0.00    +0.000 HD
BRANCH   9  11
ATOM     11  C   UNL     1      44.400   3.691   9.067  0.00  0.00    +0.000 C 
BRANCH  11  12
ATOM     12  C   UNL     1      45.480   3.019   8.237  0.00  0.00    +0.000 A 
ATOM     13  C   UNL     1      45.824   1.690   8.487  0.00  0.00    +0.000 A 
ATOM     14  C   UNL     1      46.822   1.095   7.723  0.00  0.00    +0.000 A 
ATOM     15  C   UNL     1      47.455   1.839   6.736  0.00  0.00    +0.000 A 
ATOM     16  C   UNL     1      47.055   3.151   6.548  0.00  0.00    +0.000 A 
ATOM     17  N   UNL     1      46.085   3.756   7.271  0.00  0.00    +0.000 NA
ENDBRANCH  11  12
ENDBRANCH   9  11
ENDBRANCH   8   9
ENDBRANCH   5   8
ENDBRANCH   1   2
BRANCH   1  18
ATOM     18  N   UNL     1      48.712   6.848  15.736  0.00  0.00    +0.000 N 
ATOM     19  C   UNL     1      49.621   6.296  16.599  0.00  0.00    +0.000 C 
ATOM     20  O   UNL     1      50.776   6.041  16.276  0.00  0.00    +0.000 OA
ATOM     21  H   UNL     1      47.749   6.940  16.033  0.00  0.00    +0.000 HD
BRANCH  19  22
ATOM     22  C   UNL     1      49.127   6.071  17.965  0.00  0.00    +0.000 A 
ATOM     23  C   UNL     1      49.211   4.814  18.550  0.00  0.00    +0.000 A 
ATOM     24  S   UNL     1      48.604   4.767  20.148  0.00  0.00    +0.000 S 
ATOM     25  C   UNL     1      48.153   6.407  20.089  0.00  0.00    +0.000 A 
ATOM     26  N   UNL     1      47.527   7.006  21.139  0.00  0.00    +0.000 NA
ATOM     27  C   UNL     1      47.206   8.240  20.939  0.00  0.00    +0.000 A 
ATOM     28  N   UNL     1      47.465   8.936  19.786  0.00  0.00    +0.000 N 
ATOM     29  C   UNL     1      48.160   8.398  18.740  0.00  0.00    +0.000 A 
ATOM     30  O   UNL     1      48.501   9.095  17.791  0.00  0.00    +0.000 OA
ATOM     31  C   UNL     1      48.498   6.993  18.884  0.00  0.00    +0.000 A 
ATOM     32  H   UNL     1      47.228   9.913  19.700  0.00  0.00    +0.000 HD
ENDBRANCH  19  22
ENDBRANCH   1  18
BRANCH   1  34
ATOM     33  C   UNL     1      50.553   9.110  13.876  0.00  0.00    +0.000 C 
ATOM     34  C   UNL     1      49.122   8.673  14.158  0.00  0.00    +0.000 C 
ENDBRANCH   1  34
TORSDOF 8
ENDMDL
MODEL 5
REMARK VINA RESULT:    -7.056      3.244      7.989
REMARK INTER + INTRA:         -11.803
REMARK INTER:                  -9.947
REMARK INTRA:                  -1.856
REMARK UNBOUND:                -1.447
REMARK  Name = 
REMARK  9 active torsions:
REMARK  status: ('A' for Active; 'I' for Inactive)
REMARK    1  A    between atoms: C_1  and  C_2
REMARK    2  A    between atoms: C_2  and  C_3
REMARK    3  A    between atoms: C_3  and  N_4
REMARK    4  A    between atoms: C_3  and  C_17
REMARK    5  A    between atoms: C_5  and  C_7
REMARK    6  A    between atoms: C_20  and  C_21
REMARK    7  A    between atoms: C_21  and  N_22
REMARK    8  A    between atoms: N_22  and  C_23
REMARK    9  A    between atoms: C_23  and  C_24
REMARK                            x       y       z     vdW  Elec       q    Type
REMARK                         _______ _______ _______ _____ _____    ______ ____
ROOT
ATOM      1  C   UNL     1      48.433   8.091  12.047  0.00  0.00    +0.000 C 
ENDROOT
BRANCH   1   2
ATOM      2  C   UNL     1      48.471   7.950  13.565  0.00  0.00    +0.000 A 
ATOM      3  C   UNL     1      48.958   6.775  14.152  0.00  0.00    +0.000 A 
ATOM      4  C   UNL     1      49.016   6.640  15.545  0.00  0.00    +0.000 A 
ATOM      5  C   UNL     1      48.606   7.683  16.388  0.00  0.00    +0.000 A 
ATOM      6  C   UNL     1      48.126   8.861  15.805  0.00  0.00    +0.000 A 
ATOM      7  C   UNL     1      48.058   8.993  14.413  0.00  0.00    +0.000 A 
BRANCH   5   8
ATOM      8  C   UNL     1      48.665   7.538  17.893  0.00  0.00    +0.000 C 
BRANCH   8   9
ATOM      9  N   UNL     1      47.383   7.093  18.434  0.00  0.00    +0.000 NA
ATOM     10  H   UNL     1      46.754   6.888  17.658  0.00  0.00    +0.000 HD
BRANCH   9  11
ATOM     11  C   UNL     1      47.540   5.869  19.232  0.00  0.00    +0.000 C 
BRANCH  11  12
ATOM     12  C   UNL     1      48.022   4.700  18.392  0.00  0.00    +0.000 A 
ATOM     13  C   UNL     1      47.174   4.128  17.443  0.00  0.00    +0.000 A 
ATOM     14  C   UNL     1      47.630   3.051  16.691  0.00  0.00    +0.000 A 
ATOM     15  C   UNL     1      48.915   2.569  16.905  0.00  0.00    +0.000 A 
ATOM     16  C   UNL     1      49.696   3.192  17.864  0.00  0.00    +0.000 A 
ATOM     17  N   UNL     1      49.282   4.244  18.609  0.00  0.00    +0.000 NA
ENDBRANCH  11  12
ENDBRANCH   9  11
ENDBRANCH   8   9
ENDBRANCH   5   8
ENDBRANCH   1   2
BRANCH   1  18
ATOM     18  N   UNL     1      47.620   7.017  11.499  0.00  0.00    +0.000 N 
ATOM     19  C   UNL     1      46.253   7.020  11.437  0.00  0.00    +0.000 C 
ATOM     20  O   UNL     1      45.571   7.972  11.806  0.00  0.00    +0.000 OA
ATOM     21  H   UNL     1      48.118   6.164  11.275  0.00  0.00    +0.000 HD
BRANCH  19  22
ATOM     22  C   UNL     1      45.652   5.814  10.849  0.00  0.00    +0.000 A 
ATOM     23  C   UNL     1      45.734   5.577   9.484  0.00  0.00    +0.000 A 
ATOM     24  S   UNL     1      44.995   4.112   9.003  0.00  0.00    +0.000 S 
ATOM     25  C   UNL     1      44.487   3.778  10.593  0.00  0.00    +0.000 A 
ATOM     26  N   UNL     1      43.750   2.670  10.882  0.00  0.00    +0.000 NA
ATOM     27  C   UNL     1      43.400   2.566  12.120  0.00  0.00    +0.000 A 
ATOM     28  N   UNL     1      43.731   3.466  13.101  0.00  0.00    +0.000 N 
ATOM     29  C   UNL     1      44.534   4.547  12.872  0.00  0.00    +0.000 A 
ATOM     30  O   UNL     1      44.928   5.242  13.801  0.00  0.00    +0.000 OA
ATOM     31  C   UNL     1      44.912   4.747  11.484  0.00  0.00    +0.000 A 
ATOM     32  H   UNL     1      43.465   3.312  14.062  0.00  0.00    +0.000 HD
ENDBRANCH  19  22
ENDBRANCH   1  18
BRANCH   1  34
ATOM     33  C   UNL     1      50.680   9.281  11.737  0.00  0.00    +0.000 C 
ATOM     34  C   UNL     1      49.832   8.060  11.405  0.00  0.00    +0.000 C 
ENDBRANCH   1  34
TORSDOF 8
ENDMDL
MODEL 6
REMARK VINA RESULT:    -6.926      2.404      3.424
REMARK INTER + INTRA:         -11.613
REMARK INTER:                 -10.201
REMARK INTRA:                  -1.412
REMARK UNBOUND:                -1.447
REMARK  Name = 
REMARK  9 active torsions:
REMARK  status: ('A' for Active; 'I' for Inactive)
REMARK    1  A    between atoms: C_1  and  C_2
REMARK    2  A    between atoms: C_2  and  C_3
REMARK    3  A    between atoms: C_3  and  N_4
REMARK    4  A    between atoms: C_3  and  C_17
REMARK    5  A    between atoms: C_5  and  C_7
REMARK    6  A    between atoms: C_20  and  C_21
REMARK    7  A    between atoms: C_21  and  N_22
REMARK    8  A    between atoms: N_22  and  C_23
REMARK    9  A    between atoms: C_23  and  C_24
REMARK                            x       y       z     vdW  Elec       q    Type
REMARK                         _______ _______ _______ _____ _____    ______ ____
ROOT
ATOM      1  C   UNL     1      47.351   4.714  15.943  0.00  0.00    +0.000 C 
ENDROOT
BRANCH   1   2
ATOM      2  C   UNL     1      46.887   4.911  14.503  0.00  0.00    +0.000 A 
ATOM      3  C   UNL     1      45.942   4.043  13.942  0.00  0.00    +0.000 A 
ATOM      4  C   UNL     1      45.494   4.224  12.627  0.00  0.00    +0.000 A 
ATOM      5  C   UNL     1      45.966   5.288  11.845  0.00  0.00    +0.000 A 
ATOM      6  C   UNL     1      46.905   6.161  12.405  0.00  0.00    +0.000 A 
ATOM      7  C   UNL     1      47.361   5.975  13.715  0.00  0.00    +0.000 A 
BRANCH   5   8
ATOM      8  C   UNL     1      45.486   5.484  10.423  0.00  0.00    +0.000 C 
BRANCH   8   9
ATOM      9  N   UNL     1      44.579   4.413  10.017  0.00  0.00    +0.000 NA
ATOM     10  H   UNL     1      43.637   4.646  10.328  0.00  0.00    +0.000 HD
BRANCH   9  11
ATOM     11  C   UNL     1      44.555   4.264   8.555  0.00  0.00    +0.000 C 
BRANCH  11  12
ATOM     12  C   UNL     1      45.593   3.270   8.067  0.00  0.00    +0.000 A 
ATOM     13  C   UNL     1      46.593   3.685   7.184  0.00  0.00    +0.000 A 
ATOM     14  C   UNL     1      47.529   2.757   6.741  0.00  0.00    +0.000 A 
ATOM     15  C   UNL     1      47.444   1.442   7.181  0.00  0.00    +0.000 A 
ATOM     16  C   UNL     1      46.424   1.111   8.057  0.00  0.00    +0.000 A 
ATOM     17  N   UNL     1      45.501   1.991   8.511  0.00  0.00    +0.000 NA
ENDBRANCH  11  12
ENDBRANCH   9  11
ENDBRANCH   8   9
ENDBRANCH   5   8
ENDBRANCH   1   2
BRANCH   1  18
ATOM     18  N   UNL     1      48.419   5.660  16.223  0.00  0.00    +0.000 N 
ATOM     19  C   UNL     1      48.542   6.386  17.377  0.00  0.00    +0.000 C 
ATOM     20  O   UNL     1      47.769   6.270  18.323  0.00  0.00    +0.000 OA
ATOM     21  H   UNL     1      49.027   5.875  15.442  0.00  0.00    +0.000 HD
BRANCH  19  22
ATOM     22  C   UNL     1      49.701   7.288  17.426  0.00  0.00    +0.000 A 
ATOM     23  C   UNL     1      49.529   8.652  17.621  0.00  0.00    +0.000 A 
ATOM     24  S   UNL     1      50.999   9.523  17.670  0.00  0.00    +0.000 S 
ATOM     25  C   UNL     1      51.911   8.117  17.370  0.00  0.00    +0.000 A 
ATOM     26  N   UNL     1      53.266   8.166  17.246  0.00  0.00    +0.000 NA
ATOM     27  C   UNL     1      53.821   7.032  16.978  0.00  0.00    +0.000 A 
ATOM     28  N   UNL     1      53.144   5.847  16.834  0.00  0.00    +0.000 N 
ATOM     29  C   UNL     1      51.797   5.738  17.029  0.00  0.00    +0.000 A 
ATOM     30  O   UNL     1      51.253   4.640  17.038  0.00  0.00    +0.000 OA
ATOM     31  C   UNL     1      51.108   6.994  17.276  0.00  0.00    +0.000 A 
ATOM     32  H   UNL     1      53.635   4.982  16.665  0.00  0.00    +0.000 HD
ENDBRANCH  19  22
ENDBRANCH   1  18
BRANCH   1  34
ATOM     33  C   UNL     1      47.522   2.797  17.633  0.00  0.00    +0.000 C 
ATOM     34  C   UNL     1      47.842   3.282  16.225  0.00  0.00    +0.000 C 
ENDBRANCH   1  34
TORSDOF 8
ENDMDL
MODEL 7
REMARK VINA RESULT:    -6.863      3.030      4.595
REMARK INTER + INTRA:         -11.519
REMARK INTER:                 -10.117
REMARK INTRA:                  -1.402
REMARK UNBOUND:                -1.447
REMARK  Name = 
REMARK  9 active torsions:
REMARK  status: ('A' for Active; 'I' for Inactive)
REMARK    1  A    between atoms: C_1  and  C_2
REMARK    2  A    between atoms: C_2  and  C_3
REMARK    3  A    between atoms: C_3  and  N_4
REMARK    4  A    between atoms: C_3  and  C_17
REMARK    5  A    between atoms: C_5  and  C_7
REMARK    6  A    between atoms: C_20  and  C_21
REMARK    7  A    between atoms: C_21  and  N_22
REMARK    8  A    between atoms: N_22  and  C_23
REMARK    9  A    between atoms: C_23  and  C_24
REMARK                            x       y       z     vdW  Elec       q    Type
REMARK                         _______ _______ _______ _____ _____    ______ ____
ROOT
ATOM      1  C   UNL     1      49.345   6.400  17.841  0.00  0.00    +0.000 C 
ENDROOT
BRANCH   1   2
ATOM      2  C   UNL     1      48.540   5.824  16.680  0.00  0.00    +0.000 A 
ATOM      3  C   UNL     1      48.537   6.468  15.436  0.00  0.00    +0.000 A 
ATOM      4  C   UNL     1      47.817   5.940  14.357  0.00  0.00    +0.000 A 
ATOM      5  C   UNL     1      47.095   4.745  14.488  0.00  0.00    +0.000 A 
ATOM      6  C   UNL     1      47.101   4.095  15.728  0.00  0.00    +0.000 A 
ATOM      7  C   UNL     1      47.812   4.628  16.809  0.00  0.00    +0.000 A 
BRANCH   5   8
ATOM      8  C   UNL     1      46.314   4.174  13.325  0.00  0.00    +0.000 C 
BRANCH   8   9
ATOM      9  N   UNL     1      45.927   5.220  12.381  0.00  0.00    +0.000 NA
ATOM     10  H   UNL     1      46.657   5.309  11.674  0.00  0.00    +0.000 HD
BRANCH   9  11
ATOM     11  C   UNL     1      44.669   4.883  11.701  0.00  0.00    +0.000 C 
BRANCH  11  12
ATOM     12  C   UNL     1      44.907   4.138  10.400  0.00  0.00    +0.000 A 
ATOM     13  C   UNL     1      45.512   4.791   9.325  0.00  0.00    +0.000 A 
ATOM     14  C   UNL     1      45.713   4.094   8.138  0.00  0.00    +0.000 A 
ATOM     15  C   UNL     1      45.302   2.770   8.050  0.00  0.00    +0.000 A 
ATOM     16  C   UNL     1      44.711   2.194   9.162  0.00  0.00    +0.000 A 
ATOM     17  N   UNL     1      44.506   2.843  10.331  0.00  0.00    +0.000 NA
ENDBRANCH  11  12
ENDBRANCH   9  11
ENDBRANCH   8   9
ENDBRANCH   5   8
ENDBRANCH   1   2
BRANCH   1  18
ATOM     18  N   UNL     1      50.412   5.470  18.175  0.00  0.00    +0.000 N 
ATOM     19  C   UNL     1      51.609   5.380  17.516  0.00  0.00    +0.000 C 
ATOM     20  O   UNL     1      51.917   6.122  16.589  0.00  0.00    +0.000 OA
ATOM     21  H   UNL     1      50.178   4.764  18.862  0.00  0.00    +0.000 HD
BRANCH  19  22
ATOM     22  C   UNL     1      52.528   4.354  18.030  0.00  0.00    +0.000 A 
ATOM     23  C   UNL     1      53.699   4.716  18.683  0.00  0.00    +0.000 A 
ATOM     24  S   UNL     1      54.616   3.378  19.224  0.00  0.00    +0.000 S 
ATOM     25  C   UNL     1      53.513   2.272  18.549  0.00  0.00    +0.000 A 
ATOM     26  N   UNL     1      53.726   0.929  18.618  0.00  0.00    +0.000 NA
ATOM     27  C   UNL     1      52.830   0.213  18.027  0.00  0.00    +0.000 A 
ATOM     28  N   UNL     1      51.729   0.718  17.382  0.00  0.00    +0.000 N 
ATOM     29  C   UNL     1      51.434   2.051  17.358  0.00  0.00    +0.000 A 
ATOM     30  O   UNL     1      50.368   2.448  16.902  0.00  0.00    +0.000 OA
ATOM     31  C   UNL     1      52.439   2.913  17.957  0.00  0.00    +0.000 A 
ATOM     32  H   UNL     1      51.038   0.107  16.973  0.00  0.00    +0.000 HD
ENDBRANCH  19  22
ENDBRANCH   1  18
BRANCH   1  34
ATOM     33  C   UNL     1      47.614   7.913  18.968  0.00  0.00    +0.000 C 
ATOM     34  C   UNL     1      48.488   6.672  19.091  0.00  0.00    +0.000 C 
ENDBRANCH   1  34
TORSDOF 8
ENDMDL
MODEL 8
REMARK VINA RESULT:    -6.772      4.578      9.105
REMARK INTER + INTRA:         -11.386
REMARK INTER:                 -10.624
REMARK INTRA:                  -0.762
REMARK UNBOUND:                -1.447
REMARK  Name = 
REMARK  9 active torsions:
REMARK  status: ('A' for Active; 'I' for Inactive)
REMARK    1  A    between atoms: C_1  and  C_2
REMARK    2  A    between atoms: C_2  and  C_3
REMARK    3  A    between atoms: C_3  and  N_4
REMARK    4  A    between atoms: C_3  and  C_17
REMARK    5  A    between atoms: C_5  and  C_7
REMARK    6  A    between atoms: C_20  and  C_21
REMARK    7  A    between atoms: C_21  and  N_22
REMARK    8  A    between atoms: N_22  and  C_23
REMARK    9  A    between atoms: C_23  and  C_24
REMARK                            x       y       z     vdW  Elec       q    Type
REMARK                         _______ _______ _______ _____ _____    ______ ____
ROOT
ATOM      1  C   UNL     1      48.543   5.774  17.509  0.00  0.00    +0.000 C 
ENDROOT
BRANCH   1   2
ATOM      2  C   UNL     1      49.468   4.562  17.505  0.00  0.00    +0.000 A 
ATOM      3  C   UNL     1      48.961   3.288  17.217  0.00  0.00    +0.000 A 
ATOM      4  C   UNL     1      49.803   2.170  17.192  0.00  0.00    +0.000 A 
ATOM      5  C   UNL     1      51.179   2.297  17.436  0.00  0.00    +0.000 A 
ATOM      6  C   UNL     1      51.690   3.569  17.718  0.00  0.00    +0.000 A 
ATOM      7  C   UNL     1      50.847   4.686  17.753  0.00  0.00    +0.000 A 
BRANCH   5   8
ATOM      8  C   UNL     1      52.091   1.090  17.413  0.00  0.00    +0.000 C 
BRANCH   8   9
ATOM      9  N   UNL     1      52.987   1.080  18.566  0.00  0.00    +0.000 NA
ATOM     10  H   UNL     1      52.555   0.535  19.312  0.00  0.00    +0.000 HD
BRANCH   9  11
ATOM     11  C   UNL     1      54.276   0.457  18.231  0.00  0.00    +0.000 C 
BRANCH  11  12
ATOM     12  C   UNL     1      54.239  -1.052  18.400  0.00  0.00    +0.000 A 
ATOM     13  C   UNL     1      55.013  -1.864  17.569  0.00  0.00    +0.000 A 
ATOM     14  C   UNL     1      54.958  -3.244  17.733  0.00  0.00    +0.000 A 
ATOM     15  C   UNL     1      54.134  -3.779  18.713  0.00  0.00    +0.000 A 
ATOM     16  C   UNL     1      53.400  -2.906  19.499  0.00  0.00    +0.000 A 
ATOM     17  N   UNL     1      53.434  -1.560  19.367  0.00  0.00    +0.000 NA
ENDBRANCH  11  12
ENDBRANCH   9  11
ENDBRANCH   8   9
ENDBRANCH   5   8
ENDBRANCH   1   2
BRANCH   1  18
ATOM     18  N   UNL     1      47.845   5.832  16.234  0.00  0.00    +0.000 N 
ATOM     19  C   UNL     1      48.409   6.216  15.048  0.00  0.00    +0.000 C 
ATOM     20  O   UNL     1      49.595   6.511  14.938  0.00  0.00    +0.000 OA
ATOM     21  H   UNL     1      46.842   5.700  16.279  0.00  0.00    +0.000 HD
BRANCH  19  22
ATOM     22  C   UNL     1      47.500   6.205  13.893  0.00  0.00    +0.000 A 
ATOM     23  C   UNL     1      47.201   7.382  13.217  0.00  0.00    +0.000 A 
ATOM     24  S   UNL     1      46.146   7.153  11.891  0.00  0.00    +0.000 S 
ATOM     25  C   UNL     1      46.005   5.488  12.213  0.00  0.00    +0.000 A 
ATOM     26  N   UNL     1      45.200   4.688  11.461  0.00  0.00    +0.000 NA
ATOM     27  C   UNL     1      45.158   3.456  11.844  0.00  0.00    +0.000 A 
ATOM     28  N   UNL     1      45.860   2.947  12.908  0.00  0.00    +0.000 N 
ATOM     29  C   UNL     1      46.738   3.695  13.639  0.00  0.00    +0.000 A 
ATOM     30  O   UNL     1      47.455   3.170  14.483  0.00  0.00    +0.000 OA
ATOM     31  C   UNL     1      46.784   5.104  13.290  0.00  0.00    +0.000 A 
ATOM     32  H   UNL     1      45.821   1.966  13.137  0.00  0.00    +0.000 HD
ENDBRANCH  19  22
ENDBRANCH   1  18
BRANCH   1  34
ATOM     33  C   UNL     1      48.400   8.205  18.304  0.00  0.00    +0.000 C 
ATOM     34  C   UNL     1      49.289   7.100  17.750  0.00  0.00    +0.000 C 
ENDBRANCH   1  34
TORSDOF 8
ENDMDL
MODEL 9
REMARK VINA RESULT:    -6.674      2.408      4.399
REMARK INTER + INTRA:         -11.242
REMARK INTER:                  -9.858
REMARK INTRA:                  -1.385
REMARK UNBOUND:                -1.447
REMARK  Name = 
REMARK  9 active torsions:
REMARK  status: ('A' for Active; 'I' for Inactive)
REMARK    1  A    between atoms: C_1  and  C_2
REMARK    2  A    between atoms: C_2  and  C_3
REMARK    3  A    between atoms: C_3  and  N_4
REMARK    4  A    between atoms: C_3  and  C_17
REMARK    5  A    between atoms: C_5  and  C_7
REMARK    6  A    between atoms: C_20  and  C_21
REMARK    7  A    between atoms: C_21  and  N_22
REMARK    8  A    between atoms: N_22  and  C_23
REMARK    9  A    between atoms: C_23  and  C_24
REMARK                            x       y       z     vdW  Elec       q    Type
REMARK                         _______ _______ _______ _____ _____    ______ ____
ROOT
ATOM      1  C   UNL     1      47.207   4.867  15.253  0.00  0.00    +0.000 C 
ENDROOT
BRANCH   1   2
ATOM      2  C   UNL     1      46.405   4.805  13.958  0.00  0.00    +0.000 A 
ATOM      3  C   UNL     1      46.047   3.567  13.408  0.00  0.00    +0.000 A 
ATOM      4  C   UNL     1      45.295   3.497  12.229  0.00  0.00    +0.000 A 
ATOM      5  C   UNL     1      44.865   4.662  11.577  0.00  0.00    +0.000 A 
ATOM      6  C   UNL     1      45.216   5.900  12.127  0.00  0.00    +0.000 A 
ATOM      7  C   UNL     1      45.976   5.972  13.299  0.00  0.00    +0.000 A 
BRANCH   5   8
ATOM      8  C   UNL     1      44.055   4.588  10.302  0.00  0.00    +0.000 C 
BRANCH   8   9
ATOM      9  N   UNL     1      44.897   4.788   9.125  0.00  0.00    +0.000 NA
ATOM     10  H   UNL     1      45.862   4.570   9.373  0.00  0.00    +0.000 HD
BRANCH   9  11
ATOM     11  C   UNL     1      44.496   3.898   8.027  0.00  0.00    +0.000 C 
BRANCH  11  12
ATOM     12  C   UNL     1      45.661   3.079   7.503  0.00  0.00    +0.000 A 
ATOM     13  C   UNL     1      45.988   1.865   8.109  0.00  0.00    +0.000 A 
ATOM     14  C   UNL     1      47.065   1.134   7.620  0.00  0.00    +0.000 A 
ATOM     15  C   UNL     1      47.792   1.631   6.546  0.00  0.00    +0.000 A 
ATOM     16  C   UNL     1      47.403   2.843   5.999  0.00  0.00    +0.000 A 
ATOM     17  N   UNL     1      46.358   3.574   6.448  0.00  0.00    +0.000 NA
ENDBRANCH  11  12
ENDBRANCH   9  11
ENDBRANCH   8   9
ENDBRANCH   5   8
ENDBRANCH   1   2
BRANCH   1  18
ATOM     18  N   UNL     1      48.372   5.711  15.041  0.00  0.00    +0.000 N 
ATOM     19  C   UNL     1      48.921   6.542  15.980  0.00  0.00    +0.000 C 
ATOM     20  O   UNL     1      48.498   6.621  17.129  0.00  0.00    +0.000 OA
ATOM     21  H   UNL     1      48.702   5.767  14.085  0.00  0.00    +0.000 HD
BRANCH  19  22
ATOM     22  C   UNL     1      50.092   7.307  15.528  0.00  0.00    +0.000 A 
ATOM     23  C   UNL     1      51.361   7.005  16.006  0.00  0.00    +0.000 A 
ATOM     24  S   UNL     1      52.589   7.993  15.342  0.00  0.00    +0.000 S 
ATOM     25  C   UNL     1      51.460   8.895  14.443  0.00  0.00    +0.000 A 
ATOM     26  N   UNL     1      51.849   9.946  13.671  0.00  0.00    +0.000 NA
ATOM     27  C   UNL     1      50.883  10.564  13.079  0.00  0.00    +0.000 A 
ATOM     28  N   UNL     1      49.559  10.219  13.180  0.00  0.00    +0.000 N 
ATOM     29  C   UNL     1      49.132   9.125  13.879  0.00  0.00    +0.000 A 
ATOM     30  O   UNL     1      47.963   8.764  13.823  0.00  0.00    +0.000 OA
ATOM     31  C   UNL     1      50.171   8.423  14.614  0.00  0.00    +0.000 A 
ATOM     32  H   UNL     1      48.849  10.713  12.661  0.00  0.00    +0.000 HD
ENDBRANCH  19  22
ENDBRANCH   1  18
BRANCH   1  34
ATOM     33  C   UNL     1      47.368   3.238  17.223  0.00  0.00    +0.000 C 
ATOM     34  C   UNL     1      47.658   3.480  15.748  0.00  0.00    +0.000 C 
ENDBRANCH   1  34
TORSDOF 8
ENDMDL
