MODEL 1
REMARK VINA RESULT:    -7.706      0.000      0.000
REMARK INTER + INTRA:         -11.572
REMARK INTER:                 -10.859
REMARK INTRA:                  -0.713
REMARK UNBOUND:                -0.713
REMARK  Name = 
REMARK  8 active torsions:
REMARK  status: ('A' for Active; 'I' for Inactive)
REMARK    1  A    between atoms: N_1  and  C_2
REMARK    2  A    between atoms: C_2  and  C_3
REMARK    3  A    between atoms: C_6  and  O_7
REMARK    4  A    between atoms: O_7  and  C_8
REMARK    5  A    between atoms: C_8  and  C_9
REMARK    6  A    between atoms: C_9  and  C_10
REMARK    7  A    between atoms: CA_13  and  C_14
REMARK    8  A    between atoms: C_14  and  OXT_16
REMARK                            x       y       z     vdW  Elec       q    Type
REMARK                         _______ _______ _______ _____ _____    ______ ____
ROOT
ATOM      1  O   UNL     1      43.371   5.133  12.248  0.00  0.00    +0.000 OA
ENDROOT
BRANCH   1   5
ATOM      2  C   UNL     1      47.206   6.374  13.452  0.00  0.00    +0.000 A 
ATOM      3  C   UNL     1      46.657   5.134  13.777  0.00  0.00    +0.000 A 
ATOM      4  C   UNL     1      45.369   4.796  13.340  0.00  0.00    +0.000 A 
ATOM      5  C   UNL     1      44.594   5.678  12.566  0.00  0.00    +0.000 A 
ATOM      6  C   UNL     1      45.148   6.930  12.245  0.00  0.00    +0.000 A 
ATOM      7 CL   UNL     1      44.389   8.185  11.322  0.00  0.00    +0.000 Cl
ATOM      8  C   UNL     1      46.437   7.259  12.687  0.00  0.00    +0.000 A 
BRANCH   2   9
ATOM      9  C   UNL     1      48.593   6.770  13.887  0.00  0.00    +0.000 C 
BRANCH   9  10
ATOM     10  N   UNL     1      49.544   6.665  12.788  0.00  0.00    +0.000 NA
ATOM     11  H   UNL     1      50.437   7.055  13.077  0.00  0.00    +0.000 HD
ATOM     12  H   UNL     1      49.217   7.235  12.009  0.00  0.00    +0.000 HD
ENDBRANCH   9  10
ENDBRANCH   2   9
ENDBRANCH   1   5
BRANCH   1  13
ATOM     13  C   UNL     1      43.317   4.141  11.230  0.00  0.00    +0.000 C 
BRANCH  13  14
ATOM     14  C   UNL     1      43.741   4.712   9.876  0.00  0.00    +0.000 C 
BRANCH  14  15
ATOM     15  C   UNL     1      44.717   3.773   9.212  0.00  0.00    +0.000 A 
ATOM     16  C   UNL     1      45.622   4.235   8.250  0.00  0.00    +0.000 A 
ATOM     17  C   UNL     1      46.446   3.334   7.583  0.00  0.00    +0.000 A 
ATOM     18  CA  UNL     1      46.333   1.991   7.904  0.00  0.00    +0.000 A 
ATOM     19  N   UNL     1      45.466   1.491   8.835  0.00  0.00    +0.000 NA
ATOM     20  C   UNL     1      44.679   2.400   9.458  0.00  0.00    +0.000 A 
BRANCH  18  21
ATOM     21  C   UNL     1      47.182   0.978   7.211  0.00  0.00    +0.000 C 
ATOM     22  O   UNL     1      47.955   1.219   6.302  0.00  0.00    +0.000 OA
BRANCH  21  23
ATOM     23  OXT UNL     1      46.974  -0.253   7.737  0.00  0.00    +0.000 OA
ATOM     24  HXT UNL     1      47.554  -0.894   7.265  0.00  0.00    +0.000 HD
ENDBRANCH  21  23
ENDBRANCH  18  21
ENDBRANCH  14  15
ENDBRANCH  13  14
ENDBRANCH   1  13
TORSDOF 8
ENDMDL
MODEL 2
REMARK VINA RESULT:    -7.618      1.328      1.654
REMARK INTER + INTRA:         -11.448
REMARK INTER:                 -10.666
REMARK INTRA:                  -0.781
REMARK UNBOUND:                -0.713
REMARK  Name = 
REMARK  8 active torsions:
REMARK  status: ('A' for Active; 'I' for Inactive)
REMARK    1  A    between atoms: N_1  and  C_2
REMARK    2  A    between atoms: C_2  and  C_3
REMARK    3  A    between atoms: C_6  and  O_7
REMARK    4  A    between atoms: O_7  and  C_8
REMARK    5  A    between atoms: C_8  and  C_9
REMARK    6  A    between atoms: C_9  and  C_10
REMARK    7  A    between atoms: CA_13  and  C_14
REMARK    8  A    between atoms: C_14  and  OXT_16
REMARK                            x       y       z     vdW  Elec       q    Type
REMARK                         _______ _______ _______ _____ _____    ______ ____
ROOT
ATOM      1  O   UNL     1      43.629   5.029  12.476  0.00  0.00    +0.000 OA
ENDROOT
BRANCH   1   5
ATOM      2  C   UNL     1      47.330   6.959  13.008  0.00  0.00    +0.000 A 
ATOM      3  C   UNL     1      46.141   7.631  12.723  0.00  0.00    +0.000 A 
ATOM      4  C   UNL     1      44.948   6.915  12.557  0.00  0.00    +0.000 A 
ATOM      5  C   UNL     1      44.903   5.514  12.672  0.00  0.00    +0.000 A 
ATOM      6  C   UNL     1      46.104   4.839  12.952  0.00  0.00    +0.000 A 
ATOM      7 CL   UNL     1      46.305   3.126  13.126  0.00  0.00    +0.000 Cl
ATOM      8  C   UNL     1      47.292   5.564  13.118  0.00  0.00    +0.000 A 
BRANCH   2   9
ATOM      9  C   UNL     1      48.631   7.691  13.211  0.00  0.00    +0.000 C 
BRANCH   9  10
ATOM     10  N   UNL     1      49.764   6.893  12.762  0.00  0.00    +0.000 NA
ATOM     11  H   UNL     1      49.425   6.106  12.214  0.00  0.00    +0.000 HD
ATOM     12  H   UNL     1      50.236   6.498  13.575  0.00  0.00    +0.000 HD
ENDBRANCH   9  10
ENDBRANCH   2   9
ENDBRANCH   1   5
BRANCH   1  13
ATOM     13  C   UNL     1      43.425   4.061  11.455  0.00  0.00    +0.000 C 
BRANCH  13  14
ATOM     14  C   UNL     1      43.742   4.635  10.073  0.00  0.00    +0.000 C 
BRANCH  14  15
ATOM     15  C   UNL     1      44.717   3.731   9.360  0.00  0.00    +0.000 A 
ATOM     16  C   UNL     1      45.592   4.236   8.392  0.00  0.00    +0.000 A 
ATOM     17  C   UNL     1      46.414   3.369   7.680  0.00  0.00    +0.000 A 
ATOM     18  CA  UNL     1      46.330   2.015   7.965  0.00  0.00    +0.000 A 
ATOM     19  N   UNL     1      45.493   1.474   8.899  0.00  0.00    +0.000 NA
ATOM     20  C   UNL     1      44.707   2.352   9.567  0.00  0.00    +0.000 A 
BRANCH  18  21
ATOM     21  C   UNL     1      47.179   1.037   7.222  0.00  0.00    +0.000 C 
ATOM     22  O   UNL     1      47.929   1.317   6.306  0.00  0.00    +0.000 OA
BRANCH  21  23
ATOM     23  OXT UNL     1      46.999  -0.212   7.713  0.00  0.00    +0.000 OA
ATOM     24  HXT UNL     1      46.687  -0.792   6.980  0.00  0.00    +0.000 HD
ENDBRANCH  21  23
ENDBRANCH  18  21
ENDBRANCH  14  15
ENDBRANCH  13  14
ENDBRANCH   1  13
TORSDOF 8
ENDMDL
MODEL 3
REMARK VINA RESULT:    -7.202      1.743      1.887
REMARK INTER + INTRA:         -10.862
REMARK INTER:                 -10.315
REMARK INTRA:                  -0.547
REMARK UNBOUND:                -0.713
REMARK  Name = 
REMARK  8 active torsions:
REMARK  status: ('A' for Active; 'I' for Inactive)
REMARK    1  A    between atoms: N_1  and  C_2
REMARK    2  A    between atoms: C_2  and  C_3
REMARK    3  A    between atoms: C_6  and  O_7
REMARK    4  A    between atoms: O_7  and  C_8
REMARK    5  A    between atoms: C_8  and  C_9
REMARK    6  A    between atoms: C_9  and  C_10
REMARK    7  A    between atoms: CA_13  and  C_14
REMARK    8  A    between atoms: C_14  and  OXT_16
REMARK                            x       y       z     vdW  Elec       q    Type
REMARK                         _______ _______ _______ _____ _____    ______ ____
ROOT
ATOM      1  O   UNL     1      45.621   5.555  11.230  0.00  0.00    +0.000 OA
ENDROOT
BRANCH   1   5
ATOM      2  C   UNL     1      47.609   5.372  14.934  0.00  0.00    +0.000 A 
ATOM      3  C   UNL     1      46.634   4.458  14.533  0.00  0.00    +0.000 A 
ATOM      4  C   UNL     1      46.015   4.590  13.283  0.00  0.00    +0.000 A 
ATOM      5  C   UNL     1      46.349   5.629  12.396  0.00  0.00    +0.000 A 
ATOM      6  C   UNL     1      47.327   6.552  12.805  0.00  0.00    +0.000 A 
ATOM      7 CL   UNL     1      47.895   7.917  11.901  0.00  0.00    +0.000 Cl
ATOM      8  C   UNL     1      47.942   6.412  14.058  0.00  0.00    +0.000 A 
BRANCH   2   9
ATOM      9  C   UNL     1      48.311   5.258  16.261  0.00  0.00    +0.000 C 
BRANCH   9  10
ATOM     10  N   UNL     1      47.357   5.165  17.359  0.00  0.00    +0.000 NA
ATOM     11  H   UNL     1      46.873   6.054  17.460  0.00  0.00    +0.000 HD
ATOM     12  H   UNL     1      47.865   5.011  18.229  0.00  0.00    +0.000 HD
ENDBRANCH   9  10
ENDBRANCH   2   9
ENDBRANCH   1   5
BRANCH   1  13
ATOM     13  C   UNL     1      44.300   5.032  11.291  0.00  0.00    +0.000 C 
BRANCH  13  14
ATOM     14  C   UNL     1      43.779   4.676   9.898  0.00  0.00    +0.000 C 
BRANCH  14  15
ATOM     15  C   UNL     1      44.753   3.750   9.212  0.00  0.00    +0.000 A 
ATOM     16  C   UNL     1      45.576   4.208   8.177  0.00  0.00    +0.000 A 
ATOM     17  C   UNL     1      46.397   3.314   7.496  0.00  0.00    +0.000 A 
ATOM     18  CA  UNL     1      46.364   1.983   7.879  0.00  0.00    +0.000 A 
ATOM     19  N   UNL     1      45.579   1.488   8.882  0.00  0.00    +0.000 NA
ATOM     20  C   UNL     1      44.792   2.389   9.517  0.00  0.00    +0.000 A 
BRANCH  18  21
ATOM     21  C   UNL     1      47.213   0.977   7.175  0.00  0.00    +0.000 C 
ATOM     22  O   UNL     1      47.990   1.228   6.273  0.00  0.00    +0.000 OA
BRANCH  21  23
ATOM     23  OXT UNL     1      46.999  -0.260   7.683  0.00  0.00    +0.000 OA
ATOM     24  HXT UNL     1      46.169  -0.618   7.291  0.00  0.00    +0.000 HD
ENDBRANCH  21  23
ENDBRANCH  18  21
ENDBRANCH  14  15
ENDBRANCH  13  14
ENDBRANCH   1  13
TORSDOF 8
ENDMDL
MODEL 4
REMARK VINA RESULT:    -7.073      2.922      6.559
REMARK INTER + INTRA:         -10.681
REMARK INTER:                  -9.984
REMARK INTRA:                  -0.697
REMARK UNBOUND:                -0.713
REMARK  Name = 
REMARK  8 active torsions:
REMARK  status: ('A' for Active; 'I' for Inactive)
REMARK    1  A    between atoms: N_1  and  C_2
REMARK    2  A    between atoms: C_2  and  C_3
REMARK    3  A    between atoms: C_6  and  O_7
REMARK    4  A    between atoms: O_7  and  C_8
REMARK    5  A    between atoms: C_8  and  C_9
REMARK    6  A    between atoms: C_9  and  C_10
REMARK    7  A    between atoms: CA_13  and  C_14
REMARK    8  A    between atoms: C_14  and  OXT_16
REMARK                            x       y       z     vdW  Elec       q    Type
REMARK                         _______ _______ _______ _____ _____    ______ ____
ROOT
ATOM      1  O   UNL     1      43.795   4.948   9.370  0.00  0.00    +0.000 OA
ENDROOT
BRANCH   1   5
ATOM      2  C   UNL     1      46.451   2.102   7.775  0.00  0.00    +0.000 A 
ATOM      3  C   UNL     1      46.367   3.420   7.325  0.00  0.00    +0.000 A 
ATOM      4  C   UNL     1      45.453   4.308   7.906  0.00  0.00    +0.000 A 
ATOM      5  C   UNL     1      44.600   3.913   8.952  0.00  0.00    +0.000 A 
ATOM      6  C   UNL     1      44.682   2.582   9.400  0.00  0.00    +0.000 A 
ATOM      7 CL   UNL     1      43.733   1.859  10.657  0.00  0.00    +0.000 Cl
ATOM      8  C   UNL     1      45.600   1.701   8.812  0.00  0.00    +0.000 A 
BRANCH   2   9
ATOM      9  C   UNL     1      47.432   1.120   7.189  0.00  0.00    +0.000 C 
BRANCH   9  10
ATOM     10  N   UNL     1      48.333   1.770   6.246  0.00  0.00    +0.000 NA
ATOM     11  H   UNL     1      47.917   2.642   5.929  0.00  0.00    +0.000 HD
ATOM     12  H   UNL     1      48.435   1.181   5.422  0.00  0.00    +0.000 HD
ENDBRANCH   9  10
ENDBRANCH   2   9
ENDBRANCH   1   5
BRANCH   1  13
ATOM     13  C   UNL     1      43.897   5.381  10.721  0.00  0.00    +0.000 C 
BRANCH  13  14
ATOM     14  C   UNL     1      45.213   6.118  10.971  0.00  0.00    +0.000 C 
BRANCH  14  15
ATOM     15  C   UNL     1      45.799   5.678  12.289  0.00  0.00    +0.000 A 
ATOM     16  C   UNL     1      46.934   6.303  12.818  0.00  0.00    +0.000 A 
ATOM     17  C   UNL     1      47.512   5.818  13.987  0.00  0.00    +0.000 A 
ATOM     18  CA  UNL     1      46.929   4.715  14.590  0.00  0.00    +0.000 A 
ATOM     19  N   UNL     1      45.823   4.070  14.112  0.00  0.00    +0.000 NA
ATOM     20  C   UNL     1      45.293   4.571  12.971  0.00  0.00    +0.000 A 
BRANCH  18  21
ATOM     21  C   UNL     1      47.515   4.143  15.838  0.00  0.00    +0.000 C 
ATOM     22  O   UNL     1      48.239   3.166  15.886  0.00  0.00    +0.000 OA
BRANCH  21  23
ATOM     23  OXT UNL     1      47.129   4.867  16.915  0.00  0.00    +0.000 OA
ATOM     24  HXT UNL     1      47.689   5.677  16.962  0.00  0.00    +0.000 HD
ENDBRANCH  21  23
ENDBRANCH  18  21
ENDBRANCH  14  15
ENDBRANCH  13  14
ENDBRANCH   1  13
TORSDOF 8
ENDMDL
MODEL 5
REMARK VINA RESULT:    -6.483      2.529      6.256
REMARK INTER + INTRA:          -9.850
REMARK INTER:                  -9.452
REMARK INTRA:                  -0.397
REMARK UNBOUND:                -0.713
REMARK  Name = 
REMARK  8 active torsions:
REMARK  status: ('A' for Active; 'I' for Inactive)
REMARK    1  A    between atoms: N_1  and  C_2
REMARK    2  A    between atoms: C_2  and  C_3
REMARK    3  A    between atoms: C_6  and  O_7
REMARK    4  A    between atoms: O_7  and  C_8
REMARK    5  A    between atoms: C_8  and  C_9
REMARK    6  A    between atoms: C_9  and  C_10
REMARK    7  A    between atoms: CA_13  and  C_14
REMARK    8  A    between atoms: C_14  and  OXT_16
REMARK                            x       y       z     vdW  Elec       q    Type
REMARK                         _______ _______ _______ _____ _____    ______ ____
ROOT
ATOM      1  O   UNL     1      43.705   3.261  10.567  0.00  0.00    +0.000 OA
ENDROOT
BRANCH   1   5
ATOM      2  C   UNL     1      46.455   2.183   7.572  0.00  0.00    +0.000 A 
ATOM      3  C   UNL     1      45.604   1.276   8.203  0.00  0.00    +0.000 A 
ATOM      4  C   UNL     1      44.717   1.714   9.196  0.00  0.00    +0.000 A 
ATOM      5  C   UNL     1      44.649   3.063   9.585  0.00  0.00    +0.000 A 
ATOM      6  C   UNL     1      45.512   3.974   8.951  0.00  0.00    +0.000 A 
ATOM      7 CL   UNL     1      45.624   5.675   9.265  0.00  0.00    +0.000 Cl
ATOM      8  C   UNL     1      46.396   3.527   7.959  0.00  0.00    +0.000 A 
BRANCH   2   9
ATOM      9  C   UNL     1      47.412   1.757   6.489  0.00  0.00    +0.000 C 
BRANCH   9  10
ATOM     10  N   UNL     1      48.621   2.571   6.499  0.00  0.00    +0.000 NA
ATOM     11  H   UNL     1      48.373   3.538   6.697  0.00  0.00    +0.000 HD
ATOM     12  H   UNL     1      49.036   2.563   5.569  0.00  0.00    +0.000 HD
ENDBRANCH   9  10
ENDBRANCH   2   9
ENDBRANCH   1   5
BRANCH   1  13
ATOM     13  C   UNL     1      43.355   4.597  10.908  0.00  0.00    +0.000 C 
BRANCH  13  14
ATOM     14  C   UNL     1      43.350   4.800  12.424  0.00  0.00    +0.000 C 
BRANCH  14  15
ATOM     15  C   UNL     1      44.690   5.330  12.871  0.00  0.00    +0.000 A 
ATOM     16  C   UNL     1      45.064   6.654  12.614  0.00  0.00    +0.000 A 
ATOM     17  C   UNL     1      46.341   7.092  12.950  0.00  0.00    +0.000 A 
ATOM     18  CA  UNL     1      47.205   6.181  13.537  0.00  0.00    +0.000 A 
ATOM     19  N   UNL     1      46.887   4.880  13.808  0.00  0.00    +0.000 NA
ATOM     20  C   UNL     1      45.637   4.493  13.462  0.00  0.00    +0.000 A 
BRANCH  18  21
ATOM     21  C   UNL     1      48.592   6.592  13.906  0.00  0.00    +0.000 C 
ATOM     22  O   UNL     1      48.953   6.909  15.024  0.00  0.00    +0.000 OA
BRANCH  21  23
ATOM     23  OXT UNL     1      49.399   6.560  12.818  0.00  0.00    +0.000 OA
ATOM     24  HXT UNL     1      49.518   7.483  12.493  0.00  0.00    +0.000 HD
ENDBRANCH  21  23
ENDBRANCH  18  21
ENDBRANCH  14  15
ENDBRANCH  13  14
ENDBRANCH   1  13
TORSDOF 8
ENDMDL
MODEL 6
REMARK VINA RESULT:    -5.682      5.329      7.735
REMARK INTER + INTRA:          -8.720
REMARK INTER:                  -8.312
REMARK INTRA:                  -0.407
REMARK UNBOUND:                -0.713
REMARK  Name = 
REMARK  8 active torsions:
REMARK  status: ('A' for Active; 'I' for Inactive)
REMARK    1  A    between atoms: N_1  and  C_2
REMARK    2  A    between atoms: C_2  and  C_3
REMARK    3  A    between atoms: C_6  and  O_7
REMARK    4  A    between atoms: O_7  and  C_8
REMARK    5  A    between atoms: C_8  and  C_9
REMARK    6  A    between atoms: C_9  and  C_10
REMARK    7  A    between atoms: CA_13  and  C_14
REMARK    8  A    between atoms: C_14  and  OXT_16
REMARK                            x       y       z     vdW  Elec       q    Type
REMARK                         _______ _______ _______ _____ _____    ______ ____
ROOT
ATOM      1  O   UNL     1      47.871   5.134  14.228  0.00  0.00    +0.000 OA
ENDROOT
BRANCH   1   5
ATOM      2  C   UNL     1      44.296   5.814  12.118  0.00  0.00    +0.000 A 
ATOM      3  C   UNL     1      44.536   4.675  12.884  0.00  0.00    +0.000 A 
ATOM      4  C   UNL     1      45.756   4.520  13.556  0.00  0.00    +0.000 A 
ATOM      5  C   UNL     1      46.768   5.494  13.487  0.00  0.00    +0.000 A 
ATOM      6  C   UNL     1      46.526   6.640  12.708  0.00  0.00    +0.000 A 
ATOM      7 CL   UNL     1      47.615   7.964  12.459  0.00  0.00    +0.000 Cl
ATOM      8  C   UNL     1      45.301   6.786  12.041  0.00  0.00    +0.000 A 
BRANCH   2   9
ATOM      9  C   UNL     1      42.992   6.028  11.394  0.00  0.00    +0.000 C 
BRANCH   9  10
ATOM     10  N   UNL     1      42.780   7.437  11.087  0.00  0.00    +0.000 NA
ATOM     11  H   UNL     1      43.678   7.881  10.910  0.00  0.00    +0.000 HD
ATOM     12  H   UNL     1      42.384   7.899  11.904  0.00  0.00    +0.000 HD
ENDBRANCH   9  10
ENDBRANCH   2   9
ENDBRANCH   1   5
BRANCH   1  13
ATOM     13  C   UNL     1      47.916   5.510  15.599  0.00  0.00    +0.000 C 
BRANCH  13  14
ATOM     14  C   UNL     1      47.530   4.341  16.507  0.00  0.00    +0.000 C 
BRANCH  14  15
ATOM     15  C   UNL     1      48.770   3.589  16.922  0.00  0.00    +0.000 A 
ATOM     16  C   UNL     1      49.794   4.224  17.635  0.00  0.00    +0.000 A 
ATOM     17  C   UNL     1      50.968   3.536  17.923  0.00  0.00    +0.000 A 
ATOM     18  CA  UNL     1      51.077   2.226  17.483  0.00  0.00    +0.000 A 
ATOM     19  N   UNL     1      50.107   1.564  16.785  0.00  0.00    +0.000 NA
ATOM     20  C   UNL     1      48.982   2.270  16.521  0.00  0.00    +0.000 A 
BRANCH  18  21
ATOM     21  C   UNL     1      52.320   1.445  17.751  0.00  0.00    +0.000 C 
ATOM     22  O   UNL     1      53.138   1.706  18.613  0.00  0.00    +0.000 OA
BRANCH  21  23
ATOM     23  OXT UNL     1      52.412   0.396  16.898  0.00  0.00    +0.000 OA
ATOM     24  HXT UNL     1      51.531  -0.044  16.851  0.00  0.00    +0.000 HD
ENDBRANCH  21  23
ENDBRANCH  18  21
ENDBRANCH  14  15
ENDBRANCH  13  14
ENDBRANCH   1  13
TORSDOF 8
ENDMDL
MODEL 7
REMARK VINA RESULT:    -5.455      3.527      5.146
REMARK INTER + INTRA:          -8.400
REMARK INTER:                  -7.681
REMARK INTRA:                  -0.719
REMARK UNBOUND:                -0.713
REMARK  Name = 
REMARK  8 active torsions:
REMARK  status: ('A' for Active; 'I' for Inactive)
REMARK    1  A    between atoms: N_1  and  C_2
REMARK    2  A    between atoms: C_2  and  C_3
REMARK    3  A    between atoms: C_6  and  O_7
REMARK    4  A    between atoms: O_7  and  C_8
REMARK    5  A    between atoms: C_8  and  C_9
REMARK    6  A    between atoms: C_9  and  C_10
REMARK    7  A    between atoms: CA_13  and  C_14
REMARK    8  A    between atoms: C_14  and  OXT_16
REMARK                            x       y       z     vdW  Elec       q    Type
REMARK                         _______ _______ _______ _____ _____    ______ ____
ROOT
ATOM      1  O   UNL     1      48.128   5.895  13.611  0.00  0.00    +0.000 OA
ENDROOT
BRANCH   1   5
ATOM      2  C   UNL     1      48.213   5.224  17.764  0.00  0.00    +0.000 A 
ATOM      3  C   UNL     1      47.489   4.438  16.868  0.00  0.00    +0.000 A 
ATOM      4  C   UNL     1      47.509   4.729  15.497  0.00  0.00    +0.000 A 
ATOM      5  C   UNL     1      48.252   5.805  14.979  0.00  0.00    +0.000 A 
ATOM      6  C   UNL     1      48.976   6.599  15.885  0.00  0.00    +0.000 A 
ATOM      7 CL   UNL     1      49.949   7.979  15.495  0.00  0.00    +0.000 Cl
ATOM      8  C   UNL     1      48.950   6.300  17.255  0.00  0.00    +0.000 A 
BRANCH   2   9
ATOM      9  C   UNL     1      48.232   4.936  19.242  0.00  0.00    +0.000 C 
BRANCH   9  10
ATOM     10  N   UNL     1      48.299   3.503  19.502  0.00  0.00    +0.000 NA
ATOM     11  H   UNL     1      47.400   3.184  19.856  0.00  0.00    +0.000 HD
ATOM     12  H   UNL     1      48.980   3.330  20.240  0.00  0.00    +0.000 HD
ENDBRANCH   9  10
ENDBRANCH   2   9
ENDBRANCH   1   5
BRANCH   1  13
ATOM     13  C   UNL     1      47.796   7.157  13.045  0.00  0.00    +0.000 C 
BRANCH  13  14
ATOM     14  C   UNL     1      46.288   7.410  13.099  0.00  0.00    +0.000 C 
BRANCH  14  15
ATOM     15  C   UNL     1      45.554   6.233  12.507  0.00  0.00    +0.000 A 
ATOM     16  C   UNL     1      44.748   5.412  13.303  0.00  0.00    +0.000 A 
ATOM     17  C   UNL     1      44.158   4.277  12.755  0.00  0.00    +0.000 A 
ATOM     18  CA  UNL     1      44.399   4.002  11.418  0.00  0.00    +0.000 A 
ATOM     19  N   UNL     1      45.177   4.772  10.600  0.00  0.00    +0.000 NA
ATOM     20  C   UNL     1      45.736   5.865  11.173  0.00  0.00    +0.000 A 
BRANCH  18  21
ATOM     21  C   UNL     1      43.803   2.791  10.780  0.00  0.00    +0.000 C 
ATOM     22  O   UNL     1      44.041   2.408   9.650  0.00  0.00    +0.000 OA
BRANCH  21  23
ATOM     23  OXT UNL     1      42.958   2.173  11.640  0.00  0.00    +0.000 OA
ATOM     24  HXT UNL     1      43.490   1.790  12.376  0.00  0.00    +0.000 HD
ENDBRANCH  21  23
ENDBRANCH  18  21
ENDBRANCH  14  15
ENDBRANCH  13  14
ENDBRANCH   1  13
TORSDOF 8
ENDMDL
MODEL 8
REMARK VINA RESULT:    -5.361      4.821      8.612
REMARK INTER + INTRA:          -8.267
REMARK INTER:                  -7.367
REMARK INTRA:                  -0.901
REMARK UNBOUND:                -0.713
REMARK  Name = 
REMARK  8 active torsions:
REMARK  status: ('A' for Active; 'I' for Inactive)
REMARK    1  A    between atoms: N_1  and  C_2
REMARK    2  A    between atoms: C_2  and  C_3
REMARK    3  A    between atoms: C_6  and  O_7
REMARK    4  A    between atoms: O_7  and  C_8
REMARK    5  A    between atoms: C_8  and  C_9
REMARK    6  A    between atoms: C_9  and  C_10
REMARK    7  A    between atoms: CA_13  and  C_14
REMARK    8  A    between atoms: C_14  and  OXT_16
REMARK                            x       y       z     vdW  Elec       q    Type
REMARK                         _______ _______ _______ _____ _____    ______ ____
ROOT
ATOM      1  O   UNL     1      48.998   6.274  13.582  0.00  0.00    +0.000 OA
ENDROOT
BRANCH   1   5
ATOM      2  C   UNL     1      44.973   5.641  12.534  0.00  0.00    +0.000 A 
ATOM      3  C   UNL     1      45.825   6.506  11.847  0.00  0.00    +0.000 A 
ATOM      4  C   UNL     1      47.154   6.665  12.261  0.00  0.00    +0.000 A 
ATOM      5  C   UNL     1      47.674   5.967  13.366  0.00  0.00    +0.000 A 
ATOM      6  C   UNL     1      46.812   5.101  14.061  0.00  0.00    +0.000 A 
ATOM      7 CL   UNL     1      47.212   4.148  15.452  0.00  0.00    +0.000 Cl
ATOM      8  C   UNL     1      45.484   4.948  13.638  0.00  0.00    +0.000 A 
BRANCH   2   9
ATOM      9  C   UNL     1      43.543   5.428  12.113  0.00  0.00    +0.000 C 
BRANCH   9  10
ATOM     10  N   UNL     1      42.650   5.393  13.264  0.00  0.00    +0.000 NA
ATOM     11  H   UNL     1      43.077   5.900  14.036  0.00  0.00    +0.000 HD
ATOM     12  H   UNL     1      42.544   4.429  13.574  0.00  0.00    +0.000 HD
ENDBRANCH   9  10
ENDBRANCH   2   9
ENDBRANCH   1   5
BRANCH   1  13
ATOM     13  C   UNL     1      49.312   7.520  14.192  0.00  0.00    +0.000 C 
BRANCH  13  14
ATOM     14  C   UNL     1      50.507   7.391  15.137  0.00  0.00    +0.000 C 
BRANCH  14  15
ATOM     15  C   UNL     1      50.084   6.676  16.397  0.00  0.00    +0.000 A 
ATOM     16  C   UNL     1      50.817   5.591  16.891  0.00  0.00    +0.000 A 
ATOM     17  C   UNL     1      50.354   4.888  17.999  0.00  0.00    +0.000 A 
ATOM     18  CA  UNL     1      49.164   5.300  18.578  0.00  0.00    +0.000 A 
ATOM     19  N   UNL     1      48.414   6.352  18.133  0.00  0.00    +0.000 NA
ATOM     20  C   UNL     1      48.896   7.007  17.050  0.00  0.00    +0.000 A 
BRANCH  18  21
ATOM     21  C   UNL     1      48.613   4.575  19.760  0.00  0.00    +0.000 C 
ATOM     22  O   UNL     1      48.369   5.082  20.839  0.00  0.00    +0.000 OA
BRANCH  21  23
ATOM     23  OXT UNL     1      48.419   3.267  19.463  0.00  0.00    +0.000 OA
ATOM     24  HXT UNL     1      47.746   2.905  20.085  0.00  0.00    +0.000 HD
ENDBRANCH  21  23
ENDBRANCH  18  21
ENDBRANCH  14  15
ENDBRANCH  13  14
ENDBRANCH   1  13
TORSDOF 8
ENDMDL
MODEL 9
REMARK VINA RESULT:    -5.300      3.631      7.577
REMARK INTER + INTRA:          -8.181
REMARK INTER:                  -7.790
REMARK INTRA:                  -0.392
REMARK UNBOUND:                -0.713
REMARK  Name = 
REMARK  8 active torsions:
REMARK  status: ('A' for Active; 'I' for Inactive)
REMARK    1  A    between atoms: N_1  and  C_2
REMARK    2  A    between atoms: C_2  and  C_3
REMARK    3  A    between atoms: C_6  and  O_7
REMARK    4  A    between atoms: O_7  and  C_8
REMARK    5  A    between atoms: C_8  and  C_9
REMARK    6  A    between atoms: C_9  and  C_10
REMARK    7  A    between atoms: CA_13  and  C_14
REMARK    8  A    between atoms: C_14  and  OXT_16
REMARK                            x       y       z     vdW  Elec       q    Type
REMARK                         _______ _______ _______ _____ _____    ______ ____
ROOT
ATOM      1  O   UNL     1      45.261   6.669  12.825  0.00  0.00    +0.000 OA
ENDROOT
BRANCH   1   5
ATOM      2  C   UNL     1      44.910   3.989   9.601  0.00  0.00    +0.000 A 
ATOM      3  C   UNL     1      45.638   5.177   9.543  0.00  0.00    +0.000 A 
ATOM      4  C   UNL     1      45.704   6.019  10.661  0.00  0.00    +0.000 A 
ATOM      5  C   UNL     1      45.052   5.703  11.866  0.00  0.00    +0.000 A 
ATOM      6  C   UNL     1      44.314   4.508  11.920  0.00  0.00    +0.000 A 
ATOM      7 CL   UNL     1      43.419   3.911  13.279  0.00  0.00    +0.000 Cl
ATOM      8  C   UNL     1      44.254   3.671  10.796  0.00  0.00    +0.000 A 
BRANCH   2   9
ATOM      9  C   UNL     1      44.827   3.047   8.428  0.00  0.00    +0.000 C 
BRANCH   9  10
ATOM     10  N   UNL     1      45.341   1.727   8.771  0.00  0.00    +0.000 NA
ATOM     11  H   UNL     1      44.850   1.377   9.591  0.00  0.00    +0.000 HD
ATOM     12  H   UNL     1      46.322   1.809   9.034  0.00  0.00    +0.000 HD
ENDBRANCH   9  10
ENDBRANCH   2   9
ENDBRANCH   1   5
BRANCH   1  13
ATOM     13  C   UNL     1      46.599   6.968  13.203  0.00  0.00    +0.000 C 
BRANCH  13  14
ATOM     14  C   UNL     1      47.452   5.700  13.273  0.00  0.00    +0.000 C 
BRANCH  14  15
ATOM     15  C   UNL     1      47.706   5.339  14.716  0.00  0.00    +0.000 A 
ATOM     16  C   UNL     1      47.102   4.217  15.295  0.00  0.00    +0.000 A 
ATOM     17  C   UNL     1      47.274   3.958  16.651  0.00  0.00    +0.000 A 
ATOM     18  CA  UNL     1      48.052   4.839  17.385  0.00  0.00    +0.000 A 
ATOM     19  N   UNL     1      48.662   5.946  16.867  0.00  0.00    +0.000 NA
ATOM     20  C   UNL     1      48.466   6.165  15.544  0.00  0.00    +0.000 A 
BRANCH  18  21
ATOM     21  C   UNL     1      48.260   4.619  18.847  0.00  0.00    +0.000 C 
ATOM     22  O   UNL     1      48.365   5.501  19.679  0.00  0.00    +0.000 OA
BRANCH  21  23
ATOM     23  OXT UNL     1      48.314   3.293  19.121  0.00  0.00    +0.000 OA
ATOM     24  HXT UNL     1      47.566   3.070  19.722  0.00  0.00    +0.000 HD
ENDBRANCH  21  23
ENDBRANCH  18  21
ENDBRANCH  14  15
ENDBRANCH  13  14
ENDBRANCH   1  13
TORSDOF 8
ENDMDL
