MODEL 1
REMARK VINA RESULT:    -7.321      0.000      0.000
REMARK INTER + INTRA:         -10.226
REMARK INTER:                  -9.674
REMARK INTRA:                  -0.552
REMARK UNBOUND:                -0.552
REMARK  Name = 
REMARK  6 active torsions:
REMARK  status: ('A' for Active; 'I' for Inactive)
REMARK    1  A    between atoms: N_1  and  C_2
REMARK    2  A    between atoms: C_2  and  C_3
REMARK    3  A    between atoms: C_7  and  N_8
REMARK    4  A    between atoms: N_8  and  C_9
REMARK    5  A    between atoms: C_9  and  C_10
REMARK    6  A    between atoms: C_10  and  C_11
REMARK                            x       y       z     vdW  Elec       q    Type
REMARK                         _______ _______ _______ _____ _____    ______ ____
ROOT
ATOM      1  C   UNL     1      46.648   2.570   6.746  0.00  0.00    +0.000 A 
ATOM      2  C   UNL     1      46.679   1.342   7.413  0.00  0.00    +0.000 A 
ATOM      3  C   UNL     1      45.867   1.131   8.523  0.00  0.00    +0.000 A 
ATOM      4  C   UNL     1      45.035   2.152   8.990  0.00  0.00    +0.000 A 
ATOM      5  C   UNL     1      45.016   3.413   8.382  0.00  0.00    +0.000 A 
ATOM      6  C   UNL     1      45.797   3.584   7.228  0.00  0.00    +0.000 A 
ENDROOT
BRANCH   5   7
ATOM      7  N   UNL     1      44.162   4.455   8.794  0.00  0.00    +0.000 N 
ATOM      8  H   UNL     1      44.536   5.354   8.495  0.00  0.00    +0.000 HD
BRANCH   7   9
ATOM      9  C   UNL     1      43.739   4.456  10.199  0.00  0.00    +0.000 C 
BRANCH   9  10
ATOM     10  C   UNL     1      44.408   5.598  10.973  0.00  0.00    +0.000 C 
BRANCH  10  11
ATOM     11  C   UNL     1      45.338   5.075  12.039  0.00  0.00    +0.000 A 
ATOM     12  C   UNL     1      46.307   5.884  12.636  0.00  0.00    +0.000 A 
ATOM     13  C   UNL     1      47.168   5.343  13.589  0.00  0.00    +0.000 A 
ATOM     14  C   UNL     1      47.033   4.003  13.909  0.00  0.00    +0.000 A 
ATOM     15  N   UNL     1      46.115   3.188  13.352  0.00  0.00    +0.000 NA
ATOM     16  C   UNL     1      45.290   3.740  12.433  0.00  0.00    +0.000 A 
ENDBRANCH  10  11
ENDBRANCH   9  10
ENDBRANCH   7   9
ENDBRANCH   5   7
BRANCH   1  17
ATOM     17  C   UNL     1      47.495   2.794   5.520  0.00  0.00    +0.000 C 
BRANCH  17  18
ATOM     18  N   UNL     1      48.538   1.782   5.394  0.00  0.00    +0.000 NA
ATOM     19  H   UNL     1      48.259   1.104   4.688  0.00  0.00    +0.000 HD
ATOM     20  H   UNL     1      48.604   1.272   6.274  0.00  0.00    +0.000 HD
ENDBRANCH  17  18
ENDBRANCH   1  17
TORSDOF 6
ENDMDL
MODEL 2
REMARK VINA RESULT:    -7.282      1.137      6.284
REMARK INTER + INTRA:         -10.175
REMARK INTER:                  -9.637
REMARK INTRA:                  -0.539
REMARK UNBOUND:                -0.552
REMARK  Name = 
REMARK  6 active torsions:
REMARK  status: ('A' for Active; 'I' for Inactive)
REMARK    1  A    between atoms: N_1  and  C_2
REMARK    2  A    between atoms: C_2  and  C_3
REMARK    3  A    between atoms: C_7  and  N_8
REMARK    4  A    between atoms: N_8  and  C_9
REMARK    5  A    between atoms: C_9  and  C_10
REMARK    6  A    between atoms: C_10  and  C_11
REMARK                            x       y       z     vdW  Elec       q    Type
REMARK                         _______ _______ _______ _____ _____    ______ ____
ROOT
ATOM      1  C   UNL     1      46.384   4.899  13.318  0.00  0.00    +0.000 A 
ATOM      2  C   UNL     1      46.931   6.040  12.726  0.00  0.00    +0.000 A 
ATOM      3  C   UNL     1      46.517   6.435  11.458  0.00  0.00    +0.000 A 
ATOM      4  C   UNL     1      45.569   5.681  10.761  0.00  0.00    +0.000 A 
ATOM      5  C   UNL     1      45.039   4.501  11.297  0.00  0.00    +0.000 A 
ATOM      6  C   UNL     1      45.425   4.155  12.602  0.00  0.00    +0.000 A 
ENDROOT
BRANCH   5   7
ATOM      7  N   UNL     1      44.052   3.735  10.646  0.00  0.00    +0.000 N 
ATOM      8  H   UNL     1      43.798   2.932  11.219  0.00  0.00    +0.000 HD
BRANCH   7   9
ATOM      9  C   UNL     1      44.299   3.377   9.245  0.00  0.00    +0.000 C 
BRANCH   9  10
ATOM     10  C   UNL     1      45.206   2.145   9.145  0.00  0.00    +0.000 C 
BRANCH  10  11
ATOM     11  C   UNL     1      46.119   2.225   7.947  0.00  0.00    +0.000 A 
ATOM     12  C   UNL     1      46.118   3.328   7.091  0.00  0.00    +0.000 A 
ATOM     13  C   UNL     1      46.953   3.338   5.975  0.00  0.00    +0.000 A 
ATOM     14  C   UNL     1      47.762   2.236   5.752  0.00  0.00    +0.000 A 
ATOM     15  N   UNL     1      47.789   1.152   6.553  0.00  0.00    +0.000 NA
ATOM     16  C   UNL     1      46.971   1.171   7.629  0.00  0.00    +0.000 A 
ENDBRANCH  10  11
ENDBRANCH   9  10
ENDBRANCH   7   9
ENDBRANCH   5   7
BRANCH   1  17
ATOM     17  C   UNL     1      46.799   4.485  14.706  0.00  0.00    +0.000 C 
BRANCH  17  18
ATOM     18  N   UNL     1      47.549   3.234  14.693  0.00  0.00    +0.000 NA
ATOM     19  H   UNL     1      47.657   2.902  15.650  0.00  0.00    +0.000 HD
ATOM     20  H   UNL     1      48.488   3.421  14.345  0.00  0.00    +0.000 HD
ENDBRANCH  17  18
ENDBRANCH   1  17
TORSDOF 6
ENDMDL
MODEL 3
REMARK VINA RESULT:    -7.225      1.304      1.991
REMARK INTER + INTRA:         -10.099
REMARK INTER:                  -9.391
REMARK INTRA:                  -0.709
REMARK UNBOUND:                -0.552
REMARK  Name = 
REMARK  6 active torsions:
REMARK  status: ('A' for Active; 'I' for Inactive)
REMARK    1  A    between atoms: N_1  and  C_2
REMARK    2  A    between atoms: C_2  and  C_3
REMARK    3  A    between atoms: C_7  and  N_8
REMARK    4  A    between atoms: N_8  and  C_9
REMARK    5  A    between atoms: C_9  and  C_10
REMARK    6  A    between atoms: C_10  and  C_11
REMARK                            x       y       z     vdW  Elec       q    Type
REMARK                         _______ _______ _______ _____ _____    ______ ____
ROOT
ATOM      1  C   UNL     1      46.498   2.275   7.634  0.00  0.00    +0.000 A 
ATOM      2  C   UNL     1      46.657   3.620   7.290  0.00  0.00    +0.000 A 
ATOM      3  C   UNL     1      45.997   4.608   8.014  0.00  0.00    +0.000 A 
ATOM      4  C   UNL     1      45.156   4.259   9.074  0.00  0.00    +0.000 A 
ATOM      5  C   UNL     1      44.928   2.920   9.414  0.00  0.00    +0.000 A 
ATOM      6  C   UNL     1      45.650   1.944   8.710  0.00  0.00    +0.000 A 
ENDROOT
BRANCH   5   7
ATOM      7  N   UNL     1      44.121   2.528  10.500  0.00  0.00    +0.000 N 
ATOM      8  H   UNL     1      43.489   1.781  10.216  0.00  0.00    +0.000 HD
BRANCH   7   9
ATOM      9  C   UNL     1      43.441   3.592  11.247  0.00  0.00    +0.000 C 
BRANCH   9  10
ATOM     10  C   UNL     1      43.933   3.644  12.699  0.00  0.00    +0.000 C 
BRANCH  10  11
ATOM     11  C   UNL     1      45.136   4.542  12.845  0.00  0.00    +0.000 A 
ATOM     12  C   UNL     1      45.141   5.853  12.362  0.00  0.00    +0.000 A 
ATOM     13  C   UNL     1      46.290   6.631  12.486  0.00  0.00    +0.000 A 
ATOM     14  C   UNL     1      47.402   6.067  13.089  0.00  0.00    +0.000 A 
ATOM     15  N   UNL     1      47.438   4.805  13.564  0.00  0.00    +0.000 NA
ATOM     16  C   UNL     1      46.308   4.074  13.432  0.00  0.00    +0.000 A 
ENDBRANCH  10  11
ENDBRANCH   9  10
ENDBRANCH   7   9
ENDBRANCH   5   7
BRANCH   1  17
ATOM     17  C   UNL     1      47.239   1.201   6.879  0.00  0.00    +0.000 C 
BRANCH  17  18
ATOM     18  N   UNL     1      48.312   1.759   6.065  0.00  0.00    +0.000 NA
ATOM     19  H   UNL     1      48.548   1.097   5.329  0.00  0.00    +0.000 HD
ATOM     20  H   UNL     1      49.145   1.854   6.645  0.00  0.00    +0.000 HD
ENDBRANCH  17  18
ENDBRANCH   1  17
TORSDOF 6
ENDMDL
MODEL 4
REMARK VINA RESULT:    -6.694      2.204      6.261
REMARK INTER + INTRA:          -9.398
REMARK INTER:                  -8.947
REMARK INTRA:                  -0.452
REMARK UNBOUND:                -0.552
REMARK  Name = 
REMARK  6 active torsions:
REMARK  status: ('A' for Active; 'I' for Inactive)
REMARK    1  A    between atoms: N_1  and  C_2
REMARK    2  A    between atoms: C_2  and  C_3
REMARK    3  A    between atoms: C_7  and  N_8
REMARK    4  A    between atoms: N_8  and  C_9
REMARK    5  A    between atoms: C_9  and  C_10
REMARK    6  A    between atoms: C_10  and  C_11
REMARK                            x       y       z     vdW  Elec       q    Type
REMARK                         _______ _______ _______ _____ _____    ______ ____
ROOT
ATOM      1  C   UNL     1      45.905   7.473  12.374  0.00  0.00    +0.000 A 
ATOM      2  C   UNL     1      46.775   6.719  13.167  0.00  0.00    +0.000 A 
ATOM      3  C   UNL     1      46.656   5.333  13.210  0.00  0.00    +0.000 A 
ATOM      4  C   UNL     1      45.652   4.691  12.480  0.00  0.00    +0.000 A 
ATOM      5  C   UNL     1      44.727   5.416  11.718  0.00  0.00    +0.000 A 
ATOM      6  C   UNL     1      44.904   6.806  11.641  0.00  0.00    +0.000 A 
ENDROOT
BRANCH   5   7
ATOM      7  N   UNL     1      43.727   4.805  10.936  0.00  0.00    +0.000 N 
ATOM      8  H   UNL     1      42.896   4.636  11.500  0.00  0.00    +0.000 HD
BRANCH   7   9
ATOM      9  C   UNL     1      44.120   3.637  10.141  0.00  0.00    +0.000 C 
BRANCH   9  10
ATOM     10  C   UNL     1      44.594   4.058   8.744  0.00  0.00    +0.000 C 
BRANCH  10  11
ATOM     11  C   UNL     1      45.616   3.095   8.192  0.00  0.00    +0.000 A 
ATOM     12  C   UNL     1      46.595   3.500   7.282  0.00  0.00    +0.000 A 
ATOM     13  C   UNL     1      47.492   2.564   6.770  0.00  0.00    +0.000 A 
ATOM     14  C   UNL     1      47.376   1.249   7.187  0.00  0.00    +0.000 A 
ATOM     15  N   UNL     1      46.443   0.819   8.061  0.00  0.00    +0.000 NA
ATOM     16  C   UNL     1      45.588   1.748   8.543  0.00  0.00    +0.000 A 
ENDBRANCH  10  11
ENDBRANCH   9  10
ENDBRANCH   7   9
ENDBRANCH   5   7
BRANCH   1  17
ATOM     17  C   UNL     1      46.052   8.970  12.292  0.00  0.00    +0.000 C 
BRANCH  17  18
ATOM     18  N   UNL     1      44.877   9.656  12.819  0.00  0.00    +0.000 NA
ATOM     19  H   UNL     1      44.526   9.140  13.624  0.00  0.00    +0.000 HD
ATOM     20  H   UNL     1      44.141   9.627  12.115  0.00  0.00    +0.000 HD
ENDBRANCH  17  18
ENDBRANCH   1  17
TORSDOF 6
ENDMDL
MODEL 5
REMARK VINA RESULT:    -6.537      1.595      5.822
REMARK INTER + INTRA:          -9.191
REMARK INTER:                  -8.786
REMARK INTRA:                  -0.405
REMARK UNBOUND:                -0.552
REMARK  Name = 
REMARK  6 active torsions:
REMARK  status: ('A' for Active; 'I' for Inactive)
REMARK    1  A    between atoms: N_1  and  C_2
REMARK    2  A    between atoms: C_2  and  C_3
REMARK    3  A    between atoms: C_7  and  N_8
REMARK    4  A    between atoms: N_8  and  C_9
REMARK    5  A    between atoms: C_9  and  C_10
REMARK    6  A    between atoms: C_10  and  C_11
REMARK                            x       y       z     vdW  Elec       q    Type
REMARK                         _______ _______ _______ _____ _____    ______ ____
ROOT
ATOM      1  C   UNL     1      46.823   5.932  12.254  0.00  0.00    +0.000 A 
ATOM      2  C   UNL     1      46.804   4.989  13.285  0.00  0.00    +0.000 A 
ATOM      3  C   UNL     1      45.817   4.009  13.316  0.00  0.00    +0.000 A 
ATOM      4  C   UNL     1      44.827   3.977  12.330  0.00  0.00    +0.000 A 
ATOM      5  C   UNL     1      44.780   4.937  11.312  0.00  0.00    +0.000 A 
ATOM      6  C   UNL     1      45.820   5.879  11.266  0.00  0.00    +0.000 A 
ENDROOT
BRANCH   5   7
ATOM      7  N   UNL     1      43.826   4.916  10.277  0.00  0.00    +0.000 N 
ATOM      8  H   UNL     1      42.947   4.529  10.618  0.00  0.00    +0.000 HD
BRANCH   7   9
ATOM      9  C   UNL     1      44.241   4.334   8.996  0.00  0.00    +0.000 C 
BRANCH   9  10
ATOM     10  C   UNL     1      44.798   2.918   9.191  0.00  0.00    +0.000 C 
BRANCH  10  11
ATOM     11  C   UNL     1      45.815   2.573   8.132  0.00  0.00    +0.000 A 
ATOM     12  C   UNL     1      46.191   3.485   7.143  0.00  0.00    +0.000 A 
ATOM     13  C   UNL     1      47.106   3.104   6.163  0.00  0.00    +0.000 A 
ATOM     14  C   UNL     1      47.614   1.817   6.205  0.00  0.00    +0.000 A 
ATOM     15  N   UNL     1      47.274   0.907   7.140  0.00  0.00    +0.000 NA
ATOM     16  C   UNL     1      46.386   1.304   8.080  0.00  0.00    +0.000 A 
ENDBRANCH  10  11
ENDBRANCH   9  10
ENDBRANCH   7   9
ENDBRANCH   5   7
BRANCH   1  17
ATOM     17  C   UNL     1      47.911   6.974  12.192  0.00  0.00    +0.000 C 
BRANCH  17  18
ATOM     18  N   UNL     1      49.138   6.508  12.827  0.00  0.00    +0.000 NA
ATOM     19  H   UNL     1      49.357   7.119  13.612  0.00  0.00    +0.000 HD
ATOM     20  H   UNL     1      49.906   6.605  12.163  0.00  0.00    +0.000 HD
ENDBRANCH  17  18
ENDBRANCH   1  17
TORSDOF 6
ENDMDL
MODEL 6
REMARK VINA RESULT:    -6.023      1.625      6.507
REMARK INTER + INTRA:          -8.511
REMARK INTER:                  -8.160
REMARK INTRA:                  -0.351
REMARK UNBOUND:                -0.552
REMARK  Name = 
REMARK  6 active torsions:
REMARK  status: ('A' for Active; 'I' for Inactive)
REMARK    1  A    between atoms: N_1  and  C_2
REMARK    2  A    between atoms: C_2  and  C_3
REMARK    3  A    between atoms: C_7  and  N_8
REMARK    4  A    between atoms: N_8  and  C_9
REMARK    5  A    between atoms: C_9  and  C_10
REMARK    6  A    between atoms: C_10  and  C_11
REMARK                            x       y       z     vdW  Elec       q    Type
REMARK                         _______ _______ _______ _____ _____    ______ ____
ROOT
ATOM      1  C   UNL     1      46.805   6.789  13.025  0.00  0.00    +0.000 A 
ATOM      2  C   UNL     1      46.329   8.097  13.151  0.00  0.00    +0.000 A 
ATOM      3  C   UNL     1      45.319   8.556  12.312  0.00  0.00    +0.000 A 
ATOM      4  C   UNL     1      44.792   7.719  11.324  0.00  0.00    +0.000 A 
ATOM      5  C   UNL     1      45.281   6.422  11.130  0.00  0.00    +0.000 A 
ATOM      6  C   UNL     1      46.257   5.959  12.027  0.00  0.00    +0.000 A 
ENDROOT
BRANCH   5   7
ATOM      7  N   UNL     1      44.750   5.533  10.174  0.00  0.00    +0.000 N 
ATOM      8  H   UNL     1      43.779   5.772   9.975  0.00  0.00    +0.000 HD
BRANCH   7   9
ATOM      9  C   UNL     1      44.943   4.099  10.413  0.00  0.00    +0.000 C 
BRANCH   9  10
ATOM     10  C   UNL     1      44.437   3.271   9.226  0.00  0.00    +0.000 C 
BRANCH  10  11
ATOM     11  C   UNL     1      45.576   2.782   8.366  0.00  0.00    +0.000 A 
ATOM     12  C   UNL     1      45.958   1.439   8.341  0.00  0.00    +0.000 A 
ATOM     13  C   UNL     1      47.042   1.044   7.559  0.00  0.00    +0.000 A 
ATOM     14  C   UNL     1      47.712   2.011   6.829  0.00  0.00    +0.000 A 
ATOM     15  N   UNL     1      47.376   3.317   6.829  0.00  0.00    +0.000 NA
ATOM     16  C   UNL     1      46.319   3.672   7.594  0.00  0.00    +0.000 A 
ENDBRANCH  10  11
ENDBRANCH   9  10
ENDBRANCH   7   9
ENDBRANCH   5   7
BRANCH   1  17
ATOM     17  C   UNL     1      47.872   6.272  13.955  0.00  0.00    +0.000 C 
BRANCH  17  18
ATOM     18  N   UNL     1      47.396   5.141  14.744  0.00  0.00    +0.000 NA
ATOM     19  H   UNL     1      46.537   4.786  14.329  0.00  0.00    +0.000 HD
ATOM     20  H   UNL     1      47.150   5.474  15.675  0.00  0.00    +0.000 HD
ENDBRANCH  17  18
ENDBRANCH   1  17
TORSDOF 6
ENDMDL
MODEL 7
REMARK VINA RESULT:    -5.933      1.843      6.991
REMARK INTER + INTRA:          -8.392
REMARK INTER:                  -7.948
REMARK INTRA:                  -0.445
REMARK UNBOUND:                -0.552
REMARK  Name = 
REMARK  6 active torsions:
REMARK  status: ('A' for Active; 'I' for Inactive)
REMARK    1  A    between atoms: N_1  and  C_2
REMARK    2  A    between atoms: C_2  and  C_3
REMARK    3  A    between atoms: C_7  and  N_8
REMARK    4  A    between atoms: N_8  and  C_9
REMARK    5  A    between atoms: C_9  and  C_10
REMARK    6  A    between atoms: C_10  and  C_11
REMARK                            x       y       z     vdW  Elec       q    Type
REMARK                         _______ _______ _______ _____ _____    ______ ____
ROOT
ATOM      1  C   UNL     1      47.643   5.098  15.527  0.00  0.00    +0.000 A 
ATOM      2  C   UNL     1      48.108   6.222  14.840  0.00  0.00    +0.000 A 
ATOM      3  C   UNL     1      47.750   6.425  13.511  0.00  0.00    +0.000 A 
ATOM      4  C   UNL     1      46.944   5.493  12.850  0.00  0.00    +0.000 A 
ATOM      5  C   UNL     1      46.504   4.327  13.488  0.00  0.00    +0.000 A 
ATOM      6  C   UNL     1      46.826   4.174  14.845  0.00  0.00    +0.000 A 
ENDROOT
BRANCH   5   7
ATOM      7  N   UNL     1      45.657   3.386  12.872  0.00  0.00    +0.000 N 
ATOM      8  H   UNL     1      46.200   2.760  12.280  0.00  0.00    +0.000 HD
BRANCH   7   9
ATOM      9  C   UNL     1      44.459   3.902  12.201  0.00  0.00    +0.000 C 
BRANCH   9  10
ATOM     10  C   UNL     1      44.004   2.954  11.083  0.00  0.00    +0.000 C 
BRANCH  10  11
ATOM     11  C   UNL     1      44.794   3.171   9.817  0.00  0.00    +0.000 A 
ATOM     12  C   UNL     1      45.280   2.105   9.058  0.00  0.00    +0.000 A 
ATOM     13  C   UNL     1      46.039   2.358   7.916  0.00  0.00    +0.000 A 
ATOM     14  C   UNL     1      46.289   3.676   7.574  0.00  0.00    +0.000 A 
ATOM     15  N   UNL     1      45.841   4.732   8.282  0.00  0.00    +0.000 NA
ATOM     16  C   UNL     1      45.105   4.457   9.383  0.00  0.00    +0.000 A 
ENDBRANCH  10  11
ENDBRANCH   9  10
ENDBRANCH   7   9
ENDBRANCH   5   7
BRANCH   1  17
ATOM     17  C   UNL     1      47.993   4.891  16.978  0.00  0.00    +0.000 C 
BRANCH  17  18
ATOM     18  N   UNL     1      46.809   4.616  17.784  0.00  0.00    +0.000 NA
ATOM     19  H   UNL     1      46.100   4.184  17.194  0.00  0.00    +0.000 HD
ATOM     20  H   UNL     1      46.419   5.502  18.102  0.00  0.00    +0.000 HD
ENDBRANCH  17  18
ENDBRANCH   1  17
TORSDOF 6
ENDMDL
MODEL 8
REMARK VINA RESULT:    -5.388      2.503      6.091
REMARK INTER + INTRA:          -7.672
REMARK INTER:                  -6.996
REMARK INTRA:                  -0.677
REMARK UNBOUND:                -0.552
REMARK  Name = 
REMARK  6 active torsions:
REMARK  status: ('A' for Active; 'I' for Inactive)
REMARK    1  A    between atoms: N_1  and  C_2
REMARK    2  A    between atoms: C_2  and  C_3
REMARK    3  A    between atoms: C_7  and  N_8
REMARK    4  A    between atoms: N_8  and  C_9
REMARK    5  A    between atoms: C_9  and  C_10
REMARK    6  A    between atoms: C_10  and  C_11
REMARK                            x       y       z     vdW  Elec       q    Type
REMARK                         _______ _______ _______ _____ _____    ______ ____
ROOT
ATOM      1  C   UNL     1      47.656   7.298  12.655  0.00  0.00    +0.000 A 
ATOM      2  C   UNL     1      47.558   8.652  12.323  0.00  0.00    +0.000 A 
ATOM      3  C   UNL     1      46.309   9.240  12.154  0.00  0.00    +0.000 A 
ATOM      4  C   UNL     1      45.147   8.475  12.291  0.00  0.00    +0.000 A 
ATOM      5  C   UNL     1      45.205   7.104  12.568  0.00  0.00    +0.000 A 
ATOM      6  C   UNL     1      46.473   6.545  12.794  0.00  0.00    +0.000 A 
ENDROOT
BRANCH   5   7
ATOM      7  N   UNL     1      44.059   6.307  12.755  0.00  0.00    +0.000 N 
ATOM      8  H   UNL     1      44.243   5.588  13.452  0.00  0.00    +0.000 HD
BRANCH   7   9
ATOM      9  C   UNL     1      43.409   5.777  11.552  0.00  0.00    +0.000 C 
BRANCH   9  10
ATOM     10  C   UNL     1      43.591   4.257  11.454  0.00  0.00    +0.000 C 
BRANCH  10  11
ATOM     11  C   UNL     1      44.410   3.874  10.247  0.00  0.00    +0.000 A 
ATOM     12  C   UNL     1      45.135   4.818   9.516  0.00  0.00    +0.000 A 
ATOM     13  C   UNL     1      45.846   4.420   8.386  0.00  0.00    +0.000 A 
ATOM     14  C   UNL     1      45.804   3.085   8.021  0.00  0.00    +0.000 A 
ATOM     15  N   UNL     1      45.113   2.145   8.697  0.00  0.00    +0.000 NA
ATOM     16  C   UNL     1      44.435   2.558   9.791  0.00  0.00    +0.000 A 
ENDBRANCH  10  11
ENDBRANCH   9  10
ENDBRANCH   7   9
ENDBRANCH   5   7
BRANCH   1  17
ATOM     17  C   UNL     1      49.004   6.662  12.878  0.00  0.00    +0.000 C 
BRANCH  17  18
ATOM     18  N   UNL     1      50.050   7.339  12.121  0.00  0.00    +0.000 NA
ATOM     19  H   UNL     1      50.269   8.223  12.576  0.00  0.00    +0.000 HD
ATOM     20  H   UNL     1      49.686   7.572  11.198  0.00  0.00    +0.000 HD
ENDBRANCH  17  18
ENDBRANCH   1  17
TORSDOF 6
ENDMDL
MODEL 9
REMARK VINA RESULT:    -5.306      3.843      6.232
REMARK INTER + INTRA:          -7.563
REMARK INTER:                  -7.249
REMARK INTRA:                  -0.314
REMARK UNBOUND:                -0.552
REMARK  Name = 
REMARK  6 active torsions:
REMARK  status: ('A' for Active; 'I' for Inactive)
REMARK    1  A    between atoms: N_1  and  C_2
REMARK    2  A    between atoms: C_2  and  C_3
REMARK    3  A    between atoms: C_7  and  N_8
REMARK    4  A    between atoms: N_8  and  C_9
REMARK    5  A    between atoms: C_9  and  C_10
REMARK    6  A    between atoms: C_10  and  C_11
REMARK                            x       y       z     vdW  Elec       q    Type
REMARK                         _______ _______ _______ _____ _____    ______ ____
ROOT
ATOM      1  C   UNL     1      45.493   6.221  11.902  0.00  0.00    +0.000 A 
ATOM      2  C   UNL     1      44.930   5.424  10.901  0.00  0.00    +0.000 A 
ATOM      3  C   UNL     1      44.905   4.040  11.042  0.00  0.00    +0.000 A 
ATOM      4  C   UNL     1      45.463   3.439  12.174  0.00  0.00    +0.000 A 
ATOM      5  C   UNL     1      46.085   4.199  13.172  0.00  0.00    +0.000 A 
ATOM      6  C   UNL     1      46.044   5.595  13.038  0.00  0.00    +0.000 A 
ENDROOT
BRANCH   5   7
ATOM      7  N   UNL     1      46.621   3.636  14.346  0.00  0.00    +0.000 N 
ATOM      8  H   UNL     1      45.957   2.981  14.756  0.00  0.00    +0.000 HD
BRANCH   7   9
ATOM      9  C   UNL     1      47.186   4.561  15.334  0.00  0.00    +0.000 C 
BRANCH   9  10
ATOM     10  C   UNL     1      47.285   3.898  16.714  0.00  0.00    +0.000 C 
BRANCH  10  11
ATOM     11  C   UNL     1      48.677   3.384  16.983  0.00  0.00    +0.000 A 
ATOM     12  C   UNL     1      49.628   4.149  17.662  0.00  0.00    +0.000 A 
ATOM     13  C   UNL     1      50.913   3.645  17.853  0.00  0.00    +0.000 A 
ATOM     14  C   UNL     1      51.205   2.388  17.351  0.00  0.00    +0.000 A 
ATOM     15  N   UNL     1      50.317   1.621  16.687  0.00  0.00    +0.000 NA
ATOM     16  C   UNL     1      49.077   2.134  16.520  0.00  0.00    +0.000 A 
ENDBRANCH  10  11
ENDBRANCH   9  10
ENDBRANCH   7   9
ENDBRANCH   5   7
BRANCH   1  17
ATOM     17  C   UNL     1      45.489   7.722  11.776  0.00  0.00    +0.000 C 
BRANCH  17  18
ATOM     18  N   UNL     1      44.137   8.245  11.614  0.00  0.00    +0.000 NA
ATOM     19  H   UNL     1      43.470   7.489  11.753  0.00  0.00    +0.000 HD
ATOM     20  H   UNL     1      44.022   8.558  10.651  0.00  0.00    +0.000 HD
ENDBRANCH  17  18
ENDBRANCH   1  17
TORSDOF 6
ENDMDL
