MODEL 1
REMARK VINA RESULT:    -8.216      0.000      0.000
REMARK INTER + INTRA:         -11.657
REMARK INTER:                 -10.858
REMARK INTRA:                  -0.799
REMARK UNBOUND:                -0.799
REMARK  Name = 
REMARK  6 active torsions:
REMARK  status: ('A' for Active; 'I' for Inactive)
REMARK    1  A    between atoms: N_1  and  C_2
REMARK    2  A    between atoms: C_2  and  C_3
REMARK    3  A    between atoms: C_3  and  C_4
REMARK    4  A    between atoms: C_8  and  C_9
REMARK    5  A    between atoms: C_9  and  N_10
REMARK    6  A    between atoms: C_15  and  C_16
REMARK                            x       y       z     vdW  Elec       q    Type
REMARK                         _______ _______ _______ _____ _____    ______ ____
ROOT
ATOM      1  N   UNL     1      44.027   4.385  10.718  0.00  0.00    +0.000 N 
ATOM      2  C   UNL     1      43.491   3.260  11.305  0.00  0.00    +0.000 A 
ATOM      3  C   UNL     1      43.992   2.158  10.654  0.00  0.00    +0.000 A 
ATOM      4  C   UNL     1      44.849   2.618   9.621  0.00  0.00    +0.000 A 
ATOM      5  C   UNL     1      45.588   1.966   8.616  0.00  0.00    +0.000 A 
ATOM      6  C   UNL     1      46.327   2.715   7.682  0.00  0.00    +0.000 A 
ATOM      7  C   UNL     1      46.331   4.113   7.770  0.00  0.00    +0.000 A 
ATOM      8  C   UNL     1      45.624   4.781   8.780  0.00  0.00    +0.000 A 
ATOM      9  C   UNL     1      44.872   4.014   9.686  0.00  0.00    +0.000 A 
ENDROOT
BRANCH   6  10
ATOM     10  C   UNL     1      47.091   2.005   6.593  0.00  0.00    +0.000 C 
ATOM     11  F   UNL     1      46.819   0.669   6.537  0.00  0.00    +0.000 F 
ATOM     12  F   UNL     1      46.816   2.487   5.349  0.00  0.00    +0.000 F 
ATOM     13  F   UNL     1      48.442   2.098   6.740  0.00  0.00    +0.000 F 
ENDBRANCH   6  10
BRANCH   1  14
ATOM     14  C   UNL     1      43.602   5.748  11.028  0.00  0.00    +0.000 C 
BRANCH  14  19
ATOM     15  C   UNL     1      46.570   6.545  13.082  0.00  0.00    +0.000 A 
ATOM     16  C   UNL     1      46.759   7.907  12.915  0.00  0.00    +0.000 A 
ATOM     17  C   UNL     1      45.834   8.624  12.164  0.00  0.00    +0.000 A 
ATOM     18  C   UNL     1      44.754   7.945  11.598  0.00  0.00    +0.000 A 
ATOM     19  C   UNL     1      44.652   6.564  11.749  0.00  0.00    +0.000 A 
ATOM     20  N   UNL     1      45.560   5.861  12.482  0.00  0.00    +0.000 NA
BRANCH  15  21
ATOM     21  C   UNL     1      47.521   5.767  13.956  0.00  0.00    +0.000 C 
BRANCH  21  22
ATOM     22  C   UNL     1      46.824   4.579  14.611  0.00  0.00    +0.000 C 
BRANCH  22  23
ATOM     23  N   UNL     1      47.196   3.326  13.953  0.00  0.00    +0.000 NA
ATOM     24  H   UNL     1      46.572   2.585  14.269  0.00  0.00    +0.000 HD
ATOM     25  H   UNL     1      48.132   3.053  14.254  0.00  0.00    +0.000 HD
ENDBRANCH  22  23
ENDBRANCH  21  22
ENDBRANCH  15  21
ENDBRANCH  14  19
ENDBRANCH   1  14
TORSDOF 6
ENDMDL
MODEL 2
REMARK VINA RESULT:    -7.911      1.483      2.952
REMARK INTER + INTRA:         -11.254
REMARK INTER:                 -10.398
REMARK INTRA:                  -0.856
REMARK UNBOUND:                -0.799
REMARK  Name = 
REMARK  6 active torsions:
REMARK  status: ('A' for Active; 'I' for Inactive)
REMARK    1  A    between atoms: N_1  and  C_2
REMARK    2  A    between atoms: C_2  and  C_3
REMARK    3  A    between atoms: C_3  and  C_4
REMARK    4  A    between atoms: C_8  and  C_9
REMARK    5  A    between atoms: C_9  and  N_10
REMARK    6  A    between atoms: C_15  and  C_16
REMARK                            x       y       z     vdW  Elec       q    Type
REMARK                         _______ _______ _______ _____ _____    ______ ____
ROOT
ATOM      1  N   UNL     1      44.006   4.438  10.737  0.00  0.00    +0.000 N 
ATOM      2  C   UNL     1      43.475   3.328  11.357  0.00  0.00    +0.000 A 
ATOM      3  C   UNL     1      43.974   2.209  10.733  0.00  0.00    +0.000 A 
ATOM      4  C   UNL     1      44.825   2.642   9.684  0.00  0.00    +0.000 A 
ATOM      5  C   UNL     1      45.560   1.965   8.693  0.00  0.00    +0.000 A 
ATOM      6  C   UNL     1      46.294   2.689   7.736  0.00  0.00    +0.000 A 
ATOM      7  C   UNL     1      46.296   4.089   7.785  0.00  0.00    +0.000 A 
ATOM      8  C   UNL     1      45.593   4.783   8.781  0.00  0.00    +0.000 A 
ATOM      9  C   UNL     1      44.847   4.040   9.711  0.00  0.00    +0.000 A 
ENDROOT
BRANCH   6  10
ATOM     10  C   UNL     1      47.053   1.950   6.662  0.00  0.00    +0.000 C 
ATOM     11  F   UNL     1      48.406   2.059   6.797  0.00  0.00    +0.000 F 
ATOM     12  F   UNL     1      46.792   0.614   6.650  0.00  0.00    +0.000 F 
ATOM     13  F   UNL     1      46.772   2.397   5.406  0.00  0.00    +0.000 F 
ENDBRANCH   6  10
BRANCH   1  14
ATOM     14  C   UNL     1      43.581   5.808  11.013  0.00  0.00    +0.000 C 
BRANCH  14  19
ATOM     15  C   UNL     1      45.451   8.822  12.053  0.00  0.00    +0.000 A 
ATOM     16  C   UNL     1      46.412   8.355  12.932  0.00  0.00    +0.000 A 
ATOM     17  C   UNL     1      46.518   6.983  13.142  0.00  0.00    +0.000 A 
ATOM     18  C   UNL     1      45.645   6.129  12.466  0.00  0.00    +0.000 A 
ATOM     19  C   UNL     1      44.657   6.664  11.643  0.00  0.00    +0.000 A 
ATOM     20  N   UNL     1      44.552   8.007  11.440  0.00  0.00    +0.000 NA
BRANCH  15  21
ATOM     21  C   UNL     1      45.373  10.299  11.757  0.00  0.00    +0.000 C 
BRANCH  21  22
ATOM     22  C   UNL     1      44.027  10.669  11.141  0.00  0.00    +0.000 C 
BRANCH  22  23
ATOM     23  N   UNL     1      42.979  10.711  12.162  0.00  0.00    +0.000 NA
ATOM     24  H   UNL     1      42.759   9.760  12.454  0.00  0.00    +0.000 HD
ATOM     25  H   UNL     1      42.123  11.084  11.751  0.00  0.00    +0.000 HD
ENDBRANCH  22  23
ENDBRANCH  21  22
ENDBRANCH  15  21
ENDBRANCH  14  19
ENDBRANCH   1  14
TORSDOF 6
ENDMDL
MODEL 3
REMARK VINA RESULT:    -7.573      1.036      1.411
REMARK INTER + INTRA:         -10.808
REMARK INTER:                 -10.195
REMARK INTRA:                  -0.613
REMARK UNBOUND:                -0.799
REMARK  Name = 
REMARK  6 active torsions:
REMARK  status: ('A' for Active; 'I' for Inactive)
REMARK    1  A    between atoms: N_1  and  C_2
REMARK    2  A    between atoms: C_2  and  C_3
REMARK    3  A    between atoms: C_3  and  C_4
REMARK    4  A    between atoms: C_8  and  C_9
REMARK    5  A    between atoms: C_9  and  N_10
REMARK    6  A    between atoms: C_15  and  C_16
REMARK                            x       y       z     vdW  Elec       q    Type
REMARK                         _______ _______ _______ _____ _____    ______ ____
ROOT
ATOM      1  N   UNL     1      43.876   4.547  10.885  0.00  0.00    +0.000 N 
ATOM      2  C   UNL     1      43.314   3.446  11.494  0.00  0.00    +0.000 A 
ATOM      3  C   UNL     1      43.790   2.320  10.865  0.00  0.00    +0.000 A 
ATOM      4  C   UNL     1      44.659   2.740   9.825  0.00  0.00    +0.000 A 
ATOM      5  C   UNL     1      45.384   2.052   8.834  0.00  0.00    +0.000 A 
ATOM      6  C   UNL     1      46.142   2.765   7.888  0.00  0.00    +0.000 A 
ATOM      7  C   UNL     1      46.177   4.164   7.947  0.00  0.00    +0.000 A 
ATOM      8  C   UNL     1      45.484   4.868   8.943  0.00  0.00    +0.000 A 
ATOM      9  C   UNL     1      44.714   4.136   9.862  0.00  0.00    +0.000 A 
ENDROOT
BRANCH   6  10
ATOM     10  C   UNL     1      46.891   2.016   6.814  0.00  0.00    +0.000 C 
ATOM     11  F   UNL     1      48.236   2.243   6.846  0.00  0.00    +0.000 F 
ATOM     12  F   UNL     1      46.744   0.665   6.907  0.00  0.00    +0.000 F 
ATOM     13  F   UNL     1      46.493   2.350   5.554  0.00  0.00    +0.000 F 
ENDBRANCH   6  10
BRANCH   1  14
ATOM     14  C   UNL     1      43.481   5.925  11.168  0.00  0.00    +0.000 C 
BRANCH  14  19
ATOM     15  C   UNL     1      46.590   6.799  12.966  0.00  0.00    +0.000 A 
ATOM     16  C   UNL     1      46.792   8.141  12.690  0.00  0.00    +0.000 A 
ATOM     17  C   UNL     1      45.833   8.824  11.949  0.00  0.00    +0.000 A 
ATOM     18  C   UNL     1      44.706   8.131  11.504  0.00  0.00    +0.000 A 
ATOM     19  C   UNL     1      44.591   6.767  11.759  0.00  0.00    +0.000 A 
ATOM     20  N   UNL     1      45.532   6.097  12.482  0.00  0.00    +0.000 NA
BRANCH  15  21
ATOM     21  C   UNL     1      47.583   6.064  13.831  0.00  0.00    +0.000 C 
BRANCH  21  22
ATOM     22  C   UNL     1      48.483   7.036  14.587  0.00  0.00    +0.000 C 
BRANCH  22  23
ATOM     23  N   UNL     1      49.877   6.894  14.165  0.00  0.00    +0.000 NA
ATOM     24  H   UNL     1      49.903   6.473  13.237  0.00  0.00    +0.000 HD
ATOM     25  H   UNL     1      50.351   6.236  14.785  0.00  0.00    +0.000 HD
ENDBRANCH  22  23
ENDBRANCH  21  22
ENDBRANCH  15  21
ENDBRANCH  14  19
ENDBRANCH   1  14
TORSDOF 6
ENDMDL
MODEL 4
REMARK VINA RESULT:    -7.230      3.904      6.663
REMARK INTER + INTRA:         -10.355
REMARK INTER:                  -9.853
REMARK INTRA:                  -0.502
REMARK UNBOUND:                -0.799
REMARK  Name = 
REMARK  6 active torsions:
REMARK  status: ('A' for Active; 'I' for Inactive)
REMARK    1  A    between atoms: N_1  and  C_2
REMARK    2  A    between atoms: C_2  and  C_3
REMARK    3  A    between atoms: C_3  and  C_4
REMARK    4  A    between atoms: C_8  and  C_9
REMARK    5  A    between atoms: C_9  and  N_10
REMARK    6  A    between atoms: C_15  and  C_16
REMARK                            x       y       z     vdW  Elec       q    Type
REMARK                         _______ _______ _______ _____ _____    ______ ____
ROOT
ATOM      1  N   UNL     1      44.012   4.835  11.141  0.00  0.00    +0.000 N 
ATOM      2  C   UNL     1      43.317   4.162  12.122  0.00  0.00    +0.000 A 
ATOM      3  C   UNL     1      43.973   4.350  13.316  0.00  0.00    +0.000 A 
ATOM      4  C   UNL     1      45.117   5.149  13.059  0.00  0.00    +0.000 A 
ATOM      5  C   UNL     1      46.172   5.615  13.866  0.00  0.00    +0.000 A 
ATOM      6  C   UNL     1      47.217   6.369  13.302  0.00  0.00    +0.000 A 
ATOM      7  C   UNL     1      47.192   6.661  11.932  0.00  0.00    +0.000 A 
ATOM      8  C   UNL     1      46.137   6.231  11.115  0.00  0.00    +0.000 A 
ATOM      9  C   UNL     1      45.117   5.457  11.695  0.00  0.00    +0.000 A 
ENDROOT
BRANCH   6  10
ATOM     10  C   UNL     1      48.355   6.837  14.174  0.00  0.00    +0.000 C 
ATOM     11  F   UNL     1      49.518   7.012  13.481  0.00  0.00    +0.000 F 
ATOM     12  F   UNL     1      48.105   8.031  14.778  0.00  0.00    +0.000 F 
ATOM     13  F   UNL     1      48.653   5.965  15.176  0.00  0.00    +0.000 F 
ENDBRANCH   6  10
BRANCH   1  14
ATOM     14  C   UNL     1      43.714   4.731   9.714  0.00  0.00    +0.000 C 
BRANCH  14  19
ATOM     15  C   UNL     1      46.208   3.266   7.413  0.00  0.00    +0.000 A 
ATOM     16  C   UNL     1      46.278   1.931   7.772  0.00  0.00    +0.000 A 
ATOM     17  C   UNL     1      45.417   1.456   8.756  0.00  0.00    +0.000 A 
ATOM     18  C   UNL     1      44.521   2.344   9.352  0.00  0.00    +0.000 A 
ATOM     19  C   UNL     1      44.542   3.690   8.993  0.00  0.00    +0.000 A 
ATOM     20  N   UNL     1      45.387   4.155   8.032  0.00  0.00    +0.000 NA
BRANCH  15  21
ATOM     21  C   UNL     1      47.082   3.779   6.296  0.00  0.00    +0.000 C 
BRANCH  21  22
ATOM     22  C   UNL     1      47.252   2.729   5.202  0.00  0.00    +0.000 C 
BRANCH  22  23
ATOM     23  N   UNL     1      48.477   1.956   5.406  0.00  0.00    +0.000 NA
ATOM     24  H   UNL     1      49.198   2.300   4.772  0.00  0.00    +0.000 HD
ATOM     25  H   UNL     1      48.312   0.984   5.140  0.00  0.00    +0.000 HD
ENDBRANCH  22  23
ENDBRANCH  21  22
ENDBRANCH  15  21
ENDBRANCH  14  19
ENDBRANCH   1  14
TORSDOF 6
ENDMDL
MODEL 5
REMARK VINA RESULT:    -7.069      4.073      6.965
REMARK INTER + INTRA:         -10.142
REMARK INTER:                  -9.524
REMARK INTRA:                  -0.617
REMARK UNBOUND:                -0.799
REMARK  Name = 
REMARK  6 active torsions:
REMARK  status: ('A' for Active; 'I' for Inactive)
REMARK    1  A    between atoms: N_1  and  C_2
REMARK    2  A    between atoms: C_2  and  C_3
REMARK    3  A    between atoms: C_3  and  C_4
REMARK    4  A    between atoms: C_8  and  C_9
REMARK    5  A    between atoms: C_9  and  N_10
REMARK    6  A    between atoms: C_15  and  C_16
REMARK                            x       y       z     vdW  Elec       q    Type
REMARK                         _______ _______ _______ _____ _____    ______ ____
ROOT
ATOM      1  N   UNL     1      45.264   5.896  11.158  0.00  0.00    +0.000 N 
ATOM      2  C   UNL     1      45.732   7.189  11.078  0.00  0.00    +0.000 A 
ATOM      3  C   UNL     1      46.575   7.405  12.143  0.00  0.00    +0.000 A 
ATOM      4  C   UNL     1      46.614   6.214  12.913  0.00  0.00    +0.000 A 
ATOM      5  C   UNL     1      47.250   5.862  14.117  0.00  0.00    +0.000 A 
ATOM      6  C   UNL     1      47.057   4.585  14.674  0.00  0.00    +0.000 A 
ATOM      7  C   UNL     1      46.235   3.664  14.013  0.00  0.00    +0.000 A 
ATOM      8  C   UNL     1      45.612   3.984  12.798  0.00  0.00    +0.000 A 
ATOM      9  C   UNL     1      45.800   5.274  12.273  0.00  0.00    +0.000 A 
ENDROOT
BRANCH   6  10
ATOM     10  C   UNL     1      47.723   4.231  15.981  0.00  0.00    +0.000 C 
ATOM     11  F   UNL     1      46.882   4.335  17.050  0.00  0.00    +0.000 F 
ATOM     12  F   UNL     1      48.196   2.954  16.008  0.00  0.00    +0.000 F 
ATOM     13  F   UNL     1      48.786   5.031  16.271  0.00  0.00    +0.000 F 
ENDBRANCH   6  10
BRANCH   1  14
ATOM     14  C   UNL     1      44.215   5.354  10.297  0.00  0.00    +0.000 C 
BRANCH  14  19
ATOM     15  C   UNL     1      46.025   3.383   7.747  0.00  0.00    +0.000 A 
ATOM     16  C   UNL     1      45.730   2.064   8.046  0.00  0.00    +0.000 A 
ATOM     17  C   UNL     1      44.834   1.795   9.076  0.00  0.00    +0.000 A 
ATOM     18  C   UNL     1      44.273   2.863   9.777  0.00  0.00    +0.000 A 
ATOM     19  C   UNL     1      44.659   4.166   9.472  0.00  0.00    +0.000 A 
ATOM     20  N   UNL     1      45.537   4.429   8.465  0.00  0.00    +0.000 NA
BRANCH  15  21
ATOM     21  C   UNL     1      46.934   3.693   6.585  0.00  0.00    +0.000 C 
BRANCH  21  22
ATOM     22  C   UNL     1      47.129   2.470   5.694  0.00  0.00    +0.000 C 
BRANCH  22  23
ATOM     23  N   UNL     1      48.524   2.027   5.712  0.00  0.00    +0.000 NA
ATOM     24  H   UNL     1      48.768   1.730   6.656  0.00  0.00    +0.000 HD
ATOM     25  H   UNL     1      49.132   2.819   5.500  0.00  0.00    +0.000 HD
ENDBRANCH  22  23
ENDBRANCH  21  22
ENDBRANCH  15  21
ENDBRANCH  14  19
ENDBRANCH   1  14
TORSDOF 6
ENDMDL
MODEL 6
REMARK VINA RESULT:    -6.604      3.636      5.819
REMARK INTER + INTRA:          -9.526
REMARK INTER:                  -8.623
REMARK INTRA:                  -0.903
REMARK UNBOUND:                -0.799
REMARK  Name = 
REMARK  6 active torsions:
REMARK  status: ('A' for Active; 'I' for Inactive)
REMARK    1  A    between atoms: N_1  and  C_2
REMARK    2  A    between atoms: C_2  and  C_3
REMARK    3  A    between atoms: C_3  and  C_4
REMARK    4  A    between atoms: C_8  and  C_9
REMARK    5  A    between atoms: C_9  and  N_10
REMARK    6  A    between atoms: C_15  and  C_16
REMARK                            x       y       z     vdW  Elec       q    Type
REMARK                         _______ _______ _______ _____ _____    ______ ____
ROOT
ATOM      1  N   UNL     1      47.468   7.244  13.735  0.00  0.00    +0.000 N 
ATOM      2  C   UNL     1      47.005   8.517  13.484  0.00  0.00    +0.000 A 
ATOM      3  C   UNL     1      45.783   8.413  12.862  0.00  0.00    +0.000 A 
ATOM      4  C   UNL     1      45.492   7.033  12.709  0.00  0.00    +0.000 A 
ATOM      5  C   UNL     1      44.431   6.329  12.111  0.00  0.00    +0.000 A 
ATOM      6  C   UNL     1      44.444   4.923  12.074  0.00  0.00    +0.000 A 
ATOM      7  C   UNL     1      45.517   4.230  12.648  0.00  0.00    +0.000 A 
ATOM      8  C   UNL     1      46.572   4.910  13.273  0.00  0.00    +0.000 A 
ATOM      9  C   UNL     1      46.550   6.315  13.276  0.00  0.00    +0.000 A 
ENDROOT
BRANCH   6  10
ATOM     10  C   UNL     1      43.313   4.183  11.404  0.00  0.00    +0.000 C 
ATOM     11  F   UNL     1      43.565   3.902  10.093  0.00  0.00    +0.000 F 
ATOM     12  F   UNL     1      43.040   2.984  11.990  0.00  0.00    +0.000 F 
ATOM     13  F   UNL     1      42.142   4.878  11.411  0.00  0.00    +0.000 F 
ENDBRANCH   6  10
BRANCH   1  14
ATOM     14  C   UNL     1      48.809   6.948  14.234  0.00  0.00    +0.000 C 
BRANCH  14  19
ATOM     15  C   UNL     1      49.061   5.040  17.390  0.00  0.00    +0.000 A 
ATOM     16  C   UNL     1      49.190   6.003  18.375  0.00  0.00    +0.000 A 
ATOM     17  C   UNL     1      49.112   7.345  18.015  0.00  0.00    +0.000 A 
ATOM     18  C   UNL     1      48.915   7.671  16.672  0.00  0.00    +0.000 A 
ATOM     19  C   UNL     1      48.857   6.658  15.718  0.00  0.00    +0.000 A 
ATOM     20  N   UNL     1      48.936   5.345  16.071  0.00  0.00    +0.000 NA
BRANCH  15  21
ATOM     21  C   UNL     1      49.067   3.582  17.775  0.00  0.00    +0.000 C 
BRANCH  21  22
ATOM     22  C   UNL     1      47.987   2.808  17.025  0.00  0.00    +0.000 C 
BRANCH  22  23
ATOM     23  N   UNL     1      46.652   3.203  17.474  0.00  0.00    +0.000 NA
ATOM     24  H   UNL     1      45.958   2.824  16.832  0.00  0.00    +0.000 HD
ATOM     25  H   UNL     1      46.564   4.218  17.416  0.00  0.00    +0.000 HD
ENDBRANCH  22  23
ENDBRANCH  21  22
ENDBRANCH  15  21
ENDBRANCH  14  19
ENDBRANCH   1  14
TORSDOF 6
ENDMDL
MODEL 7
REMARK VINA RESULT:    -5.733      1.996      2.715
REMARK INTER + INTRA:          -8.376
REMARK INTER:                  -7.664
REMARK INTRA:                  -0.713
REMARK UNBOUND:                -0.799
REMARK  Name = 
REMARK  6 active torsions:
REMARK  status: ('A' for Active; 'I' for Inactive)
REMARK    1  A    between atoms: N_1  and  C_2
REMARK    2  A    between atoms: C_2  and  C_3
REMARK    3  A    between atoms: C_3  and  C_4
REMARK    4  A    between atoms: C_8  and  C_9
REMARK    5  A    between atoms: C_9  and  N_10
REMARK    6  A    between atoms: C_15  and  C_16
REMARK                            x       y       z     vdW  Elec       q    Type
REMARK                         _______ _______ _______ _____ _____    ______ ____
ROOT
ATOM      1  N   UNL     1      45.191   6.200  12.434  0.00  0.00    +0.000 N 
ATOM      2  C   UNL     1      44.451   5.355  13.233  0.00  0.00    +0.000 A 
ATOM      3  C   UNL     1      44.201   4.205  12.522  0.00  0.00    +0.000 A 
ATOM      4  C   UNL     1      44.789   4.352  11.240  0.00  0.00    +0.000 A 
ATOM      5  C   UNL     1      44.817   3.541  10.090  0.00  0.00    +0.000 A 
ATOM      6  C   UNL     1      45.460   3.990   8.922  0.00  0.00    +0.000 A 
ATOM      7  C   UNL     1      46.081   5.245   8.917  0.00  0.00    +0.000 A 
ATOM      8  C   UNL     1      46.089   6.058  10.060  0.00  0.00    +0.000 A 
ATOM      9  C   UNL     1      45.419   5.600  11.207  0.00  0.00    +0.000 A 
ENDROOT
BRANCH   6  10
ATOM     10  C   UNL     1      45.457   3.122   7.688  0.00  0.00    +0.000 C 
ATOM     11  F   UNL     1      44.233   3.056   7.088  0.00  0.00    +0.000 F 
ATOM     12  F   UNL     1      46.314   3.562   6.726  0.00  0.00    +0.000 F 
ATOM     13  F   UNL     1      45.811   1.831   7.943  0.00  0.00    +0.000 F 
ENDBRANCH   6  10
BRANCH   1  14
ATOM     14  C   UNL     1      45.506   7.584  12.783  0.00  0.00    +0.000 C 
BRANCH  14  19
ATOM     15  C   UNL     1      48.882   7.378  14.275  0.00  0.00    +0.000 A 
ATOM     16  C   UNL     1      49.708   8.019  13.368  0.00  0.00    +0.000 A 
ATOM     17  C   UNL     1      49.137   8.623  12.252  0.00  0.00    +0.000 A 
ATOM     18  C   UNL     1      47.753   8.551  12.082  0.00  0.00    +0.000 A 
ATOM     19  C   UNL     1      46.983   7.837  12.995  0.00  0.00    +0.000 A 
ATOM     20  N   UNL     1      47.542   7.244  14.086  0.00  0.00    +0.000 NA
BRANCH  15  21
ATOM     21  C   UNL     1      49.476   6.786  15.528  0.00  0.00    +0.000 C 
BRANCH  21  22
ATOM     22  C   UNL     1      48.464   5.907  16.257  0.00  0.00    +0.000 C 
BRANCH  22  23
ATOM     23  N   UNL     1      49.000   4.563  16.475  0.00  0.00    +0.000 NA
ATOM     24  H   UNL     1      48.985   4.051  15.594  0.00  0.00    +0.000 HD
ATOM     25  H   UNL     1      48.383   4.053  17.107  0.00  0.00    +0.000 HD
ENDBRANCH  22  23
ENDBRANCH  21  22
ENDBRANCH  15  21
ENDBRANCH  14  19
ENDBRANCH   1  14
TORSDOF 6
ENDMDL
MODEL 8
REMARK VINA RESULT:    -5.552      2.686      3.496
REMARK INTER + INTRA:          -8.136
REMARK INTER:                  -7.587
REMARK INTRA:                  -0.549
REMARK UNBOUND:                -0.799
REMARK  Name = 
REMARK  6 active torsions:
REMARK  status: ('A' for Active; 'I' for Inactive)
REMARK    1  A    between atoms: N_1  and  C_2
REMARK    2  A    between atoms: C_2  and  C_3
REMARK    3  A    between atoms: C_3  and  C_4
REMARK    4  A    between atoms: C_8  and  C_9
REMARK    5  A    between atoms: C_9  and  N_10
REMARK    6  A    between atoms: C_15  and  C_16
REMARK                            x       y       z     vdW  Elec       q    Type
REMARK                         _______ _______ _______ _____ _____    ______ ____
ROOT
ATOM      1  N   UNL     1      45.430   6.318  12.482  0.00  0.00    +0.000 N 
ATOM      2  C   UNL     1      45.368   5.551  13.625  0.00  0.00    +0.000 A 
ATOM      3  C   UNL     1      45.343   4.228  13.252  0.00  0.00    +0.000 A 
ATOM      4  C   UNL     1      45.372   4.178  11.835  0.00  0.00    +0.000 A 
ATOM      5  C   UNL     1      45.315   3.125  10.903  0.00  0.00    +0.000 A 
ATOM      6  C   UNL     1      45.316   3.398   9.523  0.00  0.00    +0.000 A 
ATOM      7  C   UNL     1      45.386   4.727   9.085  0.00  0.00    +0.000 A 
ATOM      8  C   UNL     1      45.471   5.790   9.995  0.00  0.00    +0.000 A 
ATOM      9  C   UNL     1      45.442   5.495  11.369  0.00  0.00    +0.000 A 
ENDROOT
BRANCH   6  10
ATOM     10  C   UNL     1      45.226   2.260   8.537  0.00  0.00    +0.000 C 
ATOM     11  F   UNL     1      46.381   1.539   8.449  0.00  0.00    +0.000 F 
ATOM     12  F   UNL     1      44.254   1.360   8.852  0.00  0.00    +0.000 F 
ATOM     13  F   UNL     1      44.955   2.674   7.268  0.00  0.00    +0.000 F 
ENDBRANCH   6  10
BRANCH   1  14
ATOM     14  C   UNL     1      45.304   7.774  12.468  0.00  0.00    +0.000 C 
BRANCH  14  19
ATOM     15  C   UNL     1      48.910   8.308  11.853  0.00  0.00    +0.000 A 
ATOM     16  C   UNL     1      49.023   9.659  11.569  0.00  0.00    +0.000 A 
ATOM     17  C   UNL     1      47.889  10.459  11.660  0.00  0.00    +0.000 A 
ATOM     18  C   UNL     1      46.676   9.871  12.023  0.00  0.00    +0.000 A 
ATOM     19  C   UNL     1      46.613   8.496  12.233  0.00  0.00    +0.000 A 
ATOM     20  N   UNL     1      47.723   7.712  12.142  0.00  0.00    +0.000 NA
BRANCH  15  21
ATOM     21  C   UNL     1      50.144   7.442  11.834  0.00  0.00    +0.000 C 
BRANCH  21  22
ATOM     22  C   UNL     1      51.245   8.067  10.982  0.00  0.00    +0.000 C 
BRANCH  22  23
ATOM     23  N   UNL     1      52.252   7.071  10.616  0.00  0.00    +0.000 NA
ATOM     24  H   UNL     1      52.360   6.409  11.383  0.00  0.00    +0.000 HD
ATOM     25  H   UNL     1      53.157   7.529  10.511  0.00  0.00    +0.000 HD
ENDBRANCH  22  23
ENDBRANCH  21  22
ENDBRANCH  15  21
ENDBRANCH  14  19
ENDBRANCH   1  14
TORSDOF 6
ENDMDL
MODEL 9
REMARK VINA RESULT:    -5.534      4.500      5.907
REMARK INTER + INTRA:          -8.113
REMARK INTER:                  -7.492
REMARK INTRA:                  -0.621
REMARK UNBOUND:                -0.799
REMARK  Name = 
REMARK  6 active torsions:
REMARK  status: ('A' for Active; 'I' for Inactive)
REMARK    1  A    between atoms: N_1  and  C_2
REMARK    2  A    between atoms: C_2  and  C_3
REMARK    3  A    between atoms: C_3  and  C_4
REMARK    4  A    between atoms: C_8  and  C_9
REMARK    5  A    between atoms: C_9  and  N_10
REMARK    6  A    between atoms: C_15  and  C_16
REMARK                            x       y       z     vdW  Elec       q    Type
REMARK                         _______ _______ _______ _____ _____    ______ ____
ROOT
ATOM      1  N   UNL     1      47.927   7.032  12.845  0.00  0.00    +0.000 N 
ATOM      2  C   UNL     1      48.244   6.590  14.112  0.00  0.00    +0.000 A 
ATOM      3  C   UNL     1      47.465   5.493  14.390  0.00  0.00    +0.000 A 
ATOM      4  C   UNL     1      46.628   5.261  13.268  0.00  0.00    +0.000 A 
ATOM      5  C   UNL     1      45.608   4.329  12.998  0.00  0.00    +0.000 A 
ATOM      6  C   UNL     1      44.907   4.379  11.779  0.00  0.00    +0.000 A 
ATOM      7  C   UNL     1      45.241   5.355  10.833  0.00  0.00    +0.000 A 
ATOM      8  C   UNL     1      46.273   6.276  11.069  0.00  0.00    +0.000 A 
ATOM      9  C   UNL     1      46.942   6.223  12.304  0.00  0.00    +0.000 A 
ENDROOT
BRANCH   6  10
ATOM     10  C   UNL     1      43.797   3.392  11.517  0.00  0.00    +0.000 C 
ATOM     11  F   UNL     1      43.625   2.501  12.535  0.00  0.00    +0.000 F 
ATOM     12  F   UNL     1      42.585   3.989  11.343  0.00  0.00    +0.000 F 
ATOM     13  F   UNL     1      44.005   2.638  10.402  0.00  0.00    +0.000 F 
ENDBRANCH   6  10
BRANCH   1  14
ATOM     14  C   UNL     1      48.427   8.277  12.267  0.00  0.00    +0.000 C 
BRANCH  14  19
ATOM     15  C   UNL     1      51.796   7.767  10.832  0.00  0.00    +0.000 A 
ATOM     16  C   UNL     1      52.637   8.528  11.627  0.00  0.00    +0.000 A 
ATOM     17  C   UNL     1      52.103   9.177  12.736  0.00  0.00    +0.000 A 
ATOM     18  C   UNL     1      50.739   9.047  13.001  0.00  0.00    +0.000 A 
ATOM     19  C   UNL     1      49.933   8.321  12.128  0.00  0.00    +0.000 A 
ATOM     20  N   UNL     1      50.455   7.687  11.041  0.00  0.00    +0.000 NA
BRANCH  15  21
ATOM     21  C   UNL     1      52.372   6.996   9.671  0.00  0.00    +0.000 C 
BRANCH  21  22
ATOM     22  C   UNL     1      53.773   6.484   9.990  0.00  0.00    +0.000 C 
BRANCH  22  23
ATOM     23  N   UNL     1      53.722   5.128  10.538  0.00  0.00    +0.000 NA
ATOM     24  H   UNL     1      53.879   5.169  11.545  0.00  0.00    +0.000 HD
ATOM     25  H   UNL     1      54.494   4.581  10.157  0.00  0.00    +0.000 HD
ENDBRANCH  22  23
ENDBRANCH  21  22
ENDBRANCH  15  21
ENDBRANCH  14  19
ENDBRANCH   1  14
TORSDOF 6
ENDMDL
