MODEL 1
REMARK VINA RESULT:    -8.014      0.000      0.000
REMARK INTER + INTRA:         -11.840
REMARK INTER:                 -10.824
REMARK INTRA:                  -1.015
REMARK UNBOUND:                -1.015
REMARK  Name = 
REMARK  8 active torsions:
REMARK  status: ('A' for Active; 'I' for Inactive)
REMARK    1  A    between atoms: C_1  and  O_2
REMARK    2  A    between atoms: O_2  and  C_3
REMARK    3  A    between atoms: C_5  and  C_6
REMARK    4  A    between atoms: C_11  and  N_12
REMARK    5  A    between atoms: N_12  and  C_13
REMARK    6  A    between atoms: C_13  and  C_14
REMARK    7  A    between atoms: C_18  and  C_19
REMARK    8  A    between atoms: C_23  and  C_24
REMARK                            x       y       z     vdW  Elec       q    Type
REMARK                         _______ _______ _______ _____ _____    ______ ____
ROOT
ATOM      1  N   UNL     1      44.617   7.422  12.640  0.00  0.00    +0.000 N 
ATOM      2  H   UNL     1      44.138   8.010  13.295  0.00  0.00    +0.000 HD
ENDROOT
BRANCH   1   8
ATOM      3  C   UNL     1      46.806   6.428  13.131  0.00  0.00    +0.000 A 
ATOM      4  C   UNL     1      48.192   6.583  13.087  0.00  0.00    +0.000 A 
ATOM      5  C   UNL     1      48.764   7.723  12.534  0.00  0.00    +0.000 A 
ATOM      6  C   UNL     1      47.896   8.676  12.025  0.00  0.00    +0.000 A 
ATOM      7  N   UNL     1      46.553   8.572  12.066  0.00  0.00    +0.000 NA
ATOM      8  C   UNL     1      45.996   7.489  12.634  0.00  0.00    +0.000 A 
BRANCH   5   9
ATOM      9  C   UNL     1      50.233   7.843  12.482  0.00  0.00    +0.000 C 
ATOM     10  N   UNL     1      50.911   7.343  11.411  0.00  0.00    +0.000 N 
ATOM     11  O   UNL     1      50.853   8.393  13.396  0.00  0.00    +0.000 OA
ATOM     12  H   UNL     1      50.510   6.873  10.616  0.00  0.00    +0.000 HD
ATOM     13  H   UNL     1      51.918   7.446  11.429  0.00  0.00    +0.000 HD
ENDBRANCH   5   9
BRANCH   3  15
ATOM     14  C   UNL     1      46.957   4.619  14.629  0.00  0.00    +0.000 C 
ATOM     15  O   UNL     1      46.222   5.277  13.589  0.00  0.00    +0.000 OA
ENDBRANCH   3  15
ENDBRANCH   1   8
BRANCH   1  16
ATOM     16  C   UNL     1      43.900   6.939  11.446  0.00  0.00    +0.000 C 
BRANCH  16  17
ATOM     17  C   UNL     1      43.876   5.432  11.256  0.00  0.00    +0.000 A 
ATOM     18  C   UNL     1      43.100   4.605  12.071  0.00  0.00    +0.000 A 
ATOM     19  C   UNL     1      43.137   3.228  11.849  0.00  0.00    +0.000 A 
ATOM     20  C   UNL     1      43.914   2.727  10.821  0.00  0.00    +0.000 A 
ATOM     21  C   UNL     1      44.632   3.607  10.016  0.00  0.00    +0.000 A 
ATOM     22  N   UNL     1      44.614   4.947  10.231  0.00  0.00    +0.000 NA
BRANCH  21  23
ATOM     23  C   UNL     1      45.440   3.148   8.875  0.00  0.00    +0.000 A 
ATOM     24  C   UNL     1      45.884   4.053   7.899  0.00  0.00    +0.000 A 
ATOM     25  C   UNL     1      46.625   3.625   6.800  0.00  0.00    +0.000 A 
ATOM     26  C   UNL     1      46.937   2.274   6.654  0.00  0.00    +0.000 A 
ATOM     27  C   UNL     1      46.520   1.345   7.609  0.00  0.00    +0.000 A 
ATOM     28  C   UNL     1      46.840  -0.112   7.445  0.00  0.00    +0.000 C 
ATOM     29  C   UNL     1      45.783   1.789   8.716  0.00  0.00    +0.000 A 
ENDBRANCH  21  23
ENDBRANCH  16  17
ENDBRANCH   1  16
TORSDOF 6
ENDMDL
MODEL 2
REMARK VINA RESULT:    -7.903      2.561      6.601
REMARK INTER + INTRA:         -11.690
REMARK INTER:                 -10.945
REMARK INTRA:                  -0.745
REMARK UNBOUND:                -1.015
REMARK  Name = 
REMARK  8 active torsions:
REMARK  status: ('A' for Active; 'I' for Inactive)
REMARK    1  A    between atoms: C_1  and  O_2
REMARK    2  A    between atoms: O_2  and  C_3
REMARK    3  A    between atoms: C_5  and  C_6
REMARK    4  A    between atoms: C_11  and  N_12
REMARK    5  A    between atoms: N_12  and  C_13
REMARK    6  A    between atoms: C_13  and  C_14
REMARK    7  A    between atoms: C_18  and  C_19
REMARK    8  A    between atoms: C_23  and  C_24
REMARK                            x       y       z     vdW  Elec       q    Type
REMARK                         _______ _______ _______ _____ _____    ______ ____
ROOT
ATOM      1  N   UNL     1      44.001   5.573  10.096  0.00  0.00    +0.000 N 
ATOM      2  H   UNL     1      43.330   6.035   9.512  0.00  0.00    +0.000 HD
ENDROOT
BRANCH   1   8
ATOM      3  C   UNL     1      44.287   3.146   9.882  0.00  0.00    +0.000 A 
ATOM      4  C   UNL     1      45.004   2.106   9.289  0.00  0.00    +0.000 A 
ATOM      5  C   UNL     1      46.017   2.369   8.374  0.00  0.00    +0.000 A 
ATOM      6  C   UNL     1      46.264   3.701   8.078  0.00  0.00    +0.000 A 
ATOM      7  N   UNL     1      45.607   4.733   8.644  0.00  0.00    +0.000 NA
ATOM      8  C   UNL     1      44.654   4.483   9.556  0.00  0.00    +0.000 A 
BRANCH   5   9
ATOM      9  C   UNL     1      46.738   1.244   7.749  0.00  0.00    +0.000 C 
ATOM     10  N   UNL     1      47.762   1.499   6.887  0.00  0.00    +0.000 N 
ATOM     11  O   UNL     1      46.426   0.078   8.001  0.00  0.00    +0.000 OA
ATOM     12  H   UNL     1      48.097   2.407   6.608  0.00  0.00    +0.000 HD
ATOM     13  H   UNL     1      48.219   0.692   6.481  0.00  0.00    +0.000 HD
ENDBRANCH   5   9
BRANCH   3  15
ATOM     14  C   UNL     1      43.565   2.174  11.900  0.00  0.00    +0.000 C 
ATOM     15  O   UNL     1      43.228   2.909  10.716  0.00  0.00    +0.000 OA
ENDBRANCH   3  15
ENDBRANCH   1   8
BRANCH   1  16
ATOM     16  C   UNL     1      43.904   5.722  11.560  0.00  0.00    +0.000 C 
BRANCH  16  17
ATOM     17  C   UNL     1      45.226   5.749  12.308  0.00  0.00    +0.000 A 
ATOM     18  C   UNL     1      45.550   4.775  13.255  0.00  0.00    +0.000 A 
ATOM     19  C   UNL     1      46.775   4.869  13.914  0.00  0.00    +0.000 A 
ATOM     20  C   UNL     1      47.639   5.900  13.597  0.00  0.00    +0.000 A 
ATOM     21  C   UNL     1      47.277   6.816  12.612  0.00  0.00    +0.000 A 
ATOM     22  N   UNL     1      46.081   6.742  11.974  0.00  0.00    +0.000 NA
BRANCH  21  23
ATOM     23  C   UNL     1      48.166   7.909  12.189  0.00  0.00    +0.000 A 
ATOM     24  C   UNL     1      47.691   9.226  12.093  0.00  0.00    +0.000 A 
ATOM     25  C   UNL     1      48.516  10.263  11.665  0.00  0.00    +0.000 A 
ATOM     26  C   UNL     1      49.842  10.002  11.322  0.00  0.00    +0.000 A 
ATOM     27  C   UNL     1      50.354   8.707  11.414  0.00  0.00    +0.000 A 
ATOM     28  C   UNL     1      51.775   8.420  11.029  0.00  0.00    +0.000 C 
ATOM     29  C   UNL     1      49.516   7.671  11.854  0.00  0.00    +0.000 A 
ENDBRANCH  21  23
ENDBRANCH  16  17
ENDBRANCH   1  16
TORSDOF 6
ENDMDL
MODEL 3
REMARK VINA RESULT:    -7.894      2.735      7.099
REMARK INTER + INTRA:         -11.678
REMARK INTER:                 -11.019
REMARK INTRA:                  -0.660
REMARK UNBOUND:                -1.015
REMARK  Name = 
REMARK  8 active torsions:
REMARK  status: ('A' for Active; 'I' for Inactive)
REMARK    1  A    between atoms: C_1  and  O_2
REMARK    2  A    between atoms: O_2  and  C_3
REMARK    3  A    between atoms: C_5  and  C_6
REMARK    4  A    between atoms: C_11  and  N_12
REMARK    5  A    between atoms: N_12  and  C_13
REMARK    6  A    between atoms: C_13  and  C_14
REMARK    7  A    between atoms: C_18  and  C_19
REMARK    8  A    between atoms: C_23  and  C_24
REMARK                            x       y       z     vdW  Elec       q    Type
REMARK                         _______ _______ _______ _____ _____    ______ ____
ROOT
ATOM      1  N   UNL     1      43.827   5.526  10.254  0.00  0.00    +0.000 N 
ATOM      2  H   UNL     1      42.965   5.798   9.820  0.00  0.00    +0.000 HD
ENDROOT
BRANCH   1   8
ATOM      3  C   UNL     1      44.247   3.123   9.988  0.00  0.00    +0.000 A 
ATOM      4  C   UNL     1      44.997   2.136   9.348  0.00  0.00    +0.000 A 
ATOM      5  C   UNL     1      45.951   2.472   8.393  0.00  0.00    +0.000 A 
ATOM      6  C   UNL     1      46.105   3.820   8.108  0.00  0.00    +0.000 A 
ATOM      7  N   UNL     1      45.414   4.803   8.718  0.00  0.00    +0.000 NA
ATOM      8  C   UNL     1      44.519   4.484   9.668  0.00  0.00    +0.000 A 
BRANCH   5   9
ATOM      9  C   UNL     1      46.709   1.401   7.719  0.00  0.00    +0.000 C 
ATOM     10  N   UNL     1      47.677   1.729   6.817  0.00  0.00    +0.000 N 
ATOM     11  O   UNL     1      46.478   0.215   7.965  0.00  0.00    +0.000 OA
ATOM     12  H   UNL     1      47.944   2.659   6.538  0.00  0.00    +0.000 HD
ATOM     13  H   UNL     1      48.162   0.957   6.378  0.00  0.00    +0.000 HD
ENDBRANCH   5   9
BRANCH   3  15
ATOM     14  C   UNL     1      43.694   2.499  12.188  0.00  0.00    +0.000 C 
ATOM     15  O   UNL     1      43.242   2.812  10.864  0.00  0.00    +0.000 OA
ENDBRANCH   3  15
ENDBRANCH   1   8
BRANCH   1  16
ATOM     16  C   UNL     1      44.055   5.854  11.673  0.00  0.00    +0.000 C 
BRANCH  16  17
ATOM     17  C   UNL     1      45.493   6.161  12.056  0.00  0.00    +0.000 A 
ATOM     18  C   UNL     1      46.297   6.991  11.272  0.00  0.00    +0.000 A 
ATOM     19  C   UNL     1      47.613   7.218  11.677  0.00  0.00    +0.000 A 
ATOM     20  C   UNL     1      48.072   6.641  12.846  0.00  0.00    +0.000 A 
ATOM     21  C   UNL     1      47.208   5.858  13.607  0.00  0.00    +0.000 A 
ATOM     22  N   UNL     1      45.931   5.619  13.216  0.00  0.00    +0.000 NA
BRANCH  21  23
ATOM     23  C   UNL     1      47.615   5.253  14.885  0.00  0.00    +0.000 A 
ATOM     24  C   UNL     1      47.216   3.951  15.223  0.00  0.00    +0.000 A 
ATOM     25  C   UNL     1      47.570   3.380  16.442  0.00  0.00    +0.000 A 
ATOM     26  C   UNL     1      48.334   4.105  17.355  0.00  0.00    +0.000 A 
ATOM     27  C   UNL     1      48.758   5.400  17.052  0.00  0.00    +0.000 A 
ATOM     28  C   UNL     1      49.566   6.189  18.039  0.00  0.00    +0.000 C 
ATOM     29  C   UNL     1      48.403   5.962  15.816  0.00  0.00    +0.000 A 
ENDBRANCH  21  23
ENDBRANCH  16  17
ENDBRANCH   1  16
TORSDOF 6
ENDMDL
MODEL 4
REMARK VINA RESULT:    -7.644      2.269      3.529
REMARK INTER + INTRA:         -11.341
REMARK INTER:                 -10.633
REMARK INTRA:                  -0.708
REMARK UNBOUND:                -1.015
REMARK  Name = 
REMARK  8 active torsions:
REMARK  status: ('A' for Active; 'I' for Inactive)
REMARK    1  A    between atoms: C_1  and  O_2
REMARK    2  A    between atoms: O_2  and  C_3
REMARK    3  A    between atoms: C_5  and  C_6
REMARK    4  A    between atoms: C_11  and  N_12
REMARK    5  A    between atoms: N_12  and  C_13
REMARK    6  A    between atoms: C_13  and  C_14
REMARK    7  A    between atoms: C_18  and  C_19
REMARK    8  A    between atoms: C_23  and  C_24
REMARK                            x       y       z     vdW  Elec       q    Type
REMARK                         _______ _______ _______ _____ _____    ______ ____
ROOT
ATOM      1  N   UNL     1      47.555   6.539  12.239  0.00  0.00    +0.000 N 
ATOM      2  H   UNL     1      48.298   6.309  11.606  0.00  0.00    +0.000 HD
ENDROOT
BRANCH   1   8
ATOM      3  C   UNL     1      48.247   6.500  14.593  0.00  0.00    +0.000 A 
ATOM      4  C   UNL     1      48.217   5.808  15.804  0.00  0.00    +0.000 A 
ATOM      5  C   UNL     1      47.515   4.613  15.925  0.00  0.00    +0.000 A 
ATOM      6  C   UNL     1      46.847   4.161  14.797  0.00  0.00    +0.000 A 
ATOM      7  N   UNL     1      46.868   4.791  13.606  0.00  0.00    +0.000 NA
ATOM      8  C   UNL     1      47.576   5.925  13.476  0.00  0.00    +0.000 A 
BRANCH   5   9
ATOM      9  C   UNL     1      47.485   3.920  17.227  0.00  0.00    +0.000 C 
ATOM     10  N   UNL     1      48.391   4.256  18.188  0.00  0.00    +0.000 N 
ATOM     11  O   UNL     1      46.648   3.042  17.454  0.00  0.00    +0.000 OA
ATOM     12  H   UNL     1      49.116   4.949  18.109  0.00  0.00    +0.000 HD
ATOM     13  H   UNL     1      48.331   3.745  19.060  0.00  0.00    +0.000 HD
ENDBRANCH   5   9
BRANCH   3  15
ATOM     14  C   UNL     1      50.141   7.800  15.104  0.00  0.00    +0.000 C 
ATOM     15  O   UNL     1      48.855   7.721  14.474  0.00  0.00    +0.000 OA
ENDBRANCH   3  15
ENDBRANCH   1   8
BRANCH   1  16
ATOM     16  C   UNL     1      46.288   7.067  11.702  0.00  0.00    +0.000 C 
BRANCH  16  17
ATOM     17  C   UNL     1      45.369   6.044  11.057  0.00  0.00    +0.000 A 
ATOM     18  C   UNL     1      44.021   5.947  11.410  0.00  0.00    +0.000 A 
ATOM     19  C   UNL     1      43.238   4.975  10.787  0.00  0.00    +0.000 A 
ATOM     20  C   UNL     1      43.806   4.160   9.827  0.00  0.00    +0.000 A 
ATOM     21  C   UNL     1      45.145   4.334   9.487  0.00  0.00    +0.000 A 
ATOM     22  N   UNL     1      45.920   5.268  10.096  0.00  0.00    +0.000 NA
BRANCH  21  23
ATOM     23  C   UNL     1      45.802   3.535   8.440  0.00  0.00    +0.000 A 
ATOM     24  C   UNL     1      46.289   4.141   7.273  0.00  0.00    +0.000 A 
ATOM     25  C   UNL     1      46.885   3.390   6.263  0.00  0.00    +0.000 A 
ATOM     26  C   UNL     1      47.006   2.008   6.401  0.00  0.00    +0.000 A 
ATOM     27  C   UNL     1      46.541   1.370   7.553  0.00  0.00    +0.000 A 
ATOM     28  C   UNL     1      46.654  -0.119   7.697  0.00  0.00    +0.000 C 
ATOM     29  C   UNL     1      45.950   2.138   8.567  0.00  0.00    +0.000 A 
ENDBRANCH  21  23
ENDBRANCH  16  17
ENDBRANCH   1  16
TORSDOF 6
ENDMDL
MODEL 5
REMARK VINA RESULT:    -7.488      1.306      1.994
REMARK INTER + INTRA:         -11.130
REMARK INTER:                 -10.249
REMARK INTRA:                  -0.881
REMARK UNBOUND:                -1.015
REMARK  Name = 
REMARK  8 active torsions:
REMARK  status: ('A' for Active; 'I' for Inactive)
REMARK    1  A    between atoms: C_1  and  O_2
REMARK    2  A    between atoms: O_2  and  C_3
REMARK    3  A    between atoms: C_5  and  C_6
REMARK    4  A    between atoms: C_11  and  N_12
REMARK    5  A    between atoms: N_12  and  C_13
REMARK    6  A    between atoms: C_13  and  C_14
REMARK    7  A    between atoms: C_18  and  C_19
REMARK    8  A    between atoms: C_23  and  C_24
REMARK                            x       y       z     vdW  Elec       q    Type
REMARK                         _______ _______ _______ _____ _____    ______ ____
ROOT
ATOM      1  N   UNL     1      44.523   7.573  12.576  0.00  0.00    +0.000 N 
ATOM      2  H   UNL     1      43.953   8.186  13.127  0.00  0.00    +0.000 HD
ENDROOT
BRANCH   1   8
ATOM      3  C   UNL     1      46.643   8.808  12.524  0.00  0.00    +0.000 A 
ATOM      4  C   UNL     1      48.017   8.774  12.767  0.00  0.00    +0.000 A 
ATOM      5  C   UNL     1      48.620   7.636  13.292  0.00  0.00    +0.000 A 
ATOM      6  C   UNL     1      47.792   6.559  13.568  0.00  0.00    +0.000 A 
ATOM      7  N   UNL     1      46.466   6.546  13.330  0.00  0.00    +0.000 NA
ATOM      8  C   UNL     1      45.886   7.630  12.788  0.00  0.00    +0.000 A 
BRANCH   5   9
ATOM      9  C   UNL     1      50.071   7.643  13.557  0.00  0.00    +0.000 C 
ATOM     10  N   UNL     1      50.940   7.874  12.534  0.00  0.00    +0.000 N 
ATOM     11  O   UNL     1      50.504   7.444  14.696  0.00  0.00    +0.000 OA
ATOM     12  H   UNL     1      50.699   8.042  11.571  0.00  0.00    +0.000 HD
ATOM     13  H   UNL     1      51.925   7.861  12.769  0.00  0.00    +0.000 HD
ENDBRANCH   5   9
BRANCH   3  15
ATOM     14  C   UNL     1      46.903  10.960  11.609  0.00  0.00    +0.000 C 
ATOM     15  O   UNL     1      46.014   9.945  12.093  0.00  0.00    +0.000 OA
ENDBRANCH   3  15
ENDBRANCH   1   8
BRANCH   1  16
ATOM     16  C   UNL     1      43.998   7.054  11.300  0.00  0.00    +0.000 C 
BRANCH  16  17
ATOM     17  C   UNL     1      43.950   5.541  11.174  0.00  0.00    +0.000 A 
ATOM     18  C   UNL     1      43.178   4.760  12.037  0.00  0.00    +0.000 A 
ATOM     19  C   UNL     1      43.191   3.375  11.872  0.00  0.00    +0.000 A 
ATOM     20  C   UNL     1      43.940   2.820  10.851  0.00  0.00    +0.000 A 
ATOM     21  C   UNL     1      44.655   3.655   9.996  0.00  0.00    +0.000 A 
ATOM     22  N   UNL     1      44.660   5.003  10.156  0.00  0.00    +0.000 NA
BRANCH  21  23
ATOM     23  C   UNL     1      45.434   3.138   8.861  0.00  0.00    +0.000 A 
ATOM     24  C   UNL     1      45.863   3.992   7.834  0.00  0.00    +0.000 A 
ATOM     25  C   UNL     1      46.575   3.508   6.741  0.00  0.00    +0.000 A 
ATOM     26  C   UNL     1      46.874   2.149   6.650  0.00  0.00    +0.000 A 
ATOM     27  C   UNL     1      46.473   1.269   7.656  0.00  0.00    +0.000 A 
ATOM     28  C   UNL     1      46.778  -0.197   7.554  0.00  0.00    +0.000 C 
ATOM     29  C   UNL     1      45.763   1.769   8.758  0.00  0.00    +0.000 A 
ENDBRANCH  21  23
ENDBRANCH  16  17
ENDBRANCH   1  16
TORSDOF 6
ENDMDL
MODEL 6
REMARK VINA RESULT:    -7.048      4.773      8.646
REMARK INTER + INTRA:         -10.535
REMARK INTER:                  -9.860
REMARK INTRA:                  -0.675
REMARK UNBOUND:                -1.015
REMARK  Name = 
REMARK  8 active torsions:
REMARK  status: ('A' for Active; 'I' for Inactive)
REMARK    1  A    between atoms: C_1  and  O_2
REMARK    2  A    between atoms: O_2  and  C_3
REMARK    3  A    between atoms: C_5  and  C_6
REMARK    4  A    between atoms: C_11  and  N_12
REMARK    5  A    between atoms: N_12  and  C_13
REMARK    6  A    between atoms: C_13  and  C_14
REMARK    7  A    between atoms: C_18  and  C_19
REMARK    8  A    between atoms: C_23  and  C_24
REMARK                            x       y       z     vdW  Elec       q    Type
REMARK                         _______ _______ _______ _____ _____    ______ ____
ROOT
ATOM      1  N   UNL     1      47.116   5.254  14.817  0.00  0.00    +0.000 N 
ATOM      2  H   UNL     1      47.277   6.229  14.984  0.00  0.00    +0.000 HD
ENDROOT
BRANCH   1   8
ATOM      3  C   UNL     1      46.003   5.902  12.729  0.00  0.00    +0.000 A 
ATOM      4  C   UNL     1      45.260   5.479  11.626  0.00  0.00    +0.000 A 
ATOM      5  C   UNL     1      44.940   4.137  11.454  0.00  0.00    +0.000 A 
ATOM      6  C   UNL     1      45.402   3.254  12.417  0.00  0.00    +0.000 A 
ATOM      7  N   UNL     1      46.104   3.625  13.506  0.00  0.00    +0.000 NA
ATOM      8  C   UNL     1      46.383   4.926  13.694  0.00  0.00    +0.000 A 
BRANCH   5   9
ATOM      9  C   UNL     1      44.174   3.722  10.263  0.00  0.00    +0.000 C 
ATOM     10  N   UNL     1      43.879   4.641   9.301  0.00  0.00    +0.000 N 
ATOM     11  O   UNL     1      43.801   2.554  10.130  0.00  0.00    +0.000 OA
ATOM     12  H   UNL     1      44.129   5.616   9.309  0.00  0.00    +0.000 HD
ATOM     13  H   UNL     1      43.346   4.305   8.508  0.00  0.00    +0.000 HD
ENDBRANCH   5   9
BRANCH   3  15
ATOM     14  C   UNL     1      45.381   8.168  12.604  0.00  0.00    +0.000 C 
ATOM     15  O   UNL     1      46.406   7.202  12.873  0.00  0.00    +0.000 OA
ENDBRANCH   3  15
ENDBRANCH   1   8
BRANCH   1  16
ATOM     16  C   UNL     1      47.199   4.306  15.944  0.00  0.00    +0.000 C 
BRANCH  16  17
ATOM     17  C   UNL     1      48.280   4.598  16.971  0.00  0.00    +0.000 A 
ATOM     18  C   UNL     1      48.129   5.607  17.924  0.00  0.00    +0.000 A 
ATOM     19  C   UNL     1      49.167   5.828  18.829  0.00  0.00    +0.000 A 
ATOM     20  C   UNL     1      50.296   5.032  18.774  0.00  0.00    +0.000 A 
ATOM     21  C   UNL     1      50.369   4.013  17.829  0.00  0.00    +0.000 A 
ATOM     22  N   UNL     1      49.370   3.798  16.935  0.00  0.00    +0.000 NA
BRANCH  21  23
ATOM     23  C   UNL     1      51.518   3.098  17.745  0.00  0.00    +0.000 A 
ATOM     24  C   UNL     1      51.333   1.737  17.461  0.00  0.00    +0.000 A 
ATOM     25  C   UNL     1      52.411   0.857  17.409  0.00  0.00    +0.000 A 
ATOM     26  C   UNL     1      53.703   1.323  17.641  0.00  0.00    +0.000 A 
ATOM     27  C   UNL     1      53.929   2.673  17.918  0.00  0.00    +0.000 A 
ATOM     28  C   UNL     1      55.317   3.175  18.186  0.00  0.00    +0.000 C 
ATOM     29  C   UNL     1      52.836   3.552  17.959  0.00  0.00    +0.000 A 
ENDBRANCH  21  23
ENDBRANCH  16  17
ENDBRANCH   1  16
TORSDOF 6
ENDMDL
MODEL 7
REMARK VINA RESULT:    -6.928      2.913      4.775
REMARK INTER + INTRA:         -10.373
REMARK INTER:                  -9.850
REMARK INTRA:                  -0.523
REMARK UNBOUND:                -1.015
REMARK  Name = 
REMARK  8 active torsions:
REMARK  status: ('A' for Active; 'I' for Inactive)
REMARK    1  A    between atoms: C_1  and  O_2
REMARK    2  A    between atoms: O_2  and  C_3
REMARK    3  A    between atoms: C_5  and  C_6
REMARK    4  A    between atoms: C_11  and  N_12
REMARK    5  A    between atoms: N_12  and  C_13
REMARK    6  A    between atoms: C_13  and  C_14
REMARK    7  A    between atoms: C_18  and  C_19
REMARK    8  A    between atoms: C_23  and  C_24
REMARK                            x       y       z     vdW  Elec       q    Type
REMARK                         _______ _______ _______ _____ _____    ______ ____
ROOT
ATOM      1  N   UNL     1      48.804   7.724  14.102  0.00  0.00    +0.000 N 
ATOM      2  H   UNL     1      49.419   8.454  14.410  0.00  0.00    +0.000 HD
ENDROOT
BRANCH   1   8
ATOM      3  C   UNL     1      48.839   6.828  16.386  0.00  0.00    +0.000 A 
ATOM      4  C   UNL     1      48.548   5.746  17.217  0.00  0.00    +0.000 A 
ATOM      5  C   UNL     1      47.949   4.598  16.708  0.00  0.00    +0.000 A 
ATOM      6  C   UNL     1      47.652   4.594  15.354  0.00  0.00    +0.000 A 
ATOM      7  N   UNL     1      47.935   5.610  14.516  0.00  0.00    +0.000 NA
ATOM      8  C   UNL     1      48.548   6.705  14.997  0.00  0.00    +0.000 A 
BRANCH   5   9
ATOM      9  C   UNL     1      47.633   3.482  17.620  0.00  0.00    +0.000 C 
ATOM     10  N   UNL     1      48.562   3.074  18.529  0.00  0.00    +0.000 N 
ATOM     11  O   UNL     1      46.537   2.918  17.568  0.00  0.00    +0.000 OA
ATOM     12  H   UNL     1      49.485   3.457  18.654  0.00  0.00    +0.000 HD
ATOM     13  H   UNL     1      48.297   2.300  19.125  0.00  0.00    +0.000 HD
ENDBRANCH   5   9
BRANCH   3  15
ATOM     14  C   UNL     1      48.360   8.874  17.446  0.00  0.00    +0.000 C 
ATOM     15  O   UNL     1      49.346   8.001  16.879  0.00  0.00    +0.000 OA
ENDBRANCH   3  15
ENDBRANCH   1   8
BRANCH   1  16
ATOM     16  C   UNL     1      48.625   7.496  12.656  0.00  0.00    +0.000 C 
BRANCH  16  17
ATOM     17  C   UNL     1      47.186   7.443  12.171  0.00  0.00    +0.000 A 
ATOM     18  C   UNL     1      46.302   8.500  12.390  0.00  0.00    +0.000 A 
ATOM     19  C   UNL     1      44.991   8.378  11.929  0.00  0.00    +0.000 A 
ATOM     20  C   UNL     1      44.615   7.234  11.250  0.00  0.00    +0.000 A 
ATOM     21  C   UNL     1      45.555   6.233  11.025  0.00  0.00    +0.000 A 
ATOM     22  N   UNL     1      46.829   6.335  11.481  0.00  0.00    +0.000 NA
BRANCH  21  23
ATOM     23  C   UNL     1      45.237   5.011  10.269  0.00  0.00    +0.000 A 
ATOM     24  C   UNL     1      44.418   4.016  10.823  0.00  0.00    +0.000 A 
ATOM     25  C   UNL     1      44.136   2.842  10.129  0.00  0.00    +0.000 A 
ATOM     26  C   UNL     1      44.672   2.639   8.858  0.00  0.00    +0.000 A 
ATOM     27  C   UNL     1      45.484   3.609   8.270  0.00  0.00    +0.000 A 
ATOM     28  C   UNL     1      46.076   3.386   6.909  0.00  0.00    +0.000 C 
ATOM     29  C   UNL     1      45.755   4.792   8.975  0.00  0.00    +0.000 A 
ENDBRANCH  21  23
ENDBRANCH  16  17
ENDBRANCH   1  16
TORSDOF 6
ENDMDL
MODEL 8
REMARK VINA RESULT:    -6.715      3.560      4.814
REMARK INTER + INTRA:         -10.086
REMARK INTER:                  -9.388
REMARK INTRA:                  -0.698
REMARK UNBOUND:                -1.015
REMARK  Name = 
REMARK  8 active torsions:
REMARK  status: ('A' for Active; 'I' for Inactive)
REMARK    1  A    between atoms: C_1  and  O_2
REMARK    2  A    between atoms: O_2  and  C_3
REMARK    3  A    between atoms: C_5  and  C_6
REMARK    4  A    between atoms: C_11  and  N_12
REMARK    5  A    between atoms: N_12  and  C_13
REMARK    6  A    between atoms: C_13  and  C_14
REMARK    7  A    between atoms: C_18  and  C_19
REMARK    8  A    between atoms: C_23  and  C_24
REMARK                            x       y       z     vdW  Elec       q    Type
REMARK                         _______ _______ _______ _____ _____    ______ ____
ROOT
ATOM      1  N   UNL     1      47.671   5.887  15.056  0.00  0.00    +0.000 N 
ATOM      2  H   UNL     1      46.734   5.594  15.257  0.00  0.00    +0.000 HD
ENDROOT
BRANCH   1   8
ATOM      3  C   UNL     1      48.331   4.963  17.232  0.00  0.00    +0.000 A 
ATOM      4  C   UNL     1      49.332   4.862  18.199  0.00  0.00    +0.000 A 
ATOM      5  C   UNL     1      50.573   5.460  18.005  0.00  0.00    +0.000 A 
ATOM      6  C   UNL     1      50.762   6.139  16.811  0.00  0.00    +0.000 A 
ATOM      7  N   UNL     1      49.815   6.275  15.863  0.00  0.00    +0.000 NA
ATOM      8  C   UNL     1      48.603   5.732  16.064  0.00  0.00    +0.000 A 
BRANCH   5   9
ATOM      9  C   UNL     1      51.616   5.313  19.037  0.00  0.00    +0.000 C 
ATOM     10  N   UNL     1      51.935   4.071  19.499  0.00  0.00    +0.000 N 
ATOM     11  O   UNL     1      52.203   6.302  19.485  0.00  0.00    +0.000 OA
ATOM     12  H   UNL     1      51.519   3.201  19.209  0.00  0.00    +0.000 HD
ATOM     13  H   UNL     1      52.653   4.027  20.211  0.00  0.00    +0.000 HD
ENDBRANCH   5   9
BRANCH   3  15
ATOM     14  C   UNL     1      47.255   2.890  17.516  0.00  0.00    +0.000 C 
ATOM     15  O   UNL     1      47.135   4.310  17.360  0.00  0.00    +0.000 OA
ENDBRANCH   3  15
ENDBRANCH   1   8
BRANCH   1  16
ATOM     16  C   UNL     1      47.904   6.871  13.984  0.00  0.00    +0.000 C 
BRANCH  16  17
ATOM     17  C   UNL     1      46.757   7.068  13.009  0.00  0.00    +0.000 A 
ATOM     18  C   UNL     1      46.086   8.288  12.905  0.00  0.00    +0.000 A 
ATOM     19  C   UNL     1      45.032   8.393  11.997  0.00  0.00    +0.000 A 
ATOM     20  C   UNL     1      44.700   7.304  11.214  0.00  0.00    +0.000 A 
ATOM     21  C   UNL     1      45.435   6.128  11.333  0.00  0.00    +0.000 A 
ATOM     22  N   UNL     1      46.454   6.010  12.222  0.00  0.00    +0.000 NA
BRANCH  21  23
ATOM     23  C   UNL     1      45.169   4.946  10.498  0.00  0.00    +0.000 A 
ATOM     24  C   UNL     1      44.382   3.888  10.978  0.00  0.00    +0.000 A 
ATOM     25  C   UNL     1      44.149   2.752  10.208  0.00  0.00    +0.000 A 
ATOM     26  C   UNL     1      44.702   2.650   8.932  0.00  0.00    +0.000 A 
ATOM     27  C   UNL     1      45.483   3.685   8.415  0.00  0.00    +0.000 A 
ATOM     28  C   UNL     1      46.094   3.570   7.050  0.00  0.00    +0.000 C 
ATOM     29  C   UNL     1      45.704   4.829   9.197  0.00  0.00    +0.000 A 
ENDBRANCH  21  23
ENDBRANCH  16  17
ENDBRANCH   1  16
TORSDOF 6
ENDMDL
MODEL 9
REMARK VINA RESULT:    -6.534      4.351      8.242
REMARK INTER + INTRA:          -9.842
REMARK INTER:                  -8.772
REMARK INTRA:                  -1.070
REMARK UNBOUND:                -1.015
REMARK  Name = 
REMARK  8 active torsions:
REMARK  status: ('A' for Active; 'I' for Inactive)
REMARK    1  A    between atoms: C_1  and  O_2
REMARK    2  A    between atoms: O_2  and  C_3
REMARK    3  A    between atoms: C_5  and  C_6
REMARK    4  A    between atoms: C_11  and  N_12
REMARK    5  A    between atoms: N_12  and  C_13
REMARK    6  A    between atoms: C_13  and  C_14
REMARK    7  A    between atoms: C_18  and  C_19
REMARK    8  A    between atoms: C_23  and  C_24
REMARK                            x       y       z     vdW  Elec       q    Type
REMARK                         _______ _______ _______ _____ _____    ______ ____
ROOT
ATOM      1  N   UNL     1      48.759   6.526  14.098  0.00  0.00    +0.000 N 
ATOM      2  H   UNL     1      49.495   6.410  13.426  0.00  0.00    +0.000 HD
ENDROOT
BRANCH   1   8
ATOM      3  C   UNL     1      46.879   4.970  13.843  0.00  0.00    +0.000 A 
ATOM      4  C   UNL     1      45.576   4.784  13.379  0.00  0.00    +0.000 A 
ATOM      5  C   UNL     1      44.868   5.833  12.803  0.00  0.00    +0.000 A 
ATOM      6  C   UNL     1      45.512   7.058  12.729  0.00  0.00    +0.000 A 
ATOM      7  N   UNL     1      46.775   7.273  13.148  0.00  0.00    +0.000 NA
ATOM      8  C   UNL     1      47.475   6.252  13.670  0.00  0.00    +0.000 A 
BRANCH   5   9
ATOM      9  C   UNL     1      43.485   5.606  12.344  0.00  0.00    +0.000 C 
ATOM     10  N   UNL     1      43.120   5.997  11.090  0.00  0.00    +0.000 N 
ATOM     11  O   UNL     1      42.657   5.065  13.082  0.00  0.00    +0.000 OA
ATOM     12  H   UNL     1      43.709   6.450  10.410  0.00  0.00    +0.000 HD
ATOM     13  H   UNL     1      42.158   5.825  10.828  0.00  0.00    +0.000 HD
ENDBRANCH   5   9
BRANCH   3  15
ATOM     14  C   UNL     1      47.120   3.742  15.836  0.00  0.00    +0.000 C 
ATOM     15  O   UNL     1      47.562   3.978  14.493  0.00  0.00    +0.000 OA
ENDBRANCH   3  15
ENDBRANCH   1   8
BRANCH   1  16
ATOM     16  C   UNL     1      48.975   7.409  15.258  0.00  0.00    +0.000 C 
BRANCH  16  17
ATOM     17  C   UNL     1      49.146   6.711  16.596  0.00  0.00    +0.000 A 
ATOM     18  C   UNL     1      48.510   7.174  17.749  0.00  0.00    +0.000 A 
ATOM     19  C   UNL     1      48.723   6.491  18.947  0.00  0.00    +0.000 A 
ATOM     20  C   UNL     1      49.530   5.369  18.953  0.00  0.00    +0.000 A 
ATOM     21  C   UNL     1      50.102   4.931  17.762  0.00  0.00    +0.000 A 
ATOM     22  N   UNL     1      49.912   5.596  16.593  0.00  0.00    +0.000 NA
BRANCH  21  23
ATOM     23  C   UNL     1      50.932   3.718  17.686  0.00  0.00    +0.000 A 
ATOM     24  C   UNL     1      50.370   2.484  17.328  0.00  0.00    +0.000 A 
ATOM     25  C   UNL     1      51.140   1.325  17.282  0.00  0.00    +0.000 A 
ATOM     26  C   UNL     1      52.497   1.377  17.597  0.00  0.00    +0.000 A 
ATOM     27  C   UNL     1      53.094   2.588  17.950  0.00  0.00    +0.000 A 
ATOM     28  C   UNL     1      54.551   2.645  18.306  0.00  0.00    +0.000 C 
ATOM     29  C   UNL     1      52.311   3.751  17.984  0.00  0.00    +0.000 A 
ENDBRANCH  21  23
ENDBRANCH  16  17
ENDBRANCH   1  16
TORSDOF 6
ENDMDL
