MODEL 1
REMARK VINA RESULT:    -8.549      0.000      0.000
REMARK INTER + INTRA:         -10.614
REMARK INTER:                 -10.048
REMARK INTRA:                  -0.565
REMARK UNBOUND:                -0.565
REMARK  Name = 
REMARK  3 active torsions:
REMARK  status: ('A' for Active; 'I' for Inactive)
REMARK    1  A    between atoms: C_2  and  C_4
REMARK    2  A    between atoms: N_8  and  C_9
REMARK    3  A    between atoms: C_9  and  C_10
REMARK                            x       y       z     vdW  Elec       q    Type
REMARK                         _______ _______ _______ _____ _____    ______ ____
ROOT
ATOM      1  C   UNL     1      46.553   2.674   7.514  0.00  0.00    +0.000 A 
ATOM      2  C   UNL     1      46.209   4.017   7.646  0.00  0.00    +0.000 A 
ATOM      3  C   UNL     1      45.354   4.406   8.681  0.00  0.00    +0.000 A 
ATOM      4  C   UNL     1      44.852   3.452   9.554  0.00  0.00    +0.000 A 
ATOM      5  N   UNL     1      43.905   3.743  10.541  0.00  0.00    +0.000 N 
ATOM      6  N   UNL     1      45.177   2.146   9.435  0.00  0.00    +0.000 NA
ATOM      7  C   UNL     1      46.012   1.783   8.424  0.00  0.00    +0.000 A 
ATOM      8  H   UNL     1      43.773   2.873  11.059  0.00  0.00    +0.000 HD
ENDROOT
BRANCH   1  10
ATOM      9  N   UNL     1      47.655   3.026   5.379  0.00  0.00    +0.000 N 
ATOM     10  C   UNL     1      47.414   2.174   6.423  0.00  0.00    +0.000 C 
ATOM     11  O   UNL     1      47.905   1.054   6.456  0.00  0.00    +0.000 OA
ATOM     12  H   UNL     1      48.298   2.703   4.668  0.00  0.00    +0.000 HD
ATOM     13  H   UNL     1      47.467   4.016   5.425  0.00  0.00    +0.000 HD
ENDBRANCH   1  10
BRANCH   5  14
ATOM     14  C   UNL     1      43.877   4.980  11.341  0.00  0.00    +0.000 C 
ATOM     15  C   UNL     1      42.582   5.188  12.119  0.00  0.00    +0.000 C 
ATOM     16  C   UNL     1      42.958   6.152  11.046  0.00  0.00    +0.000 C 
BRANCH  14  17
ATOM     17  C   UNL     1      45.203   5.280  12.034  0.00  0.00    +0.000 A 
ATOM     18  C   UNL     1      46.039   6.329  11.608  0.00  0.00    +0.000 A 
ATOM     19  C   UNL     1      47.221   6.647  12.284  0.00  0.00    +0.000 A 
ATOM     20  C   UNL     1      47.593   5.917  13.409  0.00  0.00    +0.000 A 
ATOM     21  C   UNL     1      46.791   4.867  13.842  0.00  0.00    +0.000 A 
ATOM     22 CL   UNL     1      47.243   3.963  15.236  0.00  0.00    +0.000 Cl
ATOM     23  C   UNL     1      45.613   4.547  13.162  0.00  0.00    +0.000 A 
ENDBRANCH  14  17
ENDBRANCH   5  14
TORSDOF 3
ENDMDL
MODEL 2
REMARK VINA RESULT:    -6.908      3.791      6.435
REMARK INTER + INTRA:          -8.684
REMARK INTER:                  -8.450
REMARK INTRA:                  -0.234
REMARK UNBOUND:                -0.565
REMARK  Name = 
REMARK  3 active torsions:
REMARK  status: ('A' for Active; 'I' for Inactive)
REMARK    1  A    between atoms: C_2  and  C_4
REMARK    2  A    between atoms: N_8  and  C_9
REMARK    3  A    between atoms: C_9  and  C_10
REMARK                            x       y       z     vdW  Elec       q    Type
REMARK                         _______ _______ _______ _____ _____    ______ ____
ROOT
ATOM      1  C   UNL     1      47.822   6.450  13.989  0.00  0.00    +0.000 A 
ATOM      2  C   UNL     1      47.114   5.272  14.210  0.00  0.00    +0.000 A 
ATOM      3  C   UNL     1      46.204   4.828  13.245  0.00  0.00    +0.000 A 
ATOM      4  C   UNL     1      46.014   5.570  12.088  0.00  0.00    +0.000 A 
ATOM      5  N   UNL     1      45.044   5.255  11.131  0.00  0.00    +0.000 N 
ATOM      6  N   UNL     1      46.694   6.715  11.863  0.00  0.00    +0.000 NA
ATOM      7  C   UNL     1      47.576   7.133  12.810  0.00  0.00    +0.000 A 
ATOM      8  H   UNL     1      45.175   5.929  10.375  0.00  0.00    +0.000 HD
ENDROOT
BRANCH   1  10
ATOM      9  N   UNL     1      48.299   8.005  15.791  0.00  0.00    +0.000 N 
ATOM     10  C   UNL     1      48.767   7.011  14.976  0.00  0.00    +0.000 C 
ATOM     11  O   UNL     1      49.913   6.597  15.074  0.00  0.00    +0.000 OA
ATOM     12  H   UNL     1      48.928   8.340  16.509  0.00  0.00    +0.000 HD
ATOM     13  H   UNL     1      47.316   8.208  15.900  0.00  0.00    +0.000 HD
ENDBRANCH   1  10
BRANCH   5  14
ATOM     14  C   UNL     1      44.681   3.887  10.719  0.00  0.00    +0.000 C 
ATOM     15  C   UNL     1      43.213   3.540  10.937  0.00  0.00    +0.000 C 
ATOM     16  C   UNL     1      44.264   2.798  11.690  0.00  0.00    +0.000 C 
BRANCH  14  17
ATOM     17  C   UNL     1      45.350   3.453   9.418  0.00  0.00    +0.000 A 
ATOM     18  C   UNL     1      45.768   4.390   8.454  0.00  0.00    +0.000 A 
ATOM     19  C   UNL     1      46.441   3.998   7.293  0.00  0.00    +0.000 A 
ATOM     20  C   UNL     1      46.715   2.652   7.071  0.00  0.00    +0.000 A 
ATOM     21  C   UNL     1      46.300   1.705   8.003  0.00  0.00    +0.000 A 
ATOM     22 CL   UNL     1      46.639   0.038   7.737  0.00  0.00    +0.000 Cl
ATOM     23  C   UNL     1      45.623   2.098   9.159  0.00  0.00    +0.000 A 
ENDBRANCH  14  17
ENDBRANCH   5  14
TORSDOF 3
ENDMDL
MODEL 3
REMARK VINA RESULT:    -6.523      3.957      6.228
REMARK INTER + INTRA:          -8.233
REMARK INTER:                  -7.764
REMARK INTRA:                  -0.468
REMARK UNBOUND:                -0.565
REMARK  Name = 
REMARK  3 active torsions:
REMARK  status: ('A' for Active; 'I' for Inactive)
REMARK    1  A    between atoms: C_2  and  C_4
REMARK    2  A    between atoms: N_8  and  C_9
REMARK    3  A    between atoms: C_9  and  C_10
REMARK                            x       y       z     vdW  Elec       q    Type
REMARK                         _______ _______ _______ _____ _____    ______ ____
ROOT
ATOM      1  C   UNL     1      48.564   6.859  13.494  0.00  0.00    +0.000 A 
ATOM      2  C   UNL     1      47.555   6.078  14.051  0.00  0.00    +0.000 A 
ATOM      3  C   UNL     1      46.364   5.891  13.342  0.00  0.00    +0.000 A 
ATOM      4  C   UNL     1      46.201   6.492  12.101  0.00  0.00    +0.000 A 
ATOM      5  N   UNL     1      45.001   6.448  11.384  0.00  0.00    +0.000 N 
ATOM      6  N   UNL     1      47.172   7.254  11.553  0.00  0.00    +0.000 NA
ATOM      7  C   UNL     1      48.325   7.425  12.254  0.00  0.00    +0.000 A 
ATOM      8  H   UNL     1      45.194   6.917  10.498  0.00  0.00    +0.000 HD
ENDROOT
BRANCH   1  10
ATOM      9  N   UNL     1      50.750   7.915  13.536  0.00  0.00    +0.000 N 
ATOM     10  C   UNL     1      49.832   7.143  14.196  0.00  0.00    +0.000 C 
ATOM     11  O   UNL     1      50.050   6.722  15.323  0.00  0.00    +0.000 OA
ATOM     12  H   UNL     1      51.589   8.161  14.046  0.00  0.00    +0.000 HD
ATOM     13  H   UNL     1      50.520   8.464  12.722  0.00  0.00    +0.000 HD
ENDBRANCH   1  10
BRANCH   5  14
ATOM     14  C   UNL     1      44.107   5.279  11.313  0.00  0.00    +0.000 C 
ATOM     15  C   UNL     1      42.623   5.626  11.380  0.00  0.00    +0.000 C 
ATOM     16  C   UNL     1      43.238   4.812  12.467  0.00  0.00    +0.000 C 
BRANCH  14  17
ATOM     17  C   UNL     1      44.567   4.228  10.307  0.00  0.00    +0.000 A 
ATOM     18  C   UNL     1      44.169   2.882  10.410  0.00  0.00    +0.000 A 
ATOM     19  C   UNL     1      44.536   1.933   9.451  0.00  0.00    +0.000 A 
ATOM     20  C   UNL     1      45.312   2.313   8.359  0.00  0.00    +0.000 A 
ATOM     21  C   UNL     1      45.729   3.636   8.243  0.00  0.00    +0.000 A 
ATOM     22 CL   UNL     1      46.685   4.115   6.894  0.00  0.00    +0.000 Cl
ATOM     23  C   UNL     1      45.367   4.581   9.205  0.00  0.00    +0.000 A 
ENDBRANCH  14  17
ENDBRANCH   5  14
TORSDOF 3
ENDMDL
MODEL 4
REMARK VINA RESULT:    -6.193      3.962      6.320
REMARK INTER + INTRA:          -7.844
REMARK INTER:                  -7.904
REMARK INTRA:                   0.060
REMARK UNBOUND:                -0.565
REMARK  Name = 
REMARK  3 active torsions:
REMARK  status: ('A' for Active; 'I' for Inactive)
REMARK    1  A    between atoms: C_2  and  C_4
REMARK    2  A    between atoms: N_8  and  C_9
REMARK    3  A    between atoms: C_9  and  C_10
REMARK                            x       y       z     vdW  Elec       q    Type
REMARK                         _______ _______ _______ _____ _____    ______ ____
ROOT
ATOM      1  C   UNL     1      45.189   8.811  11.874  0.00  0.00    +0.000 A 
ATOM      2  C   UNL     1      45.747   7.709  12.517  0.00  0.00    +0.000 A 
ATOM      3  C   UNL     1      45.216   6.438  12.279  0.00  0.00    +0.000 A 
ATOM      4  C   UNL     1      44.139   6.292  11.417  0.00  0.00    +0.000 A 
ATOM      5  N   UNL     1      43.481   5.075  11.216  0.00  0.00    +0.000 N 
ATOM      6  N   UNL     1      43.588   7.355  10.790  0.00  0.00    +0.000 NA
ATOM      7  C   UNL     1      44.116   8.585  11.030  0.00  0.00    +0.000 A 
ATOM      8  H   UNL     1      42.780   5.257  10.497  0.00  0.00    +0.000 HD
ENDROOT
BRANCH   1  10
ATOM      9  N   UNL     1      44.710  11.176  12.149  0.00  0.00    +0.000 N 
ATOM     10  C   UNL     1      45.661  10.192  12.104  0.00  0.00    +0.000 C 
ATOM     11  O   UNL     1      46.847  10.447  12.264  0.00  0.00    +0.000 OA
ATOM     12  H   UNL     1      45.031  12.109  12.372  0.00  0.00    +0.000 HD
ATOM     13  H   UNL     1      43.726  10.982  12.255  0.00  0.00    +0.000 HD
ENDBRANCH   1  10
BRANCH   5  14
ATOM     14  C   UNL     1      44.145   3.761  11.150  0.00  0.00    +0.000 C 
ATOM     15  C   UNL     1      43.322   2.618  11.736  0.00  0.00    +0.000 C 
ATOM     16  C   UNL     1      44.617   2.994  12.373  0.00  0.00    +0.000 C 
BRANCH  14  17
ATOM     17  C   UNL     1      44.891   3.528   9.840  0.00  0.00    +0.000 A 
ATOM     18  C   UNL     1      45.282   4.598   9.012  0.00  0.00    +0.000 A 
ATOM     19  C   UNL     1      46.024   4.390   7.846  0.00  0.00    +0.000 A 
ATOM     20  C   UNL     1      46.396   3.100   7.481  0.00  0.00    +0.000 A 
ATOM     21  C   UNL     1      46.010   2.025   8.276  0.00  0.00    +0.000 A 
ATOM     22 CL   UNL     1      46.470   0.426   7.833  0.00  0.00    +0.000 Cl
ATOM     23  C   UNL     1      45.264   2.233   9.437  0.00  0.00    +0.000 A 
ENDBRANCH  14  17
ENDBRANCH   5  14
TORSDOF 3
ENDMDL
MODEL 5
REMARK VINA RESULT:    -5.639      3.245      5.172
REMARK INTER + INTRA:          -7.194
REMARK INTER:                  -7.140
REMARK INTRA:                  -0.053
REMARK UNBOUND:                -0.565
REMARK  Name = 
REMARK  3 active torsions:
REMARK  status: ('A' for Active; 'I' for Inactive)
REMARK    1  A    between atoms: C_2  and  C_4
REMARK    2  A    between atoms: N_8  and  C_9
REMARK    3  A    between atoms: C_9  and  C_10
REMARK                            x       y       z     vdW  Elec       q    Type
REMARK                         _______ _______ _______ _____ _____    ______ ____
ROOT
ATOM      1  C   UNL     1      44.882   4.920  11.058  0.00  0.00    +0.000 A 
ATOM      2  C   UNL     1      45.805   5.837  10.563  0.00  0.00    +0.000 A 
ATOM      3  C   UNL     1      46.495   6.663  11.455  0.00  0.00    +0.000 A 
ATOM      4  C   UNL     1      46.245   6.565  12.817  0.00  0.00    +0.000 A 
ATOM      5  N   UNL     1      46.808   7.429  13.760  0.00  0.00    +0.000 N 
ATOM      6  N   UNL     1      45.351   5.680  13.308  0.00  0.00    +0.000 NA
ATOM      7  C   UNL     1      44.688   4.882  12.428  0.00  0.00    +0.000 A 
ATOM      8  H   UNL     1      46.497   7.084  14.669  0.00  0.00    +0.000 HD
ENDROOT
BRANCH   1  10
ATOM      9  N   UNL     1      44.084   4.327   8.842  0.00  0.00    +0.000 N 
ATOM     10  C   UNL     1      44.079   4.043  10.181  0.00  0.00    +0.000 C 
ATOM     11  O   UNL     1      43.449   3.094  10.626  0.00  0.00    +0.000 OA
ATOM     12  H   UNL     1      43.587   3.685   8.238  0.00  0.00    +0.000 HD
ATOM     13  H   UNL     1      44.761   4.942   8.415  0.00  0.00    +0.000 HD
ENDBRANCH   1  10
BRANCH   5  14
ATOM     14  C   UNL     1      48.186   7.951  13.707  0.00  0.00    +0.000 C 
ATOM     15  C   UNL     1      48.273   9.456  13.475  0.00  0.00    +0.000 C 
ATOM     16  C   UNL     1      48.822   8.520  12.452  0.00  0.00    +0.000 C 
BRANCH  14  17
ATOM     17  C   UNL     1      49.110   7.316  14.741  0.00  0.00    +0.000 A 
ATOM     18  C   UNL     1      50.486   7.614  14.785  0.00  0.00    +0.000 A 
ATOM     19  C   UNL     1      51.320   7.084  15.774  0.00  0.00    +0.000 A 
ATOM     20  C   UNL     1      50.793   6.242  16.748  0.00  0.00    +0.000 A 
ATOM     21  C   UNL     1      49.439   5.922  16.719  0.00  0.00    +0.000 A 
ATOM     22 CL   UNL     1      48.779   4.885  17.923  0.00  0.00    +0.000 Cl
ATOM     23  C   UNL     1      48.608   6.447  15.727  0.00  0.00    +0.000 A 
ENDBRANCH  14  17
ENDBRANCH   5  14
TORSDOF 3
ENDMDL
MODEL 6
REMARK VINA RESULT:    -5.610      3.535      4.900
REMARK INTER + INTRA:          -7.159
REMARK INTER:                  -6.463
REMARK INTRA:                  -0.696
REMARK UNBOUND:                -0.565
REMARK  Name = 
REMARK  3 active torsions:
REMARK  status: ('A' for Active; 'I' for Inactive)
REMARK    1  A    between atoms: C_2  and  C_4
REMARK    2  A    between atoms: N_8  and  C_9
REMARK    3  A    between atoms: C_9  and  C_10
REMARK                            x       y       z     vdW  Elec       q    Type
REMARK                         _______ _______ _______ _____ _____    ______ ____
ROOT
ATOM      1  C   UNL     1      44.200   4.154  11.445  0.00  0.00    +0.000 A 
ATOM      2  C   UNL     1      44.694   5.067  10.518  0.00  0.00    +0.000 A 
ATOM      3  C   UNL     1      44.982   6.372  10.929  0.00  0.00    +0.000 A 
ATOM      4  C   UNL     1      44.765   6.741  12.249  0.00  0.00    +0.000 A 
ATOM      5  N   UNL     1      44.920   8.051  12.711  0.00  0.00    +0.000 N 
ATOM      6  N   UNL     1      44.285   5.863  13.157  0.00  0.00    +0.000 NA
ATOM      7  C   UNL     1      44.010   4.597  12.742  0.00  0.00    +0.000 A 
ATOM      8  H   UNL     1      44.753   8.009  13.718  0.00  0.00    +0.000 HD
ENDROOT
BRANCH   1  10
ATOM      9  N   UNL     1      44.510   2.194  10.046  0.00  0.00    +0.000 N 
ATOM     10  C   UNL     1      43.829   2.771  11.083  0.00  0.00    +0.000 C 
ATOM     11  O   UNL     1      42.962   2.159  11.691  0.00  0.00    +0.000 OA
ATOM     12  H   UNL     1      44.299   1.225   9.844  0.00  0.00    +0.000 HD
ATOM     13  H   UNL     1      45.372   2.570   9.680  0.00  0.00    +0.000 HD
ENDBRANCH   1  10
BRANCH   5  14
ATOM     14  C   UNL     1      45.978   8.978  12.272  0.00  0.00    +0.000 C 
ATOM     15  C   UNL     1      45.593  10.451  12.366  0.00  0.00    +0.000 C 
ATOM     16  C   UNL     1      45.875   9.848  11.032  0.00  0.00    +0.000 C 
BRANCH  14  17
ATOM     17  C   UNL     1      47.373   8.557  12.723  0.00  0.00    +0.000 A 
ATOM     18  C   UNL     1      47.674   8.330  14.080  0.00  0.00    +0.000 A 
ATOM     19  C   UNL     1      48.933   7.879  14.487  0.00  0.00    +0.000 A 
ATOM     20  C   UNL     1      49.924   7.640  13.539  0.00  0.00    +0.000 A 
ATOM     21  C   UNL     1      49.655   7.870  12.193  0.00  0.00    +0.000 A 
ATOM     22 CL   UNL     1      50.875   7.573  11.015  0.00  0.00    +0.000 Cl
ATOM     23  C   UNL     1      48.399   8.326  11.789  0.00  0.00    +0.000 A 
ENDBRANCH  14  17
ENDBRANCH   5  14
TORSDOF 3
ENDMDL
MODEL 7
REMARK VINA RESULT:    -5.584      4.063      6.105
REMARK INTER + INTRA:          -7.128
REMARK INTER:                  -7.137
REMARK INTRA:                   0.008
REMARK UNBOUND:                -0.565
REMARK  Name = 
REMARK  3 active torsions:
REMARK  status: ('A' for Active; 'I' for Inactive)
REMARK    1  A    between atoms: C_2  and  C_4
REMARK    2  A    between atoms: N_8  and  C_9
REMARK    3  A    between atoms: C_9  and  C_10
REMARK                            x       y       z     vdW  Elec       q    Type
REMARK                         _______ _______ _______ _____ _____    ______ ____
ROOT
ATOM      1  C   UNL     1      48.535   8.053  12.831  0.00  0.00    +0.000 A 
ATOM      2  C   UNL     1      48.240   6.757  13.244  0.00  0.00    +0.000 A 
ATOM      3  C   UNL     1      46.938   6.269  13.090  0.00  0.00    +0.000 A 
ATOM      4  C   UNL     1      45.959   7.084  12.538  0.00  0.00    +0.000 A 
ATOM      5  N   UNL     1      44.614   6.712  12.456  0.00  0.00    +0.000 N 
ATOM      6  N   UNL     1      46.234   8.344  12.135  0.00  0.00    +0.000 NA
ATOM      7  C   UNL     1      47.505   8.803  12.290  0.00  0.00    +0.000 A 
ATOM      8  H   UNL     1      44.149   7.472  11.959  0.00  0.00    +0.000 HD
ENDROOT
BRANCH   1  10
ATOM      9  N   UNL     1      50.951   7.822  12.911  0.00  0.00    +0.000 N 
ATOM     10  C   UNL     1      49.872   8.659  12.998  0.00  0.00    +0.000 C 
ATOM     11  O   UNL     1      50.013   9.859  13.190  0.00  0.00    +0.000 OA
ATOM     12  H   UNL     1      51.866   8.251  12.960  0.00  0.00    +0.000 HD
ATOM     13  H   UNL     1      50.892   6.890  12.529  0.00  0.00    +0.000 HD
ENDBRANCH   1  10
BRANCH   5  14
ATOM     14  C   UNL     1      44.134   5.352  12.149  0.00  0.00    +0.000 C 
ATOM     15  C   UNL     1      42.675   5.109  12.519  0.00  0.00    +0.000 C 
ATOM     16  C   UNL     1      43.748   4.337  13.208  0.00  0.00    +0.000 C 
BRANCH  14  17
ATOM     17  C   UNL     1      44.649   4.819  10.815  0.00  0.00    +0.000 A 
ATOM     18  C   UNL     1      45.397   5.626   9.936  0.00  0.00    +0.000 A 
ATOM     19  C   UNL     1      45.926   5.119   8.746  0.00  0.00    +0.000 A 
ATOM     20  C   UNL     1      45.720   3.784   8.408  0.00  0.00    +0.000 A 
ATOM     21  C   UNL     1      44.973   2.971   9.254  0.00  0.00    +0.000 A 
ATOM     22 CL   UNL     1      44.716   1.318   8.844  0.00  0.00    +0.000 Cl
ATOM     23  C   UNL     1      44.439   3.480  10.439  0.00  0.00    +0.000 A 
ENDBRANCH  14  17
ENDBRANCH   5  14
TORSDOF 3
ENDMDL
MODEL 8
REMARK VINA RESULT:    -5.569      3.299      4.747
REMARK INTER + INTRA:          -7.110
REMARK INTER:                  -7.425
REMARK INTRA:                   0.315
REMARK UNBOUND:                -0.565
REMARK  Name = 
REMARK  3 active torsions:
REMARK  status: ('A' for Active; 'I' for Inactive)
REMARK    1  A    between atoms: C_2  and  C_4
REMARK    2  A    between atoms: N_8  and  C_9
REMARK    3  A    between atoms: C_9  and  C_10
REMARK                            x       y       z     vdW  Elec       q    Type
REMARK                         _______ _______ _______ _____ _____    ______ ____
ROOT
ATOM      1  C   UNL     1      45.014   3.881  10.174  0.00  0.00    +0.000 A 
ATOM      2  C   UNL     1      45.499   5.151   9.873  0.00  0.00    +0.000 A 
ATOM      3  C   UNL     1      45.906   5.992  10.913  0.00  0.00    +0.000 A 
ATOM      4  C   UNL     1      45.813   5.556  12.227  0.00  0.00    +0.000 A 
ATOM      5  N   UNL     1      46.092   6.375  13.325  0.00  0.00    +0.000 N 
ATOM      6  N   UNL     1      45.343   4.326  12.531  0.00  0.00    +0.000 NA
ATOM      7  C   UNL     1      44.952   3.519  11.508  0.00  0.00    +0.000 A 
ATOM      8  H   UNL     1      45.998   5.775  14.146  0.00  0.00    +0.000 HD
ENDROOT
BRANCH   1  10
ATOM      9  N   UNL     1      44.361   3.449   7.875  0.00  0.00    +0.000 N 
ATOM     10  C   UNL     1      44.522   2.949   9.139  0.00  0.00    +0.000 C 
ATOM     11  O   UNL     1      44.284   1.776   9.393  0.00  0.00    +0.000 OA
ATOM     12  H   UNL     1      44.087   2.792   7.156  0.00  0.00    +0.000 HD
ATOM     13  H   UNL     1      44.759   4.327   7.579  0.00  0.00    +0.000 HD
ENDBRANCH   1  10
BRANCH   5  14
ATOM     14  C   UNL     1      47.176   7.373  13.377  0.00  0.00    +0.000 C 
ATOM     15  C   UNL     1      48.563   6.799  13.106  0.00  0.00    +0.000 C 
ATOM     16  C   UNL     1      48.257   7.386  14.442  0.00  0.00    +0.000 C 
BRANCH  14  17
ATOM     17  C   UNL     1      46.798   8.706  12.738  0.00  0.00    +0.000 A 
ATOM     18  C   UNL     1      47.776   9.616  12.294  0.00  0.00    +0.000 A 
ATOM     19  C   UNL     1      47.432  10.807  11.647  0.00  0.00    +0.000 A 
ATOM     20  C   UNL     1      46.092  11.114  11.428  0.00  0.00    +0.000 A 
ATOM     21  C   UNL     1      45.106  10.237  11.870  0.00  0.00    +0.000 A 
ATOM     22 CL   UNL     1      43.447  10.608  11.599  0.00  0.00    +0.000 Cl
ATOM     23  C   UNL     1      45.452   9.051  12.521  0.00  0.00    +0.000 A 
ENDBRANCH  14  17
ENDBRANCH   5  14
TORSDOF 3
ENDMDL
