MODEL 1
REMARK VINA RESULT:    -7.695      0.000      0.000
REMARK INTER + INTRA:         -10.423
REMARK INTER:                  -9.720
REMARK INTRA:                  -0.703
REMARK UNBOUND:                -0.703
REMARK  Name = 
REMARK  8 active torsions:
REMARK  status: ('A' for Active; 'I' for Inactive)
REMARK    1  A    between atoms: C_1  and  C_2
REMARK    2  A    between atoms: C_2  and  C_3
REMARK    3  A    between atoms: C_2  and  C_4
REMARK    4  A    between atoms: C_2  and  C_5
REMARK    5  A    between atoms: N_7  and  C_8
REMARK    6  A    between atoms: C_8  and  C_9
REMARK    7  A    between atoms: C_12  and  C_13
REMARK    8  A    between atoms: C_13  and  N_14
REMARK                            x       y       z     vdW  Elec       q    Type
REMARK                         _______ _______ _______ _____ _____    ______ ____
ROOT
ATOM      1  C   UNL     1      46.128   7.189  12.107  0.00  0.00    +0.000 A 
ATOM      2  C   UNL     1      45.186   6.877  11.138  0.00  0.00    +0.000 A 
ATOM      3  N   UNL     1      44.931   5.532  11.159  0.00  0.00    +0.000 N 
ATOM      4  C   UNL     1      45.639   4.940  12.182  0.00  0.00    +0.000 A 
ATOM      5  C   UNL     1      45.660   3.605  12.629  0.00  0.00    +0.000 A 
ATOM      6  C   UNL     1      46.502   3.266  13.686  0.00  0.00    +0.000 A 
ATOM      7  C   UNL     1      47.307   4.223  14.282  0.00  0.00    +0.000 A 
ATOM      8  C   UNL     1      47.275   5.551  13.837  0.00  0.00    +0.000 A 
ATOM      9  C   UNL     1      46.424   5.943  12.776  0.00  0.00    +0.000 A 
ENDROOT
BRANCH   1  11
ATOM     10  C   UNL     1      48.048   8.757  11.698  0.00  0.00    +0.000 C 
ATOM     11  C   UNL     1      46.650   8.611  12.344  0.00  0.00    +0.000 C 
ATOM     12  C   UNL     1      46.777   8.882  13.861  0.00  0.00    +0.000 C 
ATOM     13  C   UNL     1      45.762   9.725  11.763  0.00  0.00    +0.000 C 
ENDBRANCH   1  11
BRANCH   3  14
ATOM     14  C   UNL     1      44.020   4.862  10.234  0.00  0.00    +0.000 C 
BRANCH  14  15
ATOM     15  C   UNL     1      44.767   3.929   9.311  0.00  0.00    +0.000 A 
ATOM     16  C   UNL     1      44.665   2.540   9.463  0.00  0.00    +0.000 A 
ATOM     17  C   UNL     1      45.450   1.680   8.690  0.00  0.00    +0.000 A 
ATOM     18  C   UNL     1      46.348   2.184   7.740  0.00  0.00    +0.000 A 
ATOM     19  C   UNL     1      46.424   3.573   7.566  0.00  0.00    +0.000 A 
ATOM     20  C   UNL     1      45.638   4.436   8.337  0.00  0.00    +0.000 A 
BRANCH  18  21
ATOM     21  C   UNL     1      47.293   1.239   7.036  0.00  0.00    +0.000 C 
BRANCH  21  22
ATOM     22  N   UNL     1      48.374   1.914   6.327  0.00  0.00    +0.000 NA
ATOM     23  H   UNL     1      48.848   1.236   5.735  0.00  0.00    +0.000 HD
ATOM     24  H   UNL     1      49.062   2.235   7.008  0.00  0.00    +0.000 HD
ENDBRANCH  21  22
ENDBRANCH  18  21
ENDBRANCH  14  15
ENDBRANCH   3  14
TORSDOF 5
ENDMDL
MODEL 2
REMARK VINA RESULT:    -6.884      1.128      3.038
REMARK INTER + INTRA:          -9.398
REMARK INTER:                  -8.791
REMARK INTRA:                  -0.607
REMARK UNBOUND:                -0.703
REMARK  Name = 
REMARK  8 active torsions:
REMARK  status: ('A' for Active; 'I' for Inactive)
REMARK    1  A    between atoms: C_1  and  C_2
REMARK    2  A    between atoms: C_2  and  C_3
REMARK    3  A    between atoms: C_2  and  C_4
REMARK    4  A    between atoms: C_2  and  C_5
REMARK    5  A    between atoms: N_7  and  C_8
REMARK    6  A    between atoms: C_8  and  C_9
REMARK    7  A    between atoms: C_12  and  C_13
REMARK    8  A    between atoms: C_13  and  N_14
REMARK                            x       y       z     vdW  Elec       q    Type
REMARK                         _______ _______ _______ _____ _____    ______ ____
ROOT
ATOM      1  C   UNL     1      46.448   6.691  12.609  0.00  0.00    +0.000 A 
ATOM      2  C   UNL     1      45.902   5.541  12.057  0.00  0.00    +0.000 A 
ATOM      3  N   UNL     1      44.773   5.860  11.352  0.00  0.00    +0.000 N 
ATOM      4  C   UNL     1      44.588   7.225  11.361  0.00  0.00    +0.000 A 
ATOM      5  C   UNL     1      43.610   8.022  10.736  0.00  0.00    +0.000 A 
ATOM      6  C   UNL     1      43.639   9.400  10.938  0.00  0.00    +0.000 A 
ATOM      7  C   UNL     1      44.609   9.975  11.743  0.00  0.00    +0.000 A 
ATOM      8  C   UNL     1      45.583   9.177  12.357  0.00  0.00    +0.000 A 
ATOM      9  C   UNL     1      45.599   7.774  12.167  0.00  0.00    +0.000 A 
ENDROOT
BRANCH   1  11
ATOM     10  C   UNL     1      48.959   6.667  12.556  0.00  0.00    +0.000 C 
ATOM     11  C   UNL     1      47.715   6.688  13.473  0.00  0.00    +0.000 C 
ATOM     12  C   UNL     1      47.741   5.428  14.369  0.00  0.00    +0.000 C 
ATOM     13  C   UNL     1      47.856   7.903  14.405  0.00  0.00    +0.000 C 
ENDBRANCH   1  11
BRANCH   3  14
ATOM     14  C   UNL     1      43.926   4.875  10.682  0.00  0.00    +0.000 C 
BRANCH  14  15
ATOM     15  C   UNL     1      44.706   4.093   9.654  0.00  0.00    +0.000 A 
ATOM     16  C   UNL     1      44.719   2.692   9.678  0.00  0.00    +0.000 A 
ATOM     17  C   UNL     1      45.536   1.971   8.804  0.00  0.00    +0.000 A 
ATOM     18  C   UNL     1      46.356   2.630   7.877  0.00  0.00    +0.000 A 
ATOM     19  C   UNL     1      46.317   4.031   7.831  0.00  0.00    +0.000 A 
ATOM     20  C   UNL     1      45.497   4.754   8.704  0.00  0.00    +0.000 A 
BRANCH  18  21
ATOM     21  C   UNL     1      47.342   1.832   7.059  0.00  0.00    +0.000 C 
BRANCH  21  22
ATOM     22  N   UNL     1      48.430   2.634   6.509  0.00  0.00    +0.000 NA
ATOM     23  H   UNL     1      48.047   3.261   5.805  0.00  0.00    +0.000 HD
ATOM     24  H   UNL     1      49.079   2.016   6.024  0.00  0.00    +0.000 HD
ENDBRANCH  21  22
ENDBRANCH  18  21
ENDBRANCH  14  15
ENDBRANCH   3  14
TORSDOF 5
ENDMDL
MODEL 3
REMARK VINA RESULT:    -6.248      1.454      2.712
REMARK INTER + INTRA:          -8.595
REMARK INTER:                  -8.029
REMARK INTRA:                  -0.566
REMARK UNBOUND:                -0.703
REMARK  Name = 
REMARK  8 active torsions:
REMARK  status: ('A' for Active; 'I' for Inactive)
REMARK    1  A    between atoms: C_1  and  C_2
REMARK    2  A    between atoms: C_2  and  C_3
REMARK    3  A    between atoms: C_2  and  C_4
REMARK    4  A    between atoms: C_2  and  C_5
REMARK    5  A    between atoms: N_7  and  C_8
REMARK    6  A    between atoms: C_8  and  C_9
REMARK    7  A    between atoms: C_12  and  C_13
REMARK    8  A    between atoms: C_13  and  N_14
REMARK                            x       y       z     vdW  Elec       q    Type
REMARK                         _______ _______ _______ _____ _____    ______ ____
ROOT
ATOM      1  C   UNL     1      44.209   8.279  11.180  0.00  0.00    +0.000 A 
ATOM      2  C   UNL     1      43.516   7.136  10.812  0.00  0.00    +0.000 A 
ATOM      3  N   UNL     1      44.218   6.026  11.201  0.00  0.00    +0.000 N 
ATOM      4  C   UNL     1      45.345   6.408  11.894  0.00  0.00    +0.000 A 
ATOM      5  C   UNL     1      46.335   5.635  12.532  0.00  0.00    +0.000 A 
ATOM      6  C   UNL     1      47.402   6.287  13.147  0.00  0.00    +0.000 A 
ATOM      7  C   UNL     1      47.490   7.670  13.126  0.00  0.00    +0.000 A 
ATOM      8  C   UNL     1      46.497   8.433  12.496  0.00  0.00    +0.000 A 
ATOM      9  C   UNL     1      45.389   7.812  11.872  0.00  0.00    +0.000 A 
ENDROOT
BRANCH   1  11
ATOM     10  C   UNL     1      42.169   9.676  10.734  0.00  0.00    +0.000 C 
ATOM     11  C   UNL     1      43.708   9.698  10.883  0.00  0.00    +0.000 C 
ATOM     12  C   UNL     1      44.325  10.210   9.560  0.00  0.00    +0.000 C 
ATOM     13  C   UNL     1      44.046  10.736  11.965  0.00  0.00    +0.000 C 
ENDBRANCH   1  11
BRANCH   3  14
ATOM     14  C   UNL     1      43.792   4.656  10.926  0.00  0.00    +0.000 C 
BRANCH  14  15
ATOM     15  C   UNL     1      44.680   4.004   9.894  0.00  0.00    +0.000 A 
ATOM     16  C   UNL     1      45.391   4.781   8.969  0.00  0.00    +0.000 A 
ATOM     17  C   UNL     1      46.116   4.176   7.939  0.00  0.00    +0.000 A 
ATOM     18  C   UNL     1      46.156   2.781   7.811  0.00  0.00    +0.000 A 
ATOM     19  C   UNL     1      45.472   2.005   8.757  0.00  0.00    +0.000 A 
ATOM     20  C   UNL     1      44.748   2.608   9.790  0.00  0.00    +0.000 A 
BRANCH  18  21
ATOM     21  C   UNL     1      46.813   2.165   6.598  0.00  0.00    +0.000 C 
BRANCH  21  22
ATOM     22  N   UNL     1      48.059   1.468   6.900  0.00  0.00    +0.000 NA
ATOM     23  H   UNL     1      48.202   1.478   7.907  0.00  0.00    +0.000 HD
ATOM     24  H   UNL     1      48.833   1.991   6.492  0.00  0.00    +0.000 HD
ENDBRANCH  21  22
ENDBRANCH  18  21
ENDBRANCH  14  15
ENDBRANCH   3  14
TORSDOF 5
ENDMDL
MODEL 4
REMARK VINA RESULT:    -5.937      4.036      7.368
REMARK INTER + INTRA:          -8.202
REMARK INTER:                  -7.629
REMARK INTRA:                  -0.573
REMARK UNBOUND:                -0.703
REMARK  Name = 
REMARK  8 active torsions:
REMARK  status: ('A' for Active; 'I' for Inactive)
REMARK    1  A    between atoms: C_1  and  C_2
REMARK    2  A    between atoms: C_2  and  C_3
REMARK    3  A    between atoms: C_2  and  C_4
REMARK    4  A    between atoms: C_2  and  C_5
REMARK    5  A    between atoms: N_7  and  C_8
REMARK    6  A    between atoms: C_8  and  C_9
REMARK    7  A    between atoms: C_12  and  C_13
REMARK    8  A    between atoms: C_13  and  N_14
REMARK                            x       y       z     vdW  Elec       q    Type
REMARK                         _______ _______ _______ _____ _____    ______ ____
ROOT
ATOM      1  C   UNL     1      46.531   5.241  13.481  0.00  0.00    +0.000 A 
ATOM      2  C   UNL     1      46.503   4.776  14.788  0.00  0.00    +0.000 A 
ATOM      3  N   UNL     1      47.558   5.298  15.486  0.00  0.00    +0.000 N 
ATOM      4  C   UNL     1      48.260   6.171  14.685  0.00  0.00    +0.000 A 
ATOM      5  C   UNL     1      49.375   6.983  14.970  0.00  0.00    +0.000 A 
ATOM      6  C   UNL     1      49.913   7.764  13.949  0.00  0.00    +0.000 A 
ATOM      7  C   UNL     1      49.366   7.738  12.677  0.00  0.00    +0.000 A 
ATOM      8  C   UNL     1      48.252   6.933  12.402  0.00  0.00    +0.000 A 
ATOM      9  C   UNL     1      47.664   6.135  13.412  0.00  0.00    +0.000 A 
ENDROOT
BRANCH   1  11
ATOM     10  C   UNL     1      44.088   5.270  12.896  0.00  0.00    +0.000 C 
ATOM     11  C   UNL     1      45.496   4.839  12.424  0.00  0.00    +0.000 C 
ATOM     12  C   UNL     1      45.505   3.305  12.232  0.00  0.00    +0.000 C 
ATOM     13  C   UNL     1      45.722   5.464  11.037  0.00  0.00    +0.000 C 
ENDBRANCH   1  11
BRANCH   3  14
ATOM     14  C   UNL     1      47.852   4.974  16.880  0.00  0.00    +0.000 C 
BRANCH  14  15
ATOM     15  C   UNL     1      49.046   4.057  16.988  0.00  0.00    +0.000 A 
ATOM     16  C   UNL     1      48.913   2.680  16.761  0.00  0.00    +0.000 A 
ATOM     17  C   UNL     1      49.989   1.815  16.979  0.00  0.00    +0.000 A 
ATOM     18  C   UNL     1      51.226   2.303  17.422  0.00  0.00    +0.000 A 
ATOM     19  C   UNL     1      51.366   3.685  17.616  0.00  0.00    +0.000 A 
ATOM     20  C   UNL     1      50.292   4.552  17.396  0.00  0.00    +0.000 A 
BRANCH  18  21
ATOM     21  C   UNL     1      52.316   1.329  17.800  0.00  0.00    +0.000 C 
BRANCH  21  22
ATOM     22  N   UNL     1      51.816   0.018  18.197  0.00  0.00    +0.000 NA
ATOM     23  H   UNL     1      51.571   0.048  19.184  0.00  0.00    +0.000 HD
ATOM     24  H   UNL     1      52.571  -0.661  18.107  0.00  0.00    +0.000 HD
ENDBRANCH  21  22
ENDBRANCH  18  21
ENDBRANCH  14  15
ENDBRANCH   3  14
TORSDOF 5
ENDMDL
MODEL 5
REMARK VINA RESULT:    -5.834      4.091      7.116
REMARK INTER + INTRA:          -8.071
REMARK INTER:                  -7.210
REMARK INTRA:                  -0.862
REMARK UNBOUND:                -0.703
REMARK  Name = 
REMARK  8 active torsions:
REMARK  status: ('A' for Active; 'I' for Inactive)
REMARK    1  A    between atoms: C_1  and  C_2
REMARK    2  A    between atoms: C_2  and  C_3
REMARK    3  A    between atoms: C_2  and  C_4
REMARK    4  A    between atoms: C_2  and  C_5
REMARK    5  A    between atoms: N_7  and  C_8
REMARK    6  A    between atoms: C_8  and  C_9
REMARK    7  A    between atoms: C_12  and  C_13
REMARK    8  A    between atoms: C_13  and  N_14
REMARK                            x       y       z     vdW  Elec       q    Type
REMARK                         _______ _______ _______ _____ _____    ______ ____
ROOT
ATOM      1  C   UNL     1      48.989   7.277  13.744  0.00  0.00    +0.000 A 
ATOM      2  C   UNL     1      49.232   7.020  15.086  0.00  0.00    +0.000 A 
ATOM      3  N   UNL     1      48.316   6.117  15.555  0.00  0.00    +0.000 N 
ATOM      4  C   UNL     1      47.499   5.704  14.526  0.00  0.00    +0.000 A 
ATOM      5  C   UNL     1      46.459   4.756  14.505  0.00  0.00    +0.000 A 
ATOM      6  C   UNL     1      45.765   4.548  13.315  0.00  0.00    +0.000 A 
ATOM      7  C   UNL     1      46.090   5.265  12.174  0.00  0.00    +0.000 A 
ATOM      8  C   UNL     1      47.131   6.202  12.200  0.00  0.00    +0.000 A 
ATOM      9  C   UNL     1      47.871   6.434  13.384  0.00  0.00    +0.000 A 
ENDROOT
BRANCH   1  11
ATOM     10  C   UNL     1      51.099   8.640  13.700  0.00  0.00    +0.000 C 
ATOM     11  C   UNL     1      49.826   8.255  12.911  0.00  0.00    +0.000 C 
ATOM     12  C   UNL     1      49.012   9.540  12.630  0.00  0.00    +0.000 C 
ATOM     13  C   UNL     1      50.283   7.708  11.549  0.00  0.00    +0.000 C 
ENDBRANCH   1  11
BRANCH   3  14
ATOM     14  C   UNL     1      48.258   5.664  16.943  0.00  0.00    +0.000 C 
BRANCH  14  15
ATOM     15  C   UNL     1      49.187   4.498  17.177  0.00  0.00    +0.000 A 
ATOM     16  C   UNL     1      50.512   4.709  17.581  0.00  0.00    +0.000 A 
ATOM     17  C   UNL     1      51.406   3.639  17.679  0.00  0.00    +0.000 A 
ATOM     18  C   UNL     1      50.997   2.331  17.385  0.00  0.00    +0.000 A 
ATOM     19  C   UNL     1      49.662   2.118  17.014  0.00  0.00    +0.000 A 
ATOM     20  C   UNL     1      48.766   3.186  16.918  0.00  0.00    +0.000 A 
BRANCH  18  21
ATOM     21  C   UNL     1      52.024   1.224  17.347  0.00  0.00    +0.000 C 
BRANCH  21  22
ATOM     22  N   UNL     1      51.661   0.062  18.151  0.00  0.00    +0.000 NA
ATOM     23  H   UNL     1      51.712  -0.768  17.565  0.00  0.00    +0.000 HD
ATOM     24  H   UNL     1      50.687   0.154  18.438  0.00  0.00    +0.000 HD
ENDBRANCH  21  22
ENDBRANCH  18  21
ENDBRANCH  14  15
ENDBRANCH   3  14
TORSDOF 5
ENDMDL
MODEL 6
REMARK VINA RESULT:    -5.565      2.846      7.209
REMARK INTER + INTRA:          -7.732
REMARK INTER:                  -7.368
REMARK INTRA:                  -0.364
REMARK UNBOUND:                -0.703
REMARK  Name = 
REMARK  8 active torsions:
REMARK  status: ('A' for Active; 'I' for Inactive)
REMARK    1  A    between atoms: C_1  and  C_2
REMARK    2  A    between atoms: C_2  and  C_3
REMARK    3  A    between atoms: C_2  and  C_4
REMARK    4  A    between atoms: C_2  and  C_5
REMARK    5  A    between atoms: N_7  and  C_8
REMARK    6  A    between atoms: C_8  and  C_9
REMARK    7  A    between atoms: C_12  and  C_13
REMARK    8  A    between atoms: C_13  and  N_14
REMARK                            x       y       z     vdW  Elec       q    Type
REMARK                         _______ _______ _______ _____ _____    ______ ____
ROOT
ATOM      1  C   UNL     1      44.907   5.707  11.954  0.00  0.00    +0.000 A 
ATOM      2  C   UNL     1      46.056   5.235  12.573  0.00  0.00    +0.000 A 
ATOM      3  N   UNL     1      46.897   6.280  12.844  0.00  0.00    +0.000 N 
ATOM      4  C   UNL     1      46.298   7.466  12.480  0.00  0.00    +0.000 A 
ATOM      5  C   UNL     1      46.742   8.796  12.613  0.00  0.00    +0.000 A 
ATOM      6  C   UNL     1      45.936   9.823  12.128  0.00  0.00    +0.000 A 
ATOM      7  C   UNL     1      44.723   9.541  11.519  0.00  0.00    +0.000 A 
ATOM      8  C   UNL     1      44.285   8.216  11.397  0.00  0.00    +0.000 A 
ATOM      9  C   UNL     1      45.065   7.143  11.889  0.00  0.00    +0.000 A 
ENDROOT
BRANCH   1  11
ATOM     10  C   UNL     1      42.410   5.487  11.803  0.00  0.00    +0.000 C 
ATOM     11  C   UNL     1      43.760   4.796  11.503  0.00  0.00    +0.000 C 
ATOM     12  C   UNL     1      43.812   3.458  12.277  0.00  0.00    +0.000 C 
ATOM     13  C   UNL     1      43.771   4.448  10.005  0.00  0.00    +0.000 C 
ENDBRANCH   1  11
BRANCH   3  14
ATOM     14  C   UNL     1      48.218   6.126  13.450  0.00  0.00    +0.000 C 
BRANCH  14  15
ATOM     15  C   UNL     1      48.110   5.838  14.928  0.00  0.00    +0.000 A 
ATOM     16  C   UNL     1      48.738   6.668  15.866  0.00  0.00    +0.000 A 
ATOM     17  C   UNL     1      48.741   6.334  17.223  0.00  0.00    +0.000 A 
ATOM     18  C   UNL     1      48.111   5.169  17.679  0.00  0.00    +0.000 A 
ATOM     19  C   UNL     1      47.454   4.357  16.743  0.00  0.00    +0.000 A 
ATOM     20  C   UNL     1      47.447   4.690  15.385  0.00  0.00    +0.000 A 
BRANCH  18  21
ATOM     21  C   UNL     1      48.268   4.755  19.123  0.00  0.00    +0.000 C 
BRANCH  21  22
ATOM     22  N   UNL     1      48.335   3.310  19.313  0.00  0.00    +0.000 NA
ATOM     23  H   UNL     1      48.969   3.113  20.084  0.00  0.00    +0.000 HD
ATOM     24  H   UNL     1      48.749   2.890  18.483  0.00  0.00    +0.000 HD
ENDBRANCH  21  22
ENDBRANCH  18  21
ENDBRANCH  14  15
ENDBRANCH   3  14
TORSDOF 5
ENDMDL
MODEL 7
REMARK VINA RESULT:    -5.523      1.852      4.152
REMARK INTER + INTRA:          -7.679
REMARK INTER:                  -7.428
REMARK INTRA:                  -0.251
REMARK UNBOUND:                -0.703
REMARK  Name = 
REMARK  8 active torsions:
REMARK  status: ('A' for Active; 'I' for Inactive)
REMARK    1  A    between atoms: C_1  and  C_2
REMARK    2  A    between atoms: C_2  and  C_3
REMARK    3  A    between atoms: C_2  and  C_4
REMARK    4  A    between atoms: C_2  and  C_5
REMARK    5  A    between atoms: N_7  and  C_8
REMARK    6  A    between atoms: C_8  and  C_9
REMARK    7  A    between atoms: C_12  and  C_13
REMARK    8  A    between atoms: C_13  and  N_14
REMARK                            x       y       z     vdW  Elec       q    Type
REMARK                         _______ _______ _______ _____ _____    ______ ____
ROOT
ATOM      1  C   UNL     1      48.388   8.389  12.466  0.00  0.00    +0.000 A 
ATOM      2  C   UNL     1      47.760   7.181  12.734  0.00  0.00    +0.000 A 
ATOM      3  N   UNL     1      46.402   7.339  12.657  0.00  0.00    +0.000 N 
ATOM      4  C   UNL     1      46.106   8.627  12.269  0.00  0.00    +0.000 A 
ATOM      5  C   UNL     1      44.867   9.242  12.002  0.00  0.00    +0.000 A 
ATOM      6  C   UNL     1      44.850  10.589  11.647  0.00  0.00    +0.000 A 
ATOM      7  C   UNL     1      46.030  11.312  11.563  0.00  0.00    +0.000 A 
ATOM      8  C   UNL     1      47.259  10.691  11.822  0.00  0.00    +0.000 A 
ATOM      9  C   UNL     1      47.324   9.322  12.172  0.00  0.00    +0.000 A 
ENDROOT
BRANCH   1  11
ATOM     10  C   UNL     1      50.253  10.062  12.290  0.00  0.00    +0.000 C 
ATOM     11  C   UNL     1      49.911   8.566  12.482  0.00  0.00    +0.000 C 
ATOM     12  C   UNL     1      50.548   7.761  11.326  0.00  0.00    +0.000 C 
ATOM     13  C   UNL     1      50.595   8.105  13.779  0.00  0.00    +0.000 C 
ENDBRANCH   1  11
BRANCH   3  14
ATOM     14  C   UNL     1      45.441   6.273  12.930  0.00  0.00    +0.000 C 
BRANCH  14  15
ATOM     15  C   UNL     1      45.254   5.384  11.725  0.00  0.00    +0.000 A 
ATOM     16  C   UNL     1      44.834   4.056  11.875  0.00  0.00    +0.000 A 
ATOM     17  C   UNL     1      44.778   3.198  10.773  0.00  0.00    +0.000 A 
ATOM     18  C   UNL     1      45.132   3.647   9.493  0.00  0.00    +0.000 A 
ATOM     19  C   UNL     1      45.519   4.985   9.340  0.00  0.00    +0.000 A 
ATOM     20  C   UNL     1      45.574   5.846  10.441  0.00  0.00    +0.000 A 
BRANCH  18  21
ATOM     21  C   UNL     1      45.213   2.657   8.356  0.00  0.00    +0.000 C 
BRANCH  21  22
ATOM     22  N   UNL     1      45.493   1.292   8.788  0.00  0.00    +0.000 NA
ATOM     23  H   UNL     1      46.416   1.027   8.452  0.00  0.00    +0.000 HD
ATOM     24  H   UNL     1      44.830   0.663   8.336  0.00  0.00    +0.000 HD
ENDBRANCH  21  22
ENDBRANCH  18  21
ENDBRANCH  14  15
ENDBRANCH   3  14
TORSDOF 5
ENDMDL
MODEL 8
REMARK VINA RESULT:    -5.253      3.963      6.758
REMARK INTER + INTRA:          -7.338
REMARK INTER:                  -6.573
REMARK INTRA:                  -0.765
REMARK UNBOUND:                -0.703
REMARK  Name = 
REMARK  8 active torsions:
REMARK  status: ('A' for Active; 'I' for Inactive)
REMARK    1  A    between atoms: C_1  and  C_2
REMARK    2  A    between atoms: C_2  and  C_3
REMARK    3  A    between atoms: C_2  and  C_4
REMARK    4  A    between atoms: C_2  and  C_5
REMARK    5  A    between atoms: N_7  and  C_8
REMARK    6  A    between atoms: C_8  and  C_9
REMARK    7  A    between atoms: C_12  and  C_13
REMARK    8  A    between atoms: C_13  and  N_14
REMARK                            x       y       z     vdW  Elec       q    Type
REMARK                         _______ _______ _______ _____ _____    ______ ____
ROOT
ATOM      1  C   UNL     1      48.679   6.436  17.372  0.00  0.00    +0.000 A 
ATOM      2  C   UNL     1      48.644   5.864  16.109  0.00  0.00    +0.000 A 
ATOM      3  N   UNL     1      48.608   6.848  15.158  0.00  0.00    +0.000 N 
ATOM      4  C   UNL     1      48.691   8.083  15.762  0.00  0.00    +0.000 A 
ATOM      5  C   UNL     1      48.748   9.375  15.205  0.00  0.00    +0.000 A 
ATOM      6  C   UNL     1      48.801  10.473  16.061  0.00  0.00    +0.000 A 
ATOM      7  C   UNL     1      48.794  10.296  17.436  0.00  0.00    +0.000 A 
ATOM      8  C   UNL     1      48.745   9.008  17.983  0.00  0.00    +0.000 A 
ATOM      9  C   UNL     1      48.704   7.864  17.151  0.00  0.00    +0.000 A 
ENDROOT
BRANCH   1  11
ATOM     10  C   UNL     1      48.654   4.109  18.318  0.00  0.00    +0.000 C 
ATOM     11  C   UNL     1      48.712   5.614  18.666  0.00  0.00    +0.000 C 
ATOM     12  C   UNL     1      47.490   5.965  19.546  0.00  0.00    +0.000 C 
ATOM     13  C   UNL     1      49.964   5.833  19.532  0.00  0.00    +0.000 C 
ENDBRANCH   1  11
BRANCH   3  14
ATOM     14  C   UNL     1      48.518   6.590  13.723  0.00  0.00    +0.000 C 
BRANCH  14  15
ATOM     15  C   UNL     1      47.116   6.197  13.325  0.00  0.00    +0.000 A 
ATOM     16  C   UNL     1      46.217   7.154  12.835  0.00  0.00    +0.000 A 
ATOM     17  C   UNL     1      44.884   6.816  12.582  0.00  0.00    +0.000 A 
ATOM     18  C   UNL     1      44.418   5.513  12.804  0.00  0.00    +0.000 A 
ATOM     19  C   UNL     1      45.327   4.549  13.263  0.00  0.00    +0.000 A 
ATOM     20  C   UNL     1      46.662   4.885  13.514  0.00  0.00    +0.000 A 
BRANCH  18  21
ATOM     21  C   UNL     1      42.942   5.220  12.674  0.00  0.00    +0.000 C 
BRANCH  21  22
ATOM     22  N   UNL     1      42.231   6.170  11.825  0.00  0.00    +0.000 NA
ATOM     23  H   UNL     1      41.299   6.314  12.208  0.00  0.00    +0.000 HD
ATOM     24  H   UNL     1      42.103   5.752  10.904  0.00  0.00    +0.000 HD
ENDBRANCH  21  22
ENDBRANCH  18  21
ENDBRANCH  14  15
ENDBRANCH   3  14
TORSDOF 5
ENDMDL
MODEL 9
REMARK VINA RESULT:    -5.196      3.905      5.767
REMARK INTER + INTRA:          -7.266
REMARK INTER:                  -6.431
REMARK INTRA:                  -0.835
REMARK UNBOUND:                -0.703
REMARK  Name = 
REMARK  8 active torsions:
REMARK  status: ('A' for Active; 'I' for Inactive)
REMARK    1  A    between atoms: C_1  and  C_2
REMARK    2  A    between atoms: C_2  and  C_3
REMARK    3  A    between atoms: C_2  and  C_4
REMARK    4  A    between atoms: C_2  and  C_5
REMARK    5  A    between atoms: N_7  and  C_8
REMARK    6  A    between atoms: C_8  and  C_9
REMARK    7  A    between atoms: C_12  and  C_13
REMARK    8  A    between atoms: C_13  and  N_14
REMARK                            x       y       z     vdW  Elec       q    Type
REMARK                         _______ _______ _______ _____ _____    ______ ____
ROOT
ATOM      1  C   UNL     1      48.687   7.580  16.984  0.00  0.00    +0.000 A 
ATOM      2  C   UNL     1      48.551   7.557  15.604  0.00  0.00    +0.000 A 
ATOM      3  N   UNL     1      48.341   6.271  15.183  0.00  0.00    +0.000 N 
ATOM      4  C   UNL     1      48.263   5.431  16.272  0.00  0.00    +0.000 A 
ATOM      5  C   UNL     1      48.005   4.049  16.348  0.00  0.00    +0.000 A 
ATOM      6  C   UNL     1      48.010   3.434  17.597  0.00  0.00    +0.000 A 
ATOM      7  C   UNL     1      48.269   4.167  18.744  0.00  0.00    +0.000 A 
ATOM      8  C   UNL     1      48.517   5.544  18.662  0.00  0.00    +0.000 A 
ATOM      9  C   UNL     1      48.508   6.212  17.415  0.00  0.00    +0.000 A 
ENDROOT
BRANCH   1  11
ATOM     10  C   UNL     1      48.947  10.073  16.818  0.00  0.00    +0.000 C 
ATOM     11  C   UNL     1      48.946   8.864  17.782  0.00  0.00    +0.000 C 
ATOM     12  C   UNL     1      50.325   8.785  18.477  0.00  0.00    +0.000 C 
ATOM     13  C   UNL     1      47.908   9.156  18.878  0.00  0.00    +0.000 C 
ENDBRANCH   1  11
BRANCH   3  14
ATOM     14  C   UNL     1      48.203   5.886  13.780  0.00  0.00    +0.000 C 
BRANCH  14  15
ATOM     15  C   UNL     1      46.751   5.765  13.387  0.00  0.00    +0.000 A 
ATOM     16  C   UNL     1      46.105   4.522  13.411  0.00  0.00    +0.000 A 
ATOM     17  C   UNL     1      44.799   4.389  12.932  0.00  0.00    +0.000 A 
ATOM     18  C   UNL     1      44.103   5.494  12.424  0.00  0.00    +0.000 A 
ATOM     19  C   UNL     1      44.739   6.743  12.432  0.00  0.00    +0.000 A 
ATOM     20  C   UNL     1      46.045   6.879  12.913  0.00  0.00    +0.000 A 
BRANCH  18  21
ATOM     21  C   UNL     1      42.758   5.287  11.769  0.00  0.00    +0.000 C 
BRANCH  21  22
ATOM     22  N   UNL     1      41.919   6.481  11.766  0.00  0.00    +0.000 NA
ATOM     23  H   UNL     1      42.157   7.047  12.577  0.00  0.00    +0.000 HD
ATOM     24  H   UNL     1      40.947   6.199  11.884  0.00  0.00    +0.000 HD
ENDBRANCH  21  22
ENDBRANCH  18  21
ENDBRANCH  14  15
ENDBRANCH   3  14
TORSDOF 5
ENDMDL
