MODEL 1
REMARK VINA RESULT:    -8.742      0.000      0.000
REMARK INTER + INTRA:         -10.241
REMARK INTER:                 -10.275
REMARK INTRA:                   0.033
REMARK UNBOUND:                 0.033
REMARK  Name = 
REMARK  3 active torsions:
REMARK  status: ('A' for Active; 'I' for Inactive)
REMARK    1  A    between atoms: C_2  and  C_4
REMARK    2  A    between atoms: C_10  and  C_11
REMARK    3  A    between atoms: C_11  and  C_12
REMARK                            x       y       z     vdW  Elec       q    Type
REMARK                         _______ _______ _______ _____ _____    ______ ____
ROOT
ATOM      1  C   UNL     1      46.524   6.735  12.467  0.00  0.00    +0.000 A 
ATOM      2  C   UNL     1      45.720   5.784  13.074  0.00  0.00    +0.000 A 
ATOM      3  C   UNL     1      45.056   4.851  12.272  0.00  0.00    +0.000 A 
ATOM      4  C   UNL     1      44.225   3.884  12.857  0.00  0.00    +0.000 A 
ATOM      5  C   UNL     1      43.553   2.953  12.072  0.00  0.00    +0.000 A 
ATOM      6  C   UNL     1      43.716   2.963  10.690  0.00  0.00    +0.000 A 
ATOM      7  C   UNL     1      44.553   3.909  10.068  0.00  0.00    +0.000 A 
ATOM      8  C   UNL     1      45.222   4.882  10.866  0.00  0.00    +0.000 A 
ATOM      9  C   UNL     1      46.059   5.902  10.373  0.00  0.00    +0.000 A 
ATOM     10  N   UNL     1      46.716   6.819  11.126  0.00  0.00    +0.000 NA
ENDROOT
BRANCH   1  12
ATOM     11  N   UNL     1      46.441   8.768  13.781  0.00  0.00    +0.000 N 
ATOM     12  C   UNL     1      47.229   7.755  13.306  0.00  0.00    +0.000 C 
ATOM     13  O   UNL     1      48.426   7.695  13.559  0.00  0.00    +0.000 OA
ATOM     14  H   UNL     1      46.839   9.471  14.384  0.00  0.00    +0.000 HD
ATOM     15  H   UNL     1      45.449   8.763  13.571  0.00  0.00    +0.000 HD
ENDBRANCH   1  12
BRANCH   7  16
ATOM     16  C   UNL     1      44.701   3.846   8.559  0.00  0.00    +0.000 C 
BRANCH  16  17
ATOM     17  C   UNL     1      45.723   2.845   8.083  0.00  0.00    +0.000 A 
ATOM     18  N   UNL     1      46.807   3.317   7.416  0.00  0.00    +0.000 NA
ATOM     19  C   UNL     1      47.697   2.415   6.978  0.00  0.00    +0.000 A 
ATOM     20  N   UNL     1      48.784   2.876   6.273  0.00  0.00    +0.000 N 
ATOM     21  N   UNL     1      47.622   1.098   7.201  0.00  0.00    +0.000 NA
ATOM     22  C   UNL     1      46.535   0.664   7.872  0.00  0.00    +0.000 A 
ATOM     23  C   UNL     1      45.546   1.500   8.326  0.00  0.00    +0.000 A 
ATOM     24  F   UNL     1      44.484   1.024   8.987  0.00  0.00    +0.000 F 
ATOM     25  H   UNL     1      48.980   3.840   6.492  0.00  0.00    +0.000 HD
ATOM     26  H   UNL     1      49.545   2.214   6.318  0.00  0.00    +0.000 HD
ENDBRANCH  16  17
ENDBRANCH   7  16
TORSDOF 3
ENDMDL
MODEL 2
REMARK VINA RESULT:    -8.435      2.430      3.271
REMARK INTER + INTRA:          -9.881
REMARK INTER:                  -9.479
REMARK INTRA:                  -0.402
REMARK UNBOUND:                 0.033
REMARK  Name = 
REMARK  3 active torsions:
REMARK  status: ('A' for Active; 'I' for Inactive)
REMARK    1  A    between atoms: C_2  and  C_4
REMARK    2  A    between atoms: C_10  and  C_11
REMARK    3  A    between atoms: C_11  and  C_12
REMARK                            x       y       z     vdW  Elec       q    Type
REMARK                         _______ _______ _______ _____ _____    ______ ____
ROOT
ATOM      1  C   UNL     1      47.041   4.149  14.409  0.00  0.00    +0.000 A 
ATOM      2  C   UNL     1      47.053   5.516  14.183  0.00  0.00    +0.000 A 
ATOM      3  C   UNL     1      46.320   6.028  13.107  0.00  0.00    +0.000 A 
ATOM      4  C   UNL     1      46.323   7.405  12.845  0.00  0.00    +0.000 A 
ATOM      5  C   UNL     1      45.605   7.928  11.774  0.00  0.00    +0.000 A 
ATOM      6  C   UNL     1      44.858   7.082  10.959  0.00  0.00    +0.000 A 
ATOM      7  C   UNL     1      44.819   5.696  11.200  0.00  0.00    +0.000 A 
ATOM      8  C   UNL     1      45.576   5.152  12.279  0.00  0.00    +0.000 A 
ATOM      9  C   UNL     1      45.653   3.786  12.610  0.00  0.00    +0.000 A 
ATOM     10  N   UNL     1      46.353   3.261  13.646  0.00  0.00    +0.000 NA
ENDROOT
BRANCH   1  12
ATOM     11  N   UNL     1      47.916   4.372  16.657  0.00  0.00    +0.000 N 
ATOM     12  C   UNL     1      47.833   3.579  15.544  0.00  0.00    +0.000 C 
ATOM     13  O   UNL     1      48.369   2.479  15.493  0.00  0.00    +0.000 OA
ATOM     14  H   UNL     1      48.401   4.037  17.475  0.00  0.00    +0.000 HD
ATOM     15  H   UNL     1      47.432   5.263  16.666  0.00  0.00    +0.000 HD
ENDBRANCH   1  12
BRANCH   7  16
ATOM     16  C   UNL     1      43.965   4.838  10.285  0.00  0.00    +0.000 C 
BRANCH  16  17
ATOM     17  C   UNL     1      44.755   3.888   9.420  0.00  0.00    +0.000 A 
ATOM     18  N   UNL     1      45.600   4.422   8.502  0.00  0.00    +0.000 NA
ATOM     19  C   UNL     1      46.278   3.567   7.724  0.00  0.00    +0.000 A 
ATOM     20  N   UNL     1      47.113   4.094   6.767  0.00  0.00    +0.000 N 
ATOM     21  N   UNL     1      46.225   2.235   7.827  0.00  0.00    +0.000 NA
ATOM     22  C   UNL     1      45.380   1.737   8.754  0.00  0.00    +0.000 A 
ATOM     23  C   UNL     1      44.610   2.525   9.571  0.00  0.00    +0.000 A 
ATOM     24  F   UNL     1      43.783   1.988  10.476  0.00  0.00    +0.000 F 
ATOM     25  H   UNL     1      47.404   5.029   7.010  0.00  0.00    +0.000 HD
ATOM     26  H   UNL     1      47.826   3.427   6.510  0.00  0.00    +0.000 HD
ENDBRANCH  16  17
ENDBRANCH   7  16
TORSDOF 3
ENDMDL
MODEL 3
REMARK VINA RESULT:    -8.107      2.998      6.347
REMARK INTER + INTRA:          -9.495
REMARK INTER:                  -9.105
REMARK INTRA:                  -0.390
REMARK UNBOUND:                 0.033
REMARK  Name = 
REMARK  3 active torsions:
REMARK  status: ('A' for Active; 'I' for Inactive)
REMARK    1  A    between atoms: C_2  and  C_4
REMARK    2  A    between atoms: C_10  and  C_11
REMARK    3  A    between atoms: C_11  and  C_12
REMARK                            x       y       z     vdW  Elec       q    Type
REMARK                         _______ _______ _______ _____ _____    ______ ____
ROOT
ATOM      1  C   UNL     1      46.395   3.040   7.704  0.00  0.00    +0.000 A 
ATOM      2  C   UNL     1      45.666   2.208   8.538  0.00  0.00    +0.000 A 
ATOM      3  C   UNL     1      44.869   2.783   9.534  0.00  0.00    +0.000 A 
ATOM      4  C   UNL     1      44.130   1.967  10.402  0.00  0.00    +0.000 A 
ATOM      5  C   UNL     1      43.338   2.523  11.401  0.00  0.00    +0.000 A 
ATOM      6  C   UNL     1      43.260   3.906  11.536  0.00  0.00    +0.000 A 
ATOM      7  C   UNL     1      43.976   4.758  10.674  0.00  0.00    +0.000 A 
ATOM      8  C   UNL     1      44.810   4.191   9.666  0.00  0.00    +0.000 A 
ATOM      9  C   UNL     1      45.603   4.923   8.762  0.00  0.00    +0.000 A 
ATOM     10  N   UNL     1      46.384   4.395   7.787  0.00  0.00    +0.000 NA
ENDROOT
BRANCH   1  12
ATOM     11  N   UNL     1      47.243   3.089   5.435  0.00  0.00    +0.000 N 
ATOM     12  C   UNL     1      47.269   2.446   6.643  0.00  0.00    +0.000 C 
ATOM     13  O   UNL     1      47.965   1.456   6.834  0.00  0.00    +0.000 OA
ATOM     14  H   UNL     1      47.835   2.768   4.685  0.00  0.00    +0.000 HD
ATOM     15  H   UNL     1      46.675   3.922   5.330  0.00  0.00    +0.000 HD
ENDBRANCH   1  12
BRANCH   7  16
ATOM     16  C   UNL     1      43.824   6.255  10.865  0.00  0.00    +0.000 C 
BRANCH  16  17
ATOM     17  C   UNL     1      44.875   6.871  11.754  0.00  0.00    +0.000 A 
ATOM     18  N   UNL     1      45.594   6.041  12.551  0.00  0.00    +0.000 NA
ATOM     19  C   UNL     1      46.509   6.603  13.353  0.00  0.00    +0.000 A 
ATOM     20  N   UNL     1      47.222   5.777  14.191  0.00  0.00    +0.000 N 
ATOM     21  N   UNL     1      46.803   7.908  13.380  0.00  0.00    +0.000 NA
ATOM     22  C   UNL     1      46.074   8.703  12.571  0.00  0.00    +0.000 A 
ATOM     23  C   UNL     1      45.085   8.234  11.743  0.00  0.00    +0.000 A 
ATOM     24  F   UNL     1      44.386   9.061  10.957  0.00  0.00    +0.000 F 
ATOM     25  H   UNL     1      47.246   4.832  13.840  0.00  0.00    +0.000 HD
ATOM     26  H   UNL     1      48.097   6.208  14.456  0.00  0.00    +0.000 HD
ENDBRANCH  16  17
ENDBRANCH   7  16
TORSDOF 3
ENDMDL
MODEL 4
REMARK VINA RESULT:    -7.923      2.427      2.988
REMARK INTER + INTRA:          -9.280
REMARK INTER:                  -9.571
REMARK INTRA:                   0.292
REMARK UNBOUND:                 0.033
REMARK  Name = 
REMARK  3 active torsions:
REMARK  status: ('A' for Active; 'I' for Inactive)
REMARK    1  A    between atoms: C_2  and  C_4
REMARK    2  A    between atoms: C_10  and  C_11
REMARK    3  A    between atoms: C_11  and  C_12
REMARK                            x       y       z     vdW  Elec       q    Type
REMARK                         _______ _______ _______ _____ _____    ______ ____
ROOT
ATOM      1  C   UNL     1      46.822   4.264  14.313  0.00  0.00    +0.000 A 
ATOM      2  C   UNL     1      46.138   5.417  13.959  0.00  0.00    +0.000 A 
ATOM      3  C   UNL     1      45.304   5.388  12.837  0.00  0.00    +0.000 A 
ATOM      4  C   UNL     1      44.609   6.542  12.447  0.00  0.00    +0.000 A 
ATOM      5  C   UNL     1      43.781   6.531  11.330  0.00  0.00    +0.000 A 
ATOM      6  C   UNL     1      43.620   5.360  10.595  0.00  0.00    +0.000 A 
ATOM      7  C   UNL     1      44.290   4.178  10.964  0.00  0.00    +0.000 A 
ATOM      8  C   UNL     1      45.161   4.192  12.093  0.00  0.00    +0.000 A 
ATOM      9  C   UNL     1      45.915   3.095  12.551  0.00  0.00    +0.000 A 
ATOM     10  N   UNL     1      46.731   3.092  13.634  0.00  0.00    +0.000 NA
ENDROOT
BRANCH   1  12
ATOM     11  N   UNL     1      47.875   5.492  16.116  0.00  0.00    +0.000 N 
ATOM     12  C   UNL     1      47.735   4.278  15.499  0.00  0.00    +0.000 C 
ATOM     13  O   UNL     1      48.317   3.278  15.901  0.00  0.00    +0.000 OA
ATOM     14  H   UNL     1      48.444   5.570  16.944  0.00  0.00    +0.000 HD
ATOM     15  H   UNL     1      47.351   6.287  15.767  0.00  0.00    +0.000 HD
ENDBRANCH   1  12
BRANCH   7  16
ATOM     16  C   UNL     1      44.049   2.933  10.131  0.00  0.00    +0.000 C 
BRANCH  16  17
ATOM     17  C   UNL     1      45.103   2.683   9.082  0.00  0.00    +0.000 A 
ATOM     18  N   UNL     1      45.480   1.398   8.859  0.00  0.00    +0.000 NA
ATOM     19  C   UNL     1      46.434   1.191   7.941  0.00  0.00    +0.000 A 
ATOM     20  N   UNL     1      46.850  -0.103   7.728  0.00  0.00    +0.000 N 
ATOM     21  N   UNL     1      46.995   2.148   7.194  0.00  0.00    +0.000 NA
ATOM     22  C   UNL     1      46.593   3.412   7.437  0.00  0.00    +0.000 A 
ATOM     23  C   UNL     1      45.654   3.736   8.383  0.00  0.00    +0.000 A 
ATOM     24  F   UNL     1      45.286   5.005   8.592  0.00  0.00    +0.000 F 
ATOM     25  H   UNL     1      46.140  -0.765   8.001  0.00  0.00    +0.000 HD
ATOM     26  H   UNL     1      47.261  -0.199   6.811  0.00  0.00    +0.000 HD
ENDBRANCH  16  17
ENDBRANCH   7  16
TORSDOF 3
ENDMDL
MODEL 5
REMARK VINA RESULT:    -7.875      2.002      2.501
REMARK INTER + INTRA:          -9.222
REMARK INTER:                  -8.751
REMARK INTRA:                  -0.471
REMARK UNBOUND:                 0.033
REMARK  Name = 
REMARK  3 active torsions:
REMARK  status: ('A' for Active; 'I' for Inactive)
REMARK    1  A    between atoms: C_2  and  C_4
REMARK    2  A    between atoms: C_10  and  C_11
REMARK    3  A    between atoms: C_11  and  C_12
REMARK                            x       y       z     vdW  Elec       q    Type
REMARK                         _______ _______ _______ _____ _____    ______ ____
ROOT
ATOM      1  C   UNL     1      45.236   8.053  12.072  0.00  0.00    +0.000 A 
ATOM      2  C   UNL     1      45.919   7.214  12.937  0.00  0.00    +0.000 A 
ATOM      3  C   UNL     1      45.856   5.833  12.727  0.00  0.00    +0.000 A 
ATOM      4  C   UNL     1      46.526   4.957  13.594  0.00  0.00    +0.000 A 
ATOM      5  C   UNL     1      46.466   3.581  13.402  0.00  0.00    +0.000 A 
ATOM      6  C   UNL     1      45.750   3.059  12.329  0.00  0.00    +0.000 A 
ATOM      7  C   UNL     1      45.077   3.907  11.429  0.00  0.00    +0.000 A 
ATOM      8  C   UNL     1      45.112   5.317  11.638  0.00  0.00    +0.000 A 
ATOM      9  C   UNL     1      44.458   6.274  10.838  0.00  0.00    +0.000 A 
ATOM     10  N   UNL     1      44.502   7.617  11.016  0.00  0.00    +0.000 NA
ENDROOT
BRANCH   1  12
ATOM     11  N   UNL     1      44.058  10.159  12.279  0.00  0.00    +0.000 N 
ATOM     12  C   UNL     1      45.276   9.534  12.289  0.00  0.00    +0.000 C 
ATOM     13  O   UNL     1      46.319  10.151  12.468  0.00  0.00    +0.000 OA
ATOM     14  H   UNL     1      44.004  11.150  12.457  0.00  0.00    +0.000 HD
ATOM     15  H   UNL     1      43.218   9.605  12.157  0.00  0.00    +0.000 HD
ENDBRANCH   1  12
BRANCH   7  16
ATOM     16  C   UNL     1      44.335   3.270  10.269  0.00  0.00    +0.000 C 
BRANCH  16  17
ATOM     17  C   UNL     1      45.223   2.876   9.115  0.00  0.00    +0.000 A 
ATOM     18  N   UNL     1      45.529   1.561   8.974  0.00  0.00    +0.000 NA
ATOM     19  C   UNL     1      46.337   1.227   7.958  0.00  0.00    +0.000 A 
ATOM     20  N   UNL     1      46.683  -0.097   7.822  0.00  0.00    +0.000 N 
ATOM     21  N   UNL     1      46.812   2.083   7.047  0.00  0.00    +0.000 NA
ATOM     22  C   UNL     1      46.484   3.380   7.213  0.00  0.00    +0.000 A 
ATOM     23  C   UNL     1      45.697   3.832   8.243  0.00  0.00    +0.000 A 
ATOM     24  F   UNL     1      45.397   5.130   8.371  0.00  0.00    +0.000 F 
ATOM     25  H   UNL     1      46.002  -0.700   8.256  0.00  0.00    +0.000 HD
ATOM     26  H   UNL     1      46.957  -0.298   6.871  0.00  0.00    +0.000 HD
ENDBRANCH  16  17
ENDBRANCH   7  16
TORSDOF 3
ENDMDL
MODEL 6
REMARK VINA RESULT:    -7.719      2.893      6.066
REMARK INTER + INTRA:          -9.040
REMARK INTER:                  -8.606
REMARK INTRA:                  -0.434
REMARK UNBOUND:                 0.033
REMARK  Name = 
REMARK  3 active torsions:
REMARK  status: ('A' for Active; 'I' for Inactive)
REMARK    1  A    between atoms: C_2  and  C_4
REMARK    2  A    between atoms: C_10  and  C_11
REMARK    3  A    between atoms: C_11  and  C_12
REMARK                            x       y       z     vdW  Elec       q    Type
REMARK                         _______ _______ _______ _____ _____    ______ ____
ROOT
ATOM      1  C   UNL     1      46.299   3.129   7.463  0.00  0.00    +0.000 A 
ATOM      2  C   UNL     1      45.419   2.409   8.255  0.00  0.00    +0.000 A 
ATOM      3  C   UNL     1      44.881   3.020   9.392  0.00  0.00    +0.000 A 
ATOM      4  C   UNL     1      43.998   2.313  10.220  0.00  0.00    +0.000 A 
ATOM      5  C   UNL     1      43.460   2.905  11.358  0.00  0.00    +0.000 A 
ATOM      6  C   UNL     1      43.783   4.221  11.675  0.00  0.00    +0.000 A 
ATOM      7  C   UNL     1      44.655   4.967  10.861  0.00  0.00    +0.000 A 
ATOM      8  C   UNL     1      45.231   4.355   9.708  0.00  0.00    +0.000 A 
ATOM      9  C   UNL     1      46.139   4.973   8.828  0.00  0.00    +0.000 A 
ATOM     10  N   UNL     1      46.676   4.407   7.719  0.00  0.00    +0.000 NA
ENDROOT
BRANCH   1  12
ATOM     11  N   UNL     1      47.144   3.332   5.201  0.00  0.00    +0.000 N 
ATOM     12  C   UNL     1      46.901   2.488   6.251  0.00  0.00    +0.000 C 
ATOM     13  O   UNL     1      47.165   1.293   6.194  0.00  0.00    +0.000 OA
ATOM     14  H   UNL     1      47.583   2.979   4.366  0.00  0.00    +0.000 HD
ATOM     15  H   UNL     1      46.936   4.319   5.302  0.00  0.00    +0.000 HD
ENDBRANCH   1  12
BRANCH   7  16
ATOM     16  C   UNL     1      44.945   6.403  11.256  0.00  0.00    +0.000 C 
BRANCH  16  17
ATOM     17  C   UNL     1      46.248   6.587  11.991  0.00  0.00    +0.000 A 
ATOM     18  N   UNL     1      47.236   7.275  11.363  0.00  0.00    +0.000 NA
ATOM     19  C   UNL     1      48.398   7.412  12.018  0.00  0.00    +0.000 A 
ATOM     20  N   UNL     1      49.419   8.077  11.381  0.00  0.00    +0.000 N 
ATOM     21  N   UNL     1      48.630   6.972  13.260  0.00  0.00    +0.000 NA
ATOM     22  C   UNL     1      47.626   6.299  13.856  0.00  0.00    +0.000 A 
ATOM     23  C   UNL     1      46.413   6.068  13.257  0.00  0.00    +0.000 A 
ATOM     24  F   UNL     1      45.444   5.393  13.887  0.00  0.00    +0.000 F 
ATOM     25  H   UNL     1      49.063   8.701  10.673  0.00  0.00    +0.000 HD
ATOM     26  H   UNL     1      50.077   8.446  12.052  0.00  0.00    +0.000 HD
ENDBRANCH  16  17
ENDBRANCH   7  16
TORSDOF 3
ENDMDL
MODEL 7
REMARK VINA RESULT:    -7.256      3.940      5.645
REMARK INTER + INTRA:          -8.495
REMARK INTER:                  -8.511
REMARK INTRA:                   0.016
REMARK UNBOUND:                 0.033
REMARK  Name = 
REMARK  3 active torsions:
REMARK  status: ('A' for Active; 'I' for Inactive)
REMARK    1  A    between atoms: C_2  and  C_4
REMARK    2  A    between atoms: C_10  and  C_11
REMARK    3  A    between atoms: C_11  and  C_12
REMARK                            x       y       z     vdW  Elec       q    Type
REMARK                         _______ _______ _______ _____ _____    ______ ____
ROOT
ATOM      1  C   UNL     1      47.521   4.316  15.681  0.00  0.00    +0.000 A 
ATOM      2  C   UNL     1      48.038   5.601  15.648  0.00  0.00    +0.000 A 
ATOM      3  C   UNL     1      47.918   6.346  14.470  0.00  0.00    +0.000 A 
ATOM      4  C   UNL     1      48.443   7.644  14.402  0.00  0.00    +0.000 A 
ATOM      5  C   UNL     1      48.337   8.395  13.236  0.00  0.00    +0.000 A 
ATOM      6  C   UNL     1      47.688   7.865  12.125  0.00  0.00    +0.000 A 
ATOM      7  C   UNL     1      47.136   6.571  12.160  0.00  0.00    +0.000 A 
ATOM      8  C   UNL     1      47.266   5.787  13.344  0.00  0.00    +0.000 A 
ATOM      9  C   UNL     1      46.791   4.471  13.504  0.00  0.00    +0.000 A 
ATOM     10  N   UNL     1      46.893   3.725  14.632  0.00  0.00    +0.000 NA
ENDROOT
BRANCH   1  12
ATOM     11  N   UNL     1      48.917   3.430  17.451  0.00  0.00    +0.000 N 
ATOM     12  C   UNL     1      47.655   3.494  16.925  0.00  0.00    +0.000 C 
ATOM     13  O   UNL     1      46.707   2.919  17.446  0.00  0.00    +0.000 OA
ATOM     14  H   UNL     1      49.076   2.926  18.309  0.00  0.00    +0.000 HD
ATOM     15  H   UNL     1      49.666   3.945  17.003  0.00  0.00    +0.000 HD
ENDBRANCH   1  12
BRANCH   7  16
ATOM     16  C   UNL     1      46.422   6.067  10.919  0.00  0.00    +0.000 C 
BRANCH  16  17
ATOM     17  C   UNL     1      45.032   5.543  11.180  0.00  0.00    +0.000 A 
ATOM     18  N   UNL     1      44.857   4.197  11.192  0.00  0.00    +0.000 NA
ATOM     19  C   UNL     1      43.612   3.744  11.402  0.00  0.00    +0.000 A 
ATOM     20  N   UNL     1      43.413   2.384  11.383  0.00  0.00    +0.000 N 
ATOM     21  N   UNL     1      42.551   4.518  11.656  0.00  0.00    +0.000 NA
ATOM     22  C   UNL     1      42.762   5.850  11.643  0.00  0.00    +0.000 A 
ATOM     23  C   UNL     1      43.988   6.417  11.397  0.00  0.00    +0.000 A 
ATOM     24  F   UNL     1      44.151   7.745  11.392  0.00  0.00    +0.000 F 
ATOM     25  H   UNL     1      44.265   1.886  11.592  0.00  0.00    +0.000 HD
ATOM     26  H   UNL     1      42.581   2.139  11.900  0.00  0.00    +0.000 HD
ENDBRANCH  16  17
ENDBRANCH   7  16
TORSDOF 3
ENDMDL
MODEL 8
REMARK VINA RESULT:    -7.178      2.183      3.162
REMARK INTER + INTRA:          -8.403
REMARK INTER:                  -7.842
REMARK INTRA:                  -0.561
REMARK UNBOUND:                 0.033
REMARK  Name = 
REMARK  3 active torsions:
REMARK  status: ('A' for Active; 'I' for Inactive)
REMARK    1  A    between atoms: C_2  and  C_4
REMARK    2  A    between atoms: C_10  and  C_11
REMARK    3  A    between atoms: C_11  and  C_12
REMARK                            x       y       z     vdW  Elec       q    Type
REMARK                         _______ _______ _______ _____ _____    ______ ____
ROOT
ATOM      1  C   UNL     1      49.317   7.943  12.661  0.00  0.00    +0.000 A 
ATOM      2  C   UNL     1      48.961   6.986  13.598  0.00  0.00    +0.000 A 
ATOM      3  C   UNL     1      47.789   6.249  13.398  0.00  0.00    +0.000 A 
ATOM      4  C   UNL     1      47.396   5.283  14.335  0.00  0.00    +0.000 A 
ATOM      5  C   UNL     1      46.230   4.547  14.153  0.00  0.00    +0.000 A 
ATOM      6  C   UNL     1      45.448   4.754  13.020  0.00  0.00    +0.000 A 
ATOM      7  C   UNL     1      45.817   5.704  12.051  0.00  0.00    +0.000 A 
ATOM      8  C   UNL     1      46.997   6.481  12.247  0.00  0.00    +0.000 A 
ATOM      9  C   UNL     1      47.464   7.484  11.377  0.00  0.00    +0.000 A 
ATOM     10  N   UNL     1      48.595   8.214  11.544  0.00  0.00    +0.000 NA
ENDROOT
BRANCH   1  12
ATOM     11  N   UNL     1      51.701   8.034  13.077  0.00  0.00    +0.000 N 
ATOM     12  C   UNL     1      50.557   8.756  12.866  0.00  0.00    +0.000 C 
ATOM     13  O   UNL     1      50.560   9.980  12.843  0.00  0.00    +0.000 OA
ATOM     14  H   UNL     1      52.582   8.513  13.185  0.00  0.00    +0.000 HD
ATOM     15  H   UNL     1      51.658   7.022  13.059  0.00  0.00    +0.000 HD
ENDBRANCH   1  12
BRANCH   7  16
ATOM     16  C   UNL     1      44.929   5.860  10.830  0.00  0.00    +0.000 C 
BRANCH  16  17
ATOM     17  C   UNL     1      45.075   4.751   9.819  0.00  0.00    +0.000 A 
ATOM     18  N   UNL     1      45.994   4.912   8.832  0.00  0.00    +0.000 NA
ATOM     19  C   UNL     1      46.097   3.930   7.926  0.00  0.00    +0.000 A 
ATOM     20  N   UNL     1      47.000   4.094   6.902  0.00  0.00    +0.000 N 
ATOM     21  N   UNL     1      45.406   2.785   7.959  0.00  0.00    +0.000 NA
ATOM     22  C   UNL     1      44.507   2.655   8.956  0.00  0.00    +0.000 A 
ATOM     23  C   UNL     1      44.294   3.619   9.909  0.00  0.00    +0.000 A 
ATOM     24  F   UNL     1      43.389   3.448  10.880  0.00  0.00    +0.000 F 
ATOM     25  H   UNL     1      47.731   4.740   7.159  0.00  0.00    +0.000 HD
ATOM     26  H   UNL     1      47.270   3.200   6.518  0.00  0.00    +0.000 HD
ENDBRANCH  16  17
ENDBRANCH   7  16
TORSDOF 3
ENDMDL
MODEL 9
REMARK VINA RESULT:    -7.009      4.781      7.983
REMARK INTER + INTRA:          -8.205
REMARK INTER:                  -7.641
REMARK INTRA:                  -0.563
REMARK UNBOUND:                 0.033
REMARK  Name = 
REMARK  3 active torsions:
REMARK  status: ('A' for Active; 'I' for Inactive)
REMARK    1  A    between atoms: C_2  and  C_4
REMARK    2  A    between atoms: C_10  and  C_11
REMARK    3  A    between atoms: C_11  and  C_12
REMARK                            x       y       z     vdW  Elec       q    Type
REMARK                         _______ _______ _______ _____ _____    ______ ____
ROOT
ATOM      1  C   UNL     1      44.778   4.310  12.427  0.00  0.00    +0.000 A 
ATOM      2  C   UNL     1      44.644   5.675  12.225  0.00  0.00    +0.000 A 
ATOM      3  C   UNL     1      45.616   6.532  12.751  0.00  0.00    +0.000 A 
ATOM      4  C   UNL     1      45.501   7.918  12.574  0.00  0.00    +0.000 A 
ATOM      5  C   UNL     1      46.456   8.785  13.097  0.00  0.00    +0.000 A 
ATOM      6  C   UNL     1      47.551   8.276  13.789  0.00  0.00    +0.000 A 
ATOM      7  C   UNL     1      47.707   6.889  13.974  0.00  0.00    +0.000 A 
ATOM      8  C   UNL     1      46.717   6.000  13.464  0.00  0.00    +0.000 A 
ATOM      9  C   UNL     1      46.732   4.599  13.606  0.00  0.00    +0.000 A 
ATOM     10  N   UNL     1      45.806   3.743  13.108  0.00  0.00    +0.000 NA
ENDROOT
BRANCH   1  12
ATOM     11  N   UNL     1      43.724   2.129  12.454  0.00  0.00    +0.000 N 
ATOM     12  C   UNL     1      43.740   3.376  11.888  0.00  0.00    +0.000 C 
ATOM     13  O   UNL     1      42.952   3.695  11.007  0.00  0.00    +0.000 OA
ATOM     14  H   UNL     1      43.027   1.459  12.169  0.00  0.00    +0.000 HD
ATOM     15  H   UNL     1      44.375   1.917  13.202  0.00  0.00    +0.000 HD
ENDBRANCH   1  12
BRANCH   7  16
ATOM     16  C   UNL     1      48.937   6.405  14.719  0.00  0.00    +0.000 C 
BRANCH  16  17
ATOM     17  C   UNL     1      48.697   6.115  16.179  0.00  0.00    +0.000 A 
ATOM     18  N   UNL     1      48.391   4.839  16.528  0.00  0.00    +0.000 NA
ATOM     19  C   UNL     1      48.156   4.599  17.826  0.00  0.00    +0.000 A 
ATOM     20  N   UNL     1      47.812   3.318  18.189  0.00  0.00    +0.000 N 
ATOM     21  N   UNL     1      48.260   5.508  18.801  0.00  0.00    +0.000 NA
ATOM     22  C   UNL     1      48.571   6.764  18.420  0.00  0.00    +0.000 A 
ATOM     23  C   UNL     1      48.790   7.123  17.114  0.00  0.00    +0.000 A 
ATOM     24  F   UNL     1      49.096   8.383  16.782  0.00  0.00    +0.000 F 
ATOM     25  H   UNL     1      48.142   2.645  17.515  0.00  0.00    +0.000 HD
ATOM     26  H   UNL     1      48.022   3.156  19.164  0.00  0.00    +0.000 HD
ENDBRANCH  16  17
ENDBRANCH   7  16
TORSDOF 3
ENDMDL
