MODEL 1
REMARK VINA RESULT:    -9.676      0.000      0.000
REMARK INTER + INTRA:         -12.237
REMARK INTER:                 -11.939
REMARK INTRA:                  -0.298
REMARK UNBOUND:                -0.298
REMARK  Name = 
REMARK  4 active torsions:
REMARK  status: ('A' for Active; 'I' for Inactive)
REMARK    1  A    between atoms: C_2  and  C_4
REMARK    2  A    between atoms: N_8  and  C_9
REMARK    3  A    between atoms: C_9  and  C_10
REMARK    4  A    between atoms: C_14  and  C_15
REMARK                            x       y       z     vdW  Elec       q    Type
REMARK                         _______ _______ _______ _____ _____    ______ ____
ROOT
ATOM      1  C   UNL     1      44.036   4.815  11.666  0.00  0.00    +0.000 C 
ATOM      2  C   UNL     1      42.799   5.166  12.480  0.00  0.00    +0.000 C 
ATOM      3  C   UNL     1      43.067   5.899  11.210  0.00  0.00    +0.000 C 
ENDROOT
BRANCH   1   8
ATOM      4  C   UNL     1      46.393   2.743   7.545  0.00  0.00    +0.000 A 
ATOM      5  C   UNL     1      46.136   4.074   7.859  0.00  0.00    +0.000 A 
ATOM      6  C   UNL     1      45.361   4.369   8.981  0.00  0.00    +0.000 A 
ATOM      7  C   UNL     1      44.860   3.339   9.773  0.00  0.00    +0.000 A 
ATOM      8  N   UNL     1      44.069   3.563  10.901  0.00  0.00    +0.000 N 
ATOM      9  N   UNL     1      45.093   2.045   9.469  0.00  0.00    +0.000 NA
ATOM     10  C   UNL     1      45.838   1.773   8.365  0.00  0.00    +0.000 A 
ATOM     11  H   UNL     1      43.900   2.676  11.365  0.00  0.00    +0.000 HD
BRANCH   4  13
ATOM     12  N   UNL     1      47.165   3.133   5.275  0.00  0.00    +0.000 N 
ATOM     13  C   UNL     1      47.203   2.327   6.380  0.00  0.00    +0.000 C 
ATOM     14  O   UNL     1      47.902   1.325   6.409  0.00  0.00    +0.000 OA
ATOM     15  H   UNL     1      47.795   2.893   4.522  0.00  0.00    +0.000 HD
ATOM     16  H   UNL     1      46.802   4.077   5.296  0.00  0.00    +0.000 HD
ENDBRANCH   4  13
ENDBRANCH   1   8
BRANCH   1  17
ATOM     17  C   UNL     1      45.396   5.323  12.136  0.00  0.00    +0.000 A 
ATOM     18  C   UNL     1      46.064   6.362  11.473  0.00  0.00    +0.000 A 
ATOM     19  C   UNL     1      47.232   6.919  11.997  0.00  0.00    +0.000 A 
ATOM     20  C   UNL     1      47.750   6.447  13.204  0.00  0.00    +0.000 A 
ATOM     21  C   UNL     1      47.123   5.403  13.901  0.00  0.00    +0.000 A 
ATOM     22  C   UNL     1      45.975   4.839  13.322  0.00  0.00    +0.000 A 
BRANCH  21  23
ATOM     23  C   UNL     1      47.554   4.981  15.249  0.00  0.00    +0.000 A 
ATOM     24  C   UNL     1      48.421   5.794  16.005  0.00  0.00    +0.000 A 
ATOM     25  C   UNL     1      48.766   5.471  17.320  0.00  0.00    +0.000 A 
ATOM     26  C   UNL     1      48.244   4.328  17.912  0.00  0.00    +0.000 A 
ATOM     27  C   UNL     1      47.390   3.514  17.181  0.00  0.00    +0.000 A 
ATOM     28  F   UNL     1      46.867   2.424  17.756  0.00  0.00    +0.000 F 
ATOM     29  C   UNL     1      47.051   3.822  15.864  0.00  0.00    +0.000 A 
ENDBRANCH  21  23
ENDBRANCH   1  17
TORSDOF 4
ENDMDL
MODEL 2
REMARK VINA RESULT:    -9.241      2.647      4.013
REMARK INTER + INTRA:         -11.701
REMARK INTER:                 -11.295
REMARK INTRA:                  -0.406
REMARK UNBOUND:                -0.298
REMARK  Name = 
REMARK  4 active torsions:
REMARK  status: ('A' for Active; 'I' for Inactive)
REMARK    1  A    between atoms: C_2  and  C_4
REMARK    2  A    between atoms: N_8  and  C_9
REMARK    3  A    between atoms: C_9  and  C_10
REMARK    4  A    between atoms: C_14  and  C_15
REMARK                            x       y       z     vdW  Elec       q    Type
REMARK                         _______ _______ _______ _____ _____    ______ ____
ROOT
ATOM      1  C   UNL     1      43.771   4.809  11.579  0.00  0.00    +0.000 C 
ATOM      2  C   UNL     1      42.422   5.292  12.092  0.00  0.00    +0.000 C 
ATOM      3  C   UNL     1      43.071   6.014  10.961  0.00  0.00    +0.000 C 
ENDROOT
BRANCH   1   8
ATOM      4  C   UNL     1      46.423   2.806   7.607  0.00  0.00    +0.000 A 
ATOM      5  C   UNL     1      46.166   4.133   7.938  0.00  0.00    +0.000 A 
ATOM      6  C   UNL     1      45.306   4.411   9.001  0.00  0.00    +0.000 A 
ATOM      7  C   UNL     1      44.721   3.371   9.718  0.00  0.00    +0.000 A 
ATOM      8  N   UNL     1      43.844   3.579  10.783  0.00  0.00    +0.000 N 
ATOM      9  N   UNL     1      44.955   2.081   9.394  0.00  0.00    +0.000 NA
ATOM     10  C   UNL     1      45.784   1.825   8.348  0.00  0.00    +0.000 A 
ATOM     11  H   UNL     1      43.620   2.682  11.204  0.00  0.00    +0.000 HD
BRANCH   4  13
ATOM     12  N   UNL     1      47.262   3.149   5.352  0.00  0.00    +0.000 N 
ATOM     13  C   UNL     1      47.320   2.406   6.501  0.00  0.00    +0.000 C 
ATOM     14  O   UNL     1      48.101   1.474   6.612  0.00  0.00    +0.000 OA
ATOM     15  H   UNL     1      47.944   2.929   4.641  0.00  0.00    +0.000 HD
ATOM     16  H   UNL     1      46.817   4.056   5.307  0.00  0.00    +0.000 HD
ENDBRANCH   4  13
ENDBRANCH   1   8
BRANCH   1  17
ATOM     17  C   UNL     1      45.026   5.135  12.383  0.00  0.00    +0.000 A 
ATOM     18  C   UNL     1      45.616   4.198  13.242  0.00  0.00    +0.000 A 
ATOM     19  C   UNL     1      46.844   4.454  13.854  0.00  0.00    +0.000 A 
ATOM     20  C   UNL     1      47.510   5.657  13.609  0.00  0.00    +0.000 A 
ATOM     21  C   UNL     1      46.956   6.630  12.764  0.00  0.00    +0.000 A 
ATOM     22  C   UNL     1      45.701   6.356  12.200  0.00  0.00    +0.000 A 
BRANCH  21  23
ATOM     23  C   UNL     1      47.696   7.844  12.366  0.00  0.00    +0.000 A 
ATOM     24  C   UNL     1      49.060   7.764  12.021  0.00  0.00    +0.000 A 
ATOM     25  C   UNL     1      49.760   8.875  11.543  0.00  0.00    +0.000 A 
ATOM     26  C   UNL     1      49.108  10.093  11.393  0.00  0.00    +0.000 A 
ATOM     27  C   UNL     1      47.764  10.190  11.730  0.00  0.00    +0.000 A 
ATOM     28  F   UNL     1      47.127  11.356  11.564  0.00  0.00    +0.000 F 
ATOM     29  C   UNL     1      47.062   9.090  12.219  0.00  0.00    +0.000 A 
ENDBRANCH  21  23
ENDBRANCH   1  17
TORSDOF 4
ENDMDL
MODEL 3
REMARK VINA RESULT:    -8.134      4.453      7.881
REMARK INTER + INTRA:         -10.334
REMARK INTER:                  -9.939
REMARK INTRA:                  -0.395
REMARK UNBOUND:                -0.298
REMARK  Name = 
REMARK  4 active torsions:
REMARK  status: ('A' for Active; 'I' for Inactive)
REMARK    1  A    between atoms: C_2  and  C_4
REMARK    2  A    between atoms: N_8  and  C_9
REMARK    3  A    between atoms: C_9  and  C_10
REMARK    4  A    between atoms: C_14  and  C_15
REMARK                            x       y       z     vdW  Elec       q    Type
REMARK                         _______ _______ _______ _____ _____    ______ ____
ROOT
ATOM      1  C   UNL     1      48.537   7.704  12.854  0.00  0.00    +0.000 C 
ATOM      2  C   UNL     1      49.704   7.319  11.956  0.00  0.00    +0.000 C 
ATOM      3  C   UNL     1      49.337   8.757  12.094  0.00  0.00    +0.000 C 
ENDROOT
BRANCH   1   8
ATOM      4  C   UNL     1      47.845   4.413  16.792  0.00  0.00    +0.000 A 
ATOM      5  C   UNL     1      47.224   4.469  15.549  0.00  0.00    +0.000 A 
ATOM      6  C   UNL     1      47.498   5.544  14.703  0.00  0.00    +0.000 A 
ATOM      7  C   UNL     1      48.386   6.539  15.102  0.00  0.00    +0.000 A 
ATOM      8  N   UNL     1      48.695   7.647  14.311  0.00  0.00    +0.000 N 
ATOM      9  N   UNL     1      48.982   6.499  16.312  0.00  0.00    +0.000 NA
ATOM     10  C   UNL     1      48.695   5.453  17.132  0.00  0.00    +0.000 A 
ATOM     11  H   UNL     1      49.427   8.182  14.768  0.00  0.00    +0.000 HD
BRANCH   4  13
ATOM     12  N   UNL     1      48.466   3.256  18.837  0.00  0.00    +0.000 N 
ATOM     13  C   UNL     1      47.623   3.317  17.760  0.00  0.00    +0.000 C 
ATOM     14  O   UNL     1      46.710   2.516  17.625  0.00  0.00    +0.000 OA
ATOM     15  H   UNL     1      48.246   2.565  19.540  0.00  0.00    +0.000 HD
ATOM     16  H   UNL     1      49.065   4.024  19.109  0.00  0.00    +0.000 HD
ENDBRANCH   4  13
ENDBRANCH   1   8
BRANCH   1  17
ATOM     17  C   UNL     1      47.114   7.488  12.347  0.00  0.00    +0.000 A 
ATOM     18  C   UNL     1      46.157   8.512  12.379  0.00  0.00    +0.000 A 
ATOM     19  C   UNL     1      44.908   8.350  11.777  0.00  0.00    +0.000 A 
ATOM     20  C   UNL     1      44.597   7.156  11.123  0.00  0.00    +0.000 A 
ATOM     21  C   UNL     1      45.518   6.099  11.071  0.00  0.00    +0.000 A 
ATOM     22  C   UNL     1      46.747   6.282  11.724  0.00  0.00    +0.000 A 
BRANCH  21  23
ATOM     23  C   UNL     1      45.283   4.885  10.265  0.00  0.00    +0.000 A 
ATOM     24  C   UNL     1      44.550   3.808  10.798  0.00  0.00    +0.000 A 
ATOM     25  C   UNL     1      44.225   2.689  10.026  0.00  0.00    +0.000 A 
ATOM     26  C   UNL     1      44.622   2.628   8.695  0.00  0.00    +0.000 A 
ATOM     27  C   UNL     1      45.348   3.680   8.154  0.00  0.00    +0.000 A 
ATOM     28  F   UNL     1      45.712   3.634   6.866  0.00  0.00    +0.000 F 
ATOM     29  C   UNL     1      45.687   4.793   8.921  0.00  0.00    +0.000 A 
ENDBRANCH  21  23
ENDBRANCH   1  17
TORSDOF 4
ENDMDL
MODEL 4
REMARK VINA RESULT:    -7.511      4.453      7.592
REMARK INTER + INTRA:          -9.566
REMARK INTER:                  -9.234
REMARK INTRA:                  -0.332
REMARK UNBOUND:                -0.298
REMARK  Name = 
REMARK  4 active torsions:
REMARK  status: ('A' for Active; 'I' for Inactive)
REMARK    1  A    between atoms: C_2  and  C_4
REMARK    2  A    between atoms: N_8  and  C_9
REMARK    3  A    between atoms: C_9  and  C_10
REMARK    4  A    between atoms: C_14  and  C_15
REMARK                            x       y       z     vdW  Elec       q    Type
REMARK                         _______ _______ _______ _____ _____    ______ ____
ROOT
ATOM      1  C   UNL     1      45.485   6.826  12.372  0.00  0.00    +0.000 C 
ATOM      2  C   UNL     1      45.600   7.983  11.389  0.00  0.00    +0.000 C 
ATOM      3  C   UNL     1      44.490   7.981  12.383  0.00  0.00    +0.000 C 
ENDROOT
BRANCH   1   8
ATOM      4  C   UNL     1      50.407   7.966  13.513  0.00  0.00    +0.000 A 
ATOM      5  C   UNL     1      49.806   7.704  12.285  0.00  0.00    +0.000 A 
ATOM      6  C   UNL     1      48.474   7.291  12.257  0.00  0.00    +0.000 A 
ATOM      7  C   UNL     1      47.761   7.150  13.444  0.00  0.00    +0.000 A 
ATOM      8  N   UNL     1      46.431   6.729  13.489  0.00  0.00    +0.000 N 
ATOM      9  N   UNL     1      48.340   7.388  14.640  0.00  0.00    +0.000 NA
ATOM     10  C   UNL     1      49.642   7.777  14.653  0.00  0.00    +0.000 A 
ATOM     11  H   UNL     1      46.099   6.789  14.447  0.00  0.00    +0.000 HD
BRANCH   4  13
ATOM     12  N   UNL     1      52.678   8.050  12.654  0.00  0.00    +0.000 N 
ATOM     13  C   UNL     1      51.810   8.410  13.650  0.00  0.00    +0.000 C 
ATOM     14  O   UNL     1      52.179   9.093  14.593  0.00  0.00    +0.000 OA
ATOM     15  H   UNL     1      53.609   8.439  12.707  0.00  0.00    +0.000 HD
ATOM     16  H   UNL     1      52.368   7.703  11.755  0.00  0.00    +0.000 HD
ENDBRANCH   4  13
ENDBRANCH   1   8
BRANCH   1  17
ATOM     17  C   UNL     1      44.921   5.496  11.882  0.00  0.00    +0.000 A 
ATOM     18  C   UNL     1      43.729   4.967  12.395  0.00  0.00    +0.000 A 
ATOM     19  C   UNL     1      43.145   3.829  11.836  0.00  0.00    +0.000 A 
ATOM     20  C   UNL     1      43.745   3.201  10.743  0.00  0.00    +0.000 A 
ATOM     21  C   UNL     1      44.944   3.687  10.198  0.00  0.00    +0.000 A 
ATOM     22  C   UNL     1      45.523   4.808  10.814  0.00  0.00    +0.000 A 
BRANCH  21  23
ATOM     23  C   UNL     1      45.525   3.143   8.956  0.00  0.00    +0.000 A 
ATOM     24  C   UNL     1      45.926   4.008   7.919  0.00  0.00    +0.000 A 
ATOM     25  C   UNL     1      46.571   3.530   6.775  0.00  0.00    +0.000 A 
ATOM     26  C   UNL     1      46.837   2.172   6.646  0.00  0.00    +0.000 A 
ATOM     27  C   UNL     1      46.447   1.304   7.657  0.00  0.00    +0.000 A 
ATOM     28  F   UNL     1      46.722  -0.001   7.547  0.00  0.00    +0.000 F 
ATOM     29  C   UNL     1      45.792   1.771   8.796  0.00  0.00    +0.000 A 
ENDBRANCH  21  23
ENDBRANCH   1  17
TORSDOF 4
ENDMDL
MODEL 5
REMARK VINA RESULT:    -7.485      4.108      7.395
REMARK INTER + INTRA:          -9.534
REMARK INTER:                  -9.542
REMARK INTRA:                   0.008
REMARK UNBOUND:                -0.298
REMARK  Name = 
REMARK  4 active torsions:
REMARK  status: ('A' for Active; 'I' for Inactive)
REMARK    1  A    between atoms: C_2  and  C_4
REMARK    2  A    between atoms: N_8  and  C_9
REMARK    3  A    between atoms: C_9  and  C_10
REMARK    4  A    between atoms: C_14  and  C_15
REMARK                            x       y       z     vdW  Elec       q    Type
REMARK                         _______ _______ _______ _____ _____    ______ ____
ROOT
ATOM      1  C   UNL     1      46.083   5.323  13.378  0.00  0.00    +0.000 C 
ATOM      2  C   UNL     1      46.306   4.322  14.503  0.00  0.00    +0.000 C 
ATOM      3  C   UNL     1      47.370   4.512  13.478  0.00  0.00    +0.000 C 
ENDROOT
BRANCH   1   8
ATOM      4  C   UNL     1      48.446   9.592  11.642  0.00  0.00    +0.000 A 
ATOM      5  C   UNL     1      48.829   8.257  11.560  0.00  0.00    +0.000 A 
ATOM      6  C   UNL     1      48.072   7.293  12.229  0.00  0.00    +0.000 A 
ATOM      7  C   UNL     1      46.950   7.670  12.961  0.00  0.00    +0.000 A 
ATOM      8  N   UNL     1      46.157   6.760  13.662  0.00  0.00    +0.000 N 
ATOM      9  N   UNL     1      46.580   8.964  13.057  0.00  0.00    +0.000 NA
ATOM     10  C   UNL     1      47.334   9.894  12.412  0.00  0.00    +0.000 A 
ATOM     11  H   UNL     1      45.352   7.250  14.041  0.00  0.00    +0.000 HD
BRANCH   4  13
ATOM     12  N   UNL     1      50.524  10.773  11.205  0.00  0.00    +0.000 N 
ATOM     13  C   UNL     1      49.178  10.687  10.970  0.00  0.00    +0.000 C 
ATOM     14  O   UNL     1      48.617  11.465  10.214  0.00  0.00    +0.000 OA
ATOM     15  H   UNL     1      51.030  11.462  10.667  0.00  0.00    +0.000 HD
ATOM     16  H   UNL     1      51.058  10.020  11.619  0.00  0.00    +0.000 HD
ENDBRANCH   4  13
ENDBRANCH   1   8
BRANCH   1  17
ATOM     17  C   UNL     1      45.167   4.938  12.220  0.00  0.00    +0.000 A 
ATOM     18  C   UNL     1      43.875   5.467  12.095  0.00  0.00    +0.000 A 
ATOM     19  C   UNL     1      43.105   5.227  10.956  0.00  0.00    +0.000 A 
ATOM     20  C   UNL     1      43.621   4.454   9.914  0.00  0.00    +0.000 A 
ATOM     21  C   UNL     1      44.905   3.896   9.995  0.00  0.00    +0.000 A 
ATOM     22  C   UNL     1      45.633   4.124  11.173  0.00  0.00    +0.000 A 
BRANCH  21  23
ATOM     23  C   UNL     1      45.539   3.203   8.856  0.00  0.00    +0.000 A 
ATOM     24  C   UNL     1      46.118   3.942   7.806  0.00  0.00    +0.000 A 
ATOM     25  C   UNL     1      46.813   3.317   6.767  0.00  0.00    +0.000 A 
ATOM     26  C   UNL     1      46.951   1.935   6.759  0.00  0.00    +0.000 A 
ATOM     27  C   UNL     1      46.385   1.190   7.785  0.00  0.00    +0.000 A 
ATOM     28  F   UNL     1      46.536  -0.140   7.793  0.00  0.00    +0.000 F 
ATOM     29  C   UNL     1      45.679   1.804   8.819  0.00  0.00    +0.000 A 
ENDBRANCH  21  23
ENDBRANCH   1  17
TORSDOF 4
ENDMDL
MODEL 6
REMARK VINA RESULT:    -7.352      5.359      8.691
REMARK INTER + INTRA:          -9.370
REMARK INTER:                  -8.702
REMARK INTRA:                  -0.668
REMARK UNBOUND:                -0.298
REMARK  Name = 
REMARK  4 active torsions:
REMARK  status: ('A' for Active; 'I' for Inactive)
REMARK    1  A    between atoms: C_2  and  C_4
REMARK    2  A    between atoms: N_8  and  C_9
REMARK    3  A    between atoms: C_9  and  C_10
REMARK    4  A    between atoms: C_14  and  C_15
REMARK                            x       y       z     vdW  Elec       q    Type
REMARK                         _______ _______ _______ _____ _____    ______ ____
ROOT
ATOM      1  C   UNL     1      48.241   3.407  17.117  0.00  0.00    +0.000 C 
ATOM      2  C   UNL     1      47.964   3.619  18.598  0.00  0.00    +0.000 C 
ATOM      3  C   UNL     1      46.956   2.904  17.765  0.00  0.00    +0.000 C 
ENDROOT
BRANCH   1   8
ATOM      4  C   UNL     1      53.125   2.007  18.125  0.00  0.00    +0.000 A 
ATOM      5  C   UNL     1      52.496   3.240  18.268  0.00  0.00    +0.000 A 
ATOM      6  C   UNL     1      51.190   3.393  17.798  0.00  0.00    +0.000 A 
ATOM      7  C   UNL     1      50.532   2.321  17.202  0.00  0.00    +0.000 A 
ATOM      8  N   UNL     1      49.232   2.408  16.701  0.00  0.00    +0.000 N 
ATOM      9  N   UNL     1      51.140   1.126  17.047  0.00  0.00    +0.000 NA
ATOM     10  C   UNL     1      52.416   0.995  17.497  0.00  0.00    +0.000 A 
ATOM     11  H   UNL     1      48.934   1.486  16.399  0.00  0.00    +0.000 HD
BRANCH   4  13
ATOM     12  N   UNL     1      54.657   1.336  19.887  0.00  0.00    +0.000 N 
ATOM     13  C   UNL     1      54.504   1.742  18.589  0.00  0.00    +0.000 C 
ATOM     14  O   UNL     1      55.464   1.850  17.842  0.00  0.00    +0.000 OA
ATOM     15  H   UNL     1      55.590   1.066  20.166  0.00  0.00    +0.000 HD
ATOM     16  H   UNL     1      53.887   1.006  20.454  0.00  0.00    +0.000 HD
ENDBRANCH   4  13
ENDBRANCH   1   8
BRANCH   1  17
ATOM     17  C   UNL     1      48.062   4.580  16.157  0.00  0.00    +0.000 A 
ATOM     18  C   UNL     1      48.848   5.736  16.252  0.00  0.00    +0.000 A 
ATOM     19  C   UNL     1      48.780   6.736  15.280  0.00  0.00    +0.000 A 
ATOM     20  C   UNL     1      47.923   6.591  14.187  0.00  0.00    +0.000 A 
ATOM     21  C   UNL     1      47.110   5.456  14.052  0.00  0.00    +0.000 A 
ATOM     22  C   UNL     1      47.174   4.492  15.070  0.00  0.00    +0.000 A 
BRANCH  21  23
ATOM     23  C   UNL     1      46.307   5.199  12.840  0.00  0.00    +0.000 A 
ATOM     24  C   UNL     1      46.394   6.065  11.733  0.00  0.00    +0.000 A 
ATOM     25  C   UNL     1      45.724   5.793  10.537  0.00  0.00    +0.000 A 
ATOM     26  C   UNL     1      44.956   4.641  10.420  0.00  0.00    +0.000 A 
ATOM     27  C   UNL     1      44.858   3.777  11.502  0.00  0.00    +0.000 A 
ATOM     28  F   UNL     1      44.138   2.654  11.384  0.00  0.00    +0.000 F 
ATOM     29  C   UNL     1      45.512   4.047  12.703  0.00  0.00    +0.000 A 
ENDBRANCH  21  23
ENDBRANCH   1  17
TORSDOF 4
ENDMDL
MODEL 7
REMARK VINA RESULT:    -7.129      4.538      7.174
REMARK INTER + INTRA:          -9.094
REMARK INTER:                  -8.277
REMARK INTRA:                  -0.818
REMARK UNBOUND:                -0.298
REMARK  Name = 
REMARK  4 active torsions:
REMARK  status: ('A' for Active; 'I' for Inactive)
REMARK    1  A    between atoms: C_2  and  C_4
REMARK    2  A    between atoms: N_8  and  C_9
REMARK    3  A    between atoms: C_9  and  C_10
REMARK    4  A    between atoms: C_14  and  C_15
REMARK                            x       y       z     vdW  Elec       q    Type
REMARK                         _______ _______ _______ _____ _____    ______ ____
ROOT
ATOM      1  C   UNL     1      45.719   4.282  12.885  0.00  0.00    +0.000 C 
ATOM      2  C   UNL     1      44.278   3.845  13.110  0.00  0.00    +0.000 C 
ATOM      3  C   UNL     1      44.910   3.611  11.781  0.00  0.00    +0.000 C 
ENDROOT
BRANCH   1   8
ATOM      4  C   UNL     1      48.267   3.884  17.377  0.00  0.00    +0.000 A 
ATOM      5  C   UNL     1      47.576   4.960  16.828  0.00  0.00    +0.000 A 
ATOM      6  C   UNL     1      47.079   4.854  15.528  0.00  0.00    +0.000 A 
ATOM      7  C   UNL     1      47.271   3.683  14.800  0.00  0.00    +0.000 A 
ATOM      8  N   UNL     1      46.812   3.514  13.493  0.00  0.00    +0.000 N 
ATOM      9  N   UNL     1      47.952   2.640  15.320  0.00  0.00    +0.000 NA
ATOM     10  C   UNL     1      48.442   2.763  16.582  0.00  0.00    +0.000 A 
ATOM     11  H   UNL     1      46.987   2.557  13.204  0.00  0.00    +0.000 HD
BRANCH   4  13
ATOM     12  N   UNL     1      48.318   2.996  19.638  0.00  0.00    +0.000 N 
ATOM     13  C   UNL     1      48.831   3.897  18.744  0.00  0.00    +0.000 C 
ATOM     14  O   UNL     1      49.736   4.654  19.058  0.00  0.00    +0.000 OA
ATOM     15  H   UNL     1      48.775   2.946  20.537  0.00  0.00    +0.000 HD
ATOM     16  H   UNL     1      47.753   2.205  19.357  0.00  0.00    +0.000 HD
ENDBRANCH   4  13
ENDBRANCH   1   8
BRANCH   1  17
ATOM     17  C   UNL     1      46.014   5.761  12.658  0.00  0.00    +0.000 A 
ATOM     18  C   UNL     1      45.027   6.743  12.822  0.00  0.00    +0.000 A 
ATOM     19  C   UNL     1      45.344   8.101  12.760  0.00  0.00    +0.000 A 
ATOM     20  C   UNL     1      46.663   8.502  12.539  0.00  0.00    +0.000 A 
ATOM     21  C   UNL     1      47.685   7.557  12.361  0.00  0.00    +0.000 A 
ATOM     22  C   UNL     1      47.322   6.202  12.387  0.00  0.00    +0.000 A 
BRANCH  21  23
ATOM     23  C   UNL     1      49.108   7.940  12.275  0.00  0.00    +0.000 A 
ATOM     24  C   UNL     1      49.750   8.542  13.375  0.00  0.00    +0.000 A 
ATOM     25  C   UNL     1      51.119   8.823  13.359  0.00  0.00    +0.000 A 
ATOM     26  C   UNL     1      51.880   8.499  12.243  0.00  0.00    +0.000 A 
ATOM     27  C   UNL     1      51.263   7.907  11.149  0.00  0.00    +0.000 A 
ATOM     28  F   UNL     1      51.997   7.572  10.081  0.00  0.00    +0.000 F 
ATOM     29  C   UNL     1      49.896   7.635  11.151  0.00  0.00    +0.000 A 
ENDBRANCH  21  23
ENDBRANCH   1  17
TORSDOF 4
ENDMDL
MODEL 8
REMARK VINA RESULT:    -7.068      3.173      5.089
REMARK INTER + INTRA:          -9.018
REMARK INTER:                  -8.135
REMARK INTRA:                  -0.884
REMARK UNBOUND:                -0.298
REMARK  Name = 
REMARK  4 active torsions:
REMARK  status: ('A' for Active; 'I' for Inactive)
REMARK    1  A    between atoms: C_2  and  C_4
REMARK    2  A    between atoms: N_8  and  C_9
REMARK    3  A    between atoms: C_9  and  C_10
REMARK    4  A    between atoms: C_14  and  C_15
REMARK                            x       y       z     vdW  Elec       q    Type
REMARK                         _______ _______ _______ _____ _____    ______ ____
ROOT
ATOM      1  C   UNL     1      48.430   8.617  12.603  0.00  0.00    +0.000 C 
ATOM      2  C   UNL     1      47.989   9.973  12.074  0.00  0.00    +0.000 C 
ATOM      3  C   UNL     1      49.415   9.565  11.929  0.00  0.00    +0.000 C 
ENDROOT
BRANCH   1   8
ATOM      4  C   UNL     1      44.263   5.681  11.688  0.00  0.00    +0.000 A 
ATOM      5  C   UNL     1      44.547   6.531  12.753  0.00  0.00    +0.000 A 
ATOM      6  C   UNL     1      45.811   7.117  12.832  0.00  0.00    +0.000 A 
ATOM      7  C   UNL     1      46.766   6.855  11.854  0.00  0.00    +0.000 A 
ATOM      8  N   UNL     1      48.051   7.398  11.879  0.00  0.00    +0.000 N 
ATOM      9  N   UNL     1      46.503   6.021  10.826  0.00  0.00    +0.000 NA
ATOM     10  C   UNL     1      45.272   5.445  10.769  0.00  0.00    +0.000 A 
ATOM     11  H   UNL     1      48.533   7.140  11.024  0.00  0.00    +0.000 HD
BRANCH   4  13
ATOM     12  N   UNL     1      41.837   5.742  11.808  0.00  0.00    +0.000 N 
ATOM     13  C   UNL     1      42.956   5.011  11.513  0.00  0.00    +0.000 C 
ATOM     14  O   UNL     1      42.871   3.867  11.093  0.00  0.00    +0.000 OA
ATOM     15  H   UNL     1      40.949   5.310  11.593  0.00  0.00    +0.000 HD
ATOM     16  H   UNL     1      41.851   6.748  11.921  0.00  0.00    +0.000 HD
ENDBRANCH   4  13
ENDBRANCH   1   8
BRANCH   1  17
ATOM     17  C   UNL     1      48.631   8.441  14.106  0.00  0.00    +0.000 A 
ATOM     18  C   UNL     1      48.486   9.512  14.998  0.00  0.00    +0.000 A 
ATOM     19  C   UNL     1      48.524   9.310  16.379  0.00  0.00    +0.000 A 
ATOM     20  C   UNL     1      48.701   8.024  16.892  0.00  0.00    +0.000 A 
ATOM     21  C   UNL     1      48.860   6.921  16.040  0.00  0.00    +0.000 A 
ATOM     22  C   UNL     1      48.859   7.169  14.658  0.00  0.00    +0.000 A 
BRANCH  21  23
ATOM     23  C   UNL     1      48.899   5.533  16.542  0.00  0.00    +0.000 A 
ATOM     24  C   UNL     1      47.835   4.650  16.273  0.00  0.00    +0.000 A 
ATOM     25  C   UNL     1      47.889   3.304  16.648  0.00  0.00    +0.000 A 
ATOM     26  C   UNL     1      49.015   2.810  17.296  0.00  0.00    +0.000 A 
ATOM     27  C   UNL     1      50.072   3.668  17.571  0.00  0.00    +0.000 A 
ATOM     28  F   UNL     1      51.168   3.190  18.173  0.00  0.00    +0.000 F 
ATOM     29  C   UNL     1      50.021   5.014  17.212  0.00  0.00    +0.000 A 
ENDBRANCH  21  23
ENDBRANCH   1  17
TORSDOF 4
ENDMDL
MODEL 9
REMARK VINA RESULT:    -7.044      4.734      8.456
REMARK INTER + INTRA:          -8.989
REMARK INTER:                  -8.637
REMARK INTRA:                  -0.352
REMARK UNBOUND:                -0.298
REMARK  Name = 
REMARK  4 active torsions:
REMARK  status: ('A' for Active; 'I' for Inactive)
REMARK    1  A    between atoms: C_2  and  C_4
REMARK    2  A    between atoms: N_8  and  C_9
REMARK    3  A    between atoms: C_9  and  C_10
REMARK    4  A    between atoms: C_14  and  C_15
REMARK                            x       y       z     vdW  Elec       q    Type
REMARK                         _______ _______ _______ _____ _____    ______ ____
ROOT
ATOM      1  C   UNL     1      49.139   7.804  12.575  0.00  0.00    +0.000 C 
ATOM      2  C   UNL     1      50.033   8.097  11.379  0.00  0.00    +0.000 C 
ATOM      3  C   UNL     1      49.722   9.193  12.339  0.00  0.00    +0.000 C 
ENDROOT
BRANCH   1   8
ATOM      4  C   UNL     1      48.646   7.422  17.717  0.00  0.00    +0.000 A 
ATOM      5  C   UNL     1      48.420   8.503  16.871  0.00  0.00    +0.000 A 
ATOM      6  C   UNL     1      48.754   8.388  15.521  0.00  0.00    +0.000 A 
ATOM      7  C   UNL     1      49.301   7.203  15.035  0.00  0.00    +0.000 A 
ATOM      8  N   UNL     1      49.669   7.025  13.700  0.00  0.00    +0.000 N 
ATOM      9  N   UNL     1      49.536   6.155  15.852  0.00  0.00    +0.000 NA
ATOM     10  C   UNL     1      49.218   6.286  17.167  0.00  0.00    +0.000 A 
ATOM     11  H   UNL     1      49.956   6.060  13.565  0.00  0.00    +0.000 HD
BRANCH   4  13
ATOM     12  N   UNL     1      47.990   6.249  19.741  0.00  0.00    +0.000 N 
ATOM     13  C   UNL     1      48.326   7.442  19.160  0.00  0.00    +0.000 C 
ATOM     14  O   UNL     1      48.386   8.471  19.817  0.00  0.00    +0.000 OA
ATOM     15  H   UNL     1      47.868   6.257  20.744  0.00  0.00    +0.000 HD
ATOM     16  H   UNL     1      48.162   5.356  19.299  0.00  0.00    +0.000 HD
ENDBRANCH   4  13
ENDBRANCH   1   8
BRANCH   1  17
ATOM     17  C   UNL     1      47.633   7.693  12.361  0.00  0.00    +0.000 A 
ATOM     18  C   UNL     1      46.771   8.769  12.613  0.00  0.00    +0.000 A 
ATOM     19  C   UNL     1      45.419   8.705  12.272  0.00  0.00    +0.000 A 
ATOM     20  C   UNL     1      44.906   7.558  11.663  0.00  0.00    +0.000 A 
ATOM     21  C   UNL     1      45.726   6.452  11.397  0.00  0.00    +0.000 A 
ATOM     22  C   UNL     1      47.070   6.536  11.793  0.00  0.00    +0.000 A 
BRANCH  21  23
ATOM     23  C   UNL     1      45.255   5.287  10.622  0.00  0.00    +0.000 A 
ATOM     24  C   UNL     1      45.661   5.111   9.285  0.00  0.00    +0.000 A 
ATOM     25  C   UNL     1      45.314   3.969   8.559  0.00  0.00    +0.000 A 
ATOM     26  C   UNL     1      44.558   2.970   9.159  0.00  0.00    +0.000 A 
ATOM     27  C   UNL     1      44.147   3.127  10.476  0.00  0.00    +0.000 A 
ATOM     28  F   UNL     1      43.439   2.156  11.065  0.00  0.00    +0.000 F 
ATOM     29  C   UNL     1      44.478   4.269  11.203  0.00  0.00    +0.000 A 
ENDBRANCH  21  23
ENDBRANCH   1  17
TORSDOF 4
ENDMDL
