MODEL 1
REMARK VINA RESULT:    -7.267      0.000      0.000
REMARK INTER + INTRA:         -11.319
REMARK INTER:                 -10.241
REMARK INTRA:                  -1.078
REMARK UNBOUND:                -1.078
REMARK  Name = 
REMARK  7 active torsions:
REMARK  status: ('A' for Active; 'I' for Inactive)
REMARK    1  A    between atoms: C_2  and  C_3
REMARK    2  A    between atoms: C_6  and  C_7
REMARK    3  A    between atoms: N_9  and  C_10
REMARK    4  A    between atoms: C_10  and  C_11
REMARK    5  A    between atoms: C_14  and  C_15
REMARK    6  A    between atoms: C_15  and  N_16
REMARK    7  A    between atoms: C_17  and  C_19
REMARK                            x       y       z     vdW  Elec       q    Type
REMARK                         _______ _______ _______ _____ _____    ______ ____
ROOT
ATOM      1  C   UNL     1      45.505   7.076  11.724  0.00  0.00    +0.000 A 
ATOM      2  C   UNL     1      46.744   6.476  11.989  0.00  0.00    +0.000 A 
ATOM      3  C   UNL     1      47.661   7.067  12.872  0.00  0.00    +0.000 A 
ATOM      4  C   UNL     1      47.351   8.267  13.526  0.00  0.00    +0.000 A 
ATOM      5  C   UNL     1      46.117   8.872  13.252  0.00  0.00    +0.000 A 
ATOM      6  C   UNL     1      45.197   8.277  12.377  0.00  0.00    +0.000 A 
ENDROOT
BRANCH   1   7
ATOM      7  C   UNL     1      44.543   6.442  10.748  0.00  0.00    +0.000 C 
BRANCH   7  10
ATOM      8  C   UNL     1      44.782   4.259   9.620  0.00  0.00    +0.000 C 
ATOM      9  O   UNL     1      43.826   3.775  10.227  0.00  0.00    +0.000 OA
ATOM     10  N   UNL     1      45.197   5.560   9.812  0.00  0.00    +0.000 N 
ATOM     11  H   UNL     1      46.013   5.882   9.306  0.00  0.00    +0.000 HD
BRANCH   8  15
ATOM     12  C   UNL     1      46.429   1.719   7.734  0.00  0.00    +0.000 A 
ATOM     13  C   UNL     1      46.851   2.770   6.955  0.00  0.00    +0.000 A 
ATOM     14  C   UNL     1      46.294   3.935   7.543  0.00  0.00    +0.000 A 
ATOM     15  C   UNL     1      45.562   3.522   8.644  0.00  0.00    +0.000 A 
ATOM     16  O   UNL     1      45.651   2.157   8.759  0.00  0.00    +0.000 OA
BRANCH  12  18
ATOM     17  N   UNL     1      46.847  -0.822   7.582  0.00  0.00    +0.000 NA
ATOM     18  C   UNL     1      46.661   0.324   7.641  0.00  0.00    +0.000 C 
ENDBRANCH  12  18
ENDBRANCH   8  15
ENDBRANCH   7  10
ENDBRANCH   1   7
BRANCH   4  19
ATOM     19  C   UNL     1      48.307   8.909  14.506  0.00  0.00    +0.000 C 
BRANCH  19  20
ATOM     20  N   UNL     1      48.496   8.108  15.688  0.00  0.00    +0.000 N 
ATOM     21  C   UNL     1      49.708   7.533  15.979  0.00  0.00    +0.000 C 
ATOM     22  O   UNL     1      50.699   7.687  15.268  0.00  0.00    +0.000 OA
ATOM     23  H   UNL     1      47.659   7.721  16.115  0.00  0.00    +0.000 HD
BRANCH  21  24
ATOM     24  C   UNL     1      49.776   6.768  17.232  0.00  0.00    +0.000 A 
ATOM     25  C   UNL     1      50.503   7.254  18.311  0.00  0.00    +0.000 A 
ATOM     26  S   UNL     1      50.422   6.257  19.694  0.00  0.00    +0.000 S 
ATOM     27  C   UNL     1      49.456   5.115  18.883  0.00  0.00    +0.000 A 
ATOM     28  N   UNL     1      49.047   3.974  19.501  0.00  0.00    +0.000 NA
ATOM     29  C   UNL     1      48.345   3.186  18.757  0.00  0.00    +0.000 A 
ATOM     30  N   UNL     1      48.006   3.439  17.453  0.00  0.00    +0.000 N 
ATOM     31  C   UNL     1      48.361   4.595  16.803  0.00  0.00    +0.000 A 
ATOM     32  O   UNL     1      47.984   4.820  15.657  0.00  0.00    +0.000 OA
ATOM     33  C   UNL     1      49.176   5.504  17.586  0.00  0.00    +0.000 A 
ATOM     34  H   UNL     1      47.440   2.790  16.929  0.00  0.00    +0.000 HD
ENDBRANCH  21  24
ENDBRANCH  19  20
ENDBRANCH   4  19
TORSDOF 7
ENDMDL
MODEL 2
REMARK VINA RESULT:    -6.707      4.505      8.724
REMARK INTER + INTRA:         -10.529
REMARK INTER:                  -9.424
REMARK INTRA:                  -1.105
REMARK UNBOUND:                -1.078
REMARK  Name = 
REMARK  7 active torsions:
REMARK  status: ('A' for Active; 'I' for Inactive)
REMARK    1  A    between atoms: C_2  and  C_3
REMARK    2  A    between atoms: C_6  and  C_7
REMARK    3  A    between atoms: N_9  and  C_10
REMARK    4  A    between atoms: C_10  and  C_11
REMARK    5  A    between atoms: C_14  and  C_15
REMARK    6  A    between atoms: C_15  and  N_16
REMARK    7  A    between atoms: C_17  and  C_19
REMARK                            x       y       z     vdW  Elec       q    Type
REMARK                         _______ _______ _______ _____ _____    ______ ____
ROOT
ATOM      1  C   UNL     1      49.721   4.821  17.619  0.00  0.00    +0.000 A 
ATOM      2  C   UNL     1      50.503   5.881  17.137  0.00  0.00    +0.000 A 
ATOM      3  C   UNL     1      50.058   6.686  16.077  0.00  0.00    +0.000 A 
ATOM      4  C   UNL     1      48.808   6.460  15.484  0.00  0.00    +0.000 A 
ATOM      5  C   UNL     1      48.032   5.394  15.959  0.00  0.00    +0.000 A 
ATOM      6  C   UNL     1      48.473   4.595  17.024  0.00  0.00    +0.000 A 
ENDROOT
BRANCH   1   7
ATOM      7  C   UNL     1      50.229   3.947  18.740  0.00  0.00    +0.000 C 
BRANCH   7  10
ATOM      8  C   UNL     1      51.578   2.160  17.700  0.00  0.00    +0.000 C 
ATOM      9  O   UNL     1      50.583   1.587  17.255  0.00  0.00    +0.000 OA
ATOM     10  N   UNL     1      51.494   3.324  18.435  0.00  0.00    +0.000 N 
ATOM     11  H   UNL     1      52.350   3.723  18.801  0.00  0.00    +0.000 HD
BRANCH   8  15
ATOM     12  C   UNL     1      54.461   0.232  16.870  0.00  0.00    +0.000 A 
ATOM     13  C   UNL     1      55.152   1.317  17.354  0.00  0.00    +0.000 A 
ATOM     14  C   UNL     1      54.165   2.253  17.762  0.00  0.00    +0.000 A 
ATOM     15  C   UNL     1      52.932   1.680  17.497  0.00  0.00    +0.000 A 
ATOM     16  O   UNL     1      53.120   0.435  16.951  0.00  0.00    +0.000 OA
BRANCH  12  18
ATOM     17  N   UNL     1      55.253  -2.019  15.887  0.00  0.00    +0.000 NA
ATOM     18  C   UNL     1      54.903  -0.999  16.325  0.00  0.00    +0.000 C 
ENDBRANCH  12  18
ENDBRANCH   8  15
ENDBRANCH   7  10
ENDBRANCH   1   7
BRANCH   4  19
ATOM     19  C   UNL     1      48.292   7.331  14.362  0.00  0.00    +0.000 C 
BRANCH  19  20
ATOM     20  N   UNL     1      47.041   6.854  13.831  0.00  0.00    +0.000 N 
ATOM     21  C   UNL     1      46.789   6.849  12.481  0.00  0.00    +0.000 C 
ATOM     22  O   UNL     1      47.618   7.224  11.655  0.00  0.00    +0.000 OA
ATOM     23  H   UNL     1      46.254   6.829  14.473  0.00  0.00    +0.000 HD
BRANCH  21  24
ATOM     24  C   UNL     1      45.488   6.306  12.070  0.00  0.00    +0.000 A 
ATOM     25  C   UNL     1      44.519   7.142  11.529  0.00  0.00    +0.000 A 
ATOM     26  S   UNL     1      43.095   6.325  11.062  0.00  0.00    +0.000 S 
ATOM     27  C   UNL     1      43.701   4.835  11.615  0.00  0.00    +0.000 A 
ATOM     28  N   UNL     1      42.955   3.700  11.539  0.00  0.00    +0.000 NA
ATOM     29  C   UNL     1      43.530   2.649  12.022  0.00  0.00    +0.000 A 
ATOM     30  N   UNL     1      44.788   2.628  12.567  0.00  0.00    +0.000 N 
ATOM     31  C   UNL     1      45.592   3.739  12.626  0.00  0.00    +0.000 A 
ATOM     32  O   UNL     1      46.739   3.671  13.058  0.00  0.00    +0.000 OA
ATOM     33  C   UNL     1      44.983   4.954  12.121  0.00  0.00    +0.000 A 
ATOM     34  H   UNL     1      45.190   1.770  12.913  0.00  0.00    +0.000 HD
ENDBRANCH  21  24
ENDBRANCH  19  20
ENDBRANCH   4  19
TORSDOF 7
ENDMDL
MODEL 3
REMARK VINA RESULT:    -6.599      1.451      1.752
REMARK INTER + INTRA:         -10.377
REMARK INTER:                  -9.317
REMARK INTRA:                  -1.060
REMARK UNBOUND:                -1.078
REMARK  Name = 
REMARK  7 active torsions:
REMARK  status: ('A' for Active; 'I' for Inactive)
REMARK    1  A    between atoms: C_2  and  C_3
REMARK    2  A    between atoms: C_6  and  C_7
REMARK    3  A    between atoms: N_9  and  C_10
REMARK    4  A    between atoms: C_10  and  C_11
REMARK    5  A    between atoms: C_14  and  C_15
REMARK    6  A    between atoms: C_15  and  N_16
REMARK    7  A    between atoms: C_17  and  C_19
REMARK                            x       y       z     vdW  Elec       q    Type
REMARK                         _______ _______ _______ _____ _____    ______ ____
ROOT
ATOM      1  C   UNL     1      46.284   7.680  12.117  0.00  0.00    +0.000 A 
ATOM      2  C   UNL     1      47.498   7.107  11.713  0.00  0.00    +0.000 A 
ATOM      3  C   UNL     1      48.695   7.398  12.384  0.00  0.00    +0.000 A 
ATOM      4  C   UNL     1      48.703   8.258  13.491  0.00  0.00    +0.000 A 
ATOM      5  C   UNL     1      47.491   8.839  13.887  0.00  0.00    +0.000 A 
ATOM      6  C   UNL     1      46.293   8.542  13.221  0.00  0.00    +0.000 A 
ENDROOT
BRANCH   1   7
ATOM      7  C   UNL     1      45.010   7.380  11.364  0.00  0.00    +0.000 C 
BRANCH   7  10
ATOM      8  C   UNL     1      44.613   4.984  10.920  0.00  0.00    +0.000 C 
ATOM      9  O   UNL     1      44.035   4.821  11.996  0.00  0.00    +0.000 OA
ATOM     10  N   UNL     1      45.117   6.207  10.530  0.00  0.00    +0.000 N 
ATOM     11  H   UNL     1      45.612   6.262   9.648  0.00  0.00    +0.000 HD
BRANCH   8  15
ATOM     12  C   UNL     1      45.558   3.043   8.081  0.00  0.00    +0.000 A 
ATOM     13  C   UNL     1      44.913   2.025   8.740  0.00  0.00    +0.000 A 
ATOM     14  C   UNL     1      44.432   2.590   9.950  0.00  0.00    +0.000 A 
ATOM     15  C   UNL     1      44.818   3.921   9.956  0.00  0.00    +0.000 A 
ATOM     16  O   UNL     1      45.508   4.195   8.801  0.00  0.00    +0.000 OA
BRANCH  12  18
ATOM     17  N   UNL     1      46.776   3.104   5.808  0.00  0.00    +0.000 NA
ATOM     18  C   UNL     1      46.235   3.081   6.836  0.00  0.00    +0.000 C 
ENDBRANCH  12  18
ENDBRANCH   8  15
ENDBRANCH   7  10
ENDBRANCH   1   7
BRANCH   4  19
ATOM     19  C   UNL     1      49.973   8.563  14.252  0.00  0.00    +0.000 C 
BRANCH  19  20
ATOM     20  N   UNL     1      49.970   7.990  15.573  0.00  0.00    +0.000 N 
ATOM     21  C   UNL     1      51.069   7.338  16.075  0.00  0.00    +0.000 C 
ATOM     22  O   UNL     1      52.118   7.231  15.443  0.00  0.00    +0.000 OA
ATOM     23  H   UNL     1      49.061   7.797  15.983  0.00  0.00    +0.000 HD
BRANCH  21  24
ATOM     24  C   UNL     1      50.946   6.828  17.447  0.00  0.00    +0.000 A 
ATOM     25  C   UNL     1      51.784   7.302  18.448  0.00  0.00    +0.000 A 
ATOM     26  S   UNL     1      51.458   6.633  19.985  0.00  0.00    +0.000 S 
ATOM     27  C   UNL     1      50.221   5.649  19.356  0.00  0.00    +0.000 A 
ATOM     28  N   UNL     1      49.534   4.786  20.154  0.00  0.00    +0.000 NA
ATOM     29  C   UNL     1      48.645   4.082  19.537  0.00  0.00    +0.000 A 
ATOM     30  N   UNL     1      48.372   4.167  18.196  0.00  0.00    +0.000 N 
ATOM     31  C   UNL     1      49.011   5.052  17.362  0.00  0.00    +0.000 A 
ATOM     32  O   UNL     1      48.695   5.150  16.180  0.00  0.00    +0.000 OA
ATOM     33  C   UNL     1      50.041   5.849  18.000  0.00  0.00    +0.000 A 
ATOM     34  H   UNL     1      47.652   3.601  17.775  0.00  0.00    +0.000 HD
ENDBRANCH  21  24
ENDBRANCH  19  20
ENDBRANCH   4  19
TORSDOF 7
ENDMDL
MODEL 4
REMARK VINA RESULT:    -6.570      4.881      7.917
REMARK INTER + INTRA:         -10.335
REMARK INTER:                  -9.367
REMARK INTRA:                  -0.969
REMARK UNBOUND:                -1.078
REMARK  Name = 
REMARK  7 active torsions:
REMARK  status: ('A' for Active; 'I' for Inactive)
REMARK    1  A    between atoms: C_2  and  C_3
REMARK    2  A    between atoms: C_6  and  C_7
REMARK    3  A    between atoms: N_9  and  C_10
REMARK    4  A    between atoms: C_10  and  C_11
REMARK    5  A    between atoms: C_14  and  C_15
REMARK    6  A    between atoms: C_15  and  N_16
REMARK    7  A    between atoms: C_17  and  C_19
REMARK                            x       y       z     vdW  Elec       q    Type
REMARK                         _______ _______ _______ _____ _____    ______ ____
ROOT
ATOM      1  C   UNL     1      49.926   9.225  11.552  0.00  0.00    +0.000 A 
ATOM      2  C   UNL     1      49.557   7.881  11.699  0.00  0.00    +0.000 A 
ATOM      3  C   UNL     1      48.289   7.526  12.186  0.00  0.00    +0.000 A 
ATOM      4  C   UNL     1      47.351   8.513  12.521  0.00  0.00    +0.000 A 
ATOM      5  C   UNL     1      47.725   9.857  12.384  0.00  0.00    +0.000 A 
ATOM      6  C   UNL     1      48.988  10.210  11.889  0.00  0.00    +0.000 A 
ENDROOT
BRANCH   1   7
ATOM      7  C   UNL     1      51.305   9.588  11.055  0.00  0.00    +0.000 C 
BRANCH   7  10
ATOM      8  C   UNL     1      53.169   7.970  11.026  0.00  0.00    +0.000 C 
ATOM      9  O   UNL     1      53.676   8.448  12.041  0.00  0.00    +0.000 OA
ATOM     10  N   UNL     1      52.004   8.466  10.478  0.00  0.00    +0.000 N 
ATOM     11  H   UNL     1      51.662   8.048   9.621  0.00  0.00    +0.000 HD
BRANCH   8  15
ATOM     12  C   UNL     1      53.936   5.459   8.613  0.00  0.00    +0.000 A 
ATOM     13  C   UNL     1      54.857   5.045   9.545  0.00  0.00    +0.000 A 
ATOM     14  C   UNL     1      54.725   5.936  10.642  0.00  0.00    +0.000 A 
ATOM     15  C   UNL     1      53.732   6.843  10.308  0.00  0.00    +0.000 A 
ATOM     16  O   UNL     1      53.248   6.542   9.059  0.00  0.00    +0.000 OA
BRANCH  12  18
ATOM     17  N   UNL     1      53.324   4.556   6.275  0.00  0.00    +0.000 NA
ATOM     18  C   UNL     1      53.609   4.963   7.326  0.00  0.00    +0.000 C 
ENDBRANCH  12  18
ENDBRANCH   8  15
ENDBRANCH   7  10
ENDBRANCH   1   7
BRANCH   4  19
ATOM     19  C   UNL     1      45.968   8.159  13.018  0.00  0.00    +0.000 C 
BRANCH  19  20
ATOM     20  N   UNL     1      45.594   6.810  12.678  0.00  0.00    +0.000 N 
ATOM     21  C   UNL     1      44.629   6.549  11.736  0.00  0.00    +0.000 C 
ATOM     22  O   UNL     1      44.053   7.441  11.116  0.00  0.00    +0.000 OA
ATOM     23  H   UNL     1      45.816   6.091  13.359  0.00  0.00    +0.000 HD
BRANCH  21  24
ATOM     24  C   UNL     1      44.366   5.130  11.459  0.00  0.00    +0.000 A 
ATOM     25  C   UNL     1      43.626   4.368  12.354  0.00  0.00    +0.000 A 
ATOM     26  S   UNL     1      43.378   2.759  11.839  0.00  0.00    +0.000 S 
ATOM     27  C   UNL     1      44.296   3.010  10.428  0.00  0.00    +0.000 A 
ATOM     28  N   UNL     1      44.510   2.003   9.539  0.00  0.00    +0.000 NA
ATOM     29  C   UNL     1      45.247   2.328   8.531  0.00  0.00    +0.000 A 
ATOM     30  N   UNL     1      45.784   3.573   8.324  0.00  0.00    +0.000 N 
ATOM     31  C   UNL     1      45.560   4.630   9.172  0.00  0.00    +0.000 A 
ATOM     32  O   UNL     1      45.999   5.748   8.922  0.00  0.00    +0.000 OA
ATOM     33  C   UNL     1      44.759   4.310  10.338  0.00  0.00    +0.000 A 
ATOM     34  H   UNL     1      46.339   3.770   7.506  0.00  0.00    +0.000 HD
ENDBRANCH  21  24
ENDBRANCH  19  20
ENDBRANCH   4  19
TORSDOF 7
ENDMDL
MODEL 5
REMARK VINA RESULT:    -6.142      2.224      3.914
REMARK INTER + INTRA:          -9.733
REMARK INTER:                  -8.623
REMARK INTRA:                  -1.110
REMARK UNBOUND:                -1.078
REMARK  Name = 
REMARK  7 active torsions:
REMARK  status: ('A' for Active; 'I' for Inactive)
REMARK    1  A    between atoms: C_2  and  C_3
REMARK    2  A    between atoms: C_6  and  C_7
REMARK    3  A    between atoms: N_9  and  C_10
REMARK    4  A    between atoms: C_10  and  C_11
REMARK    5  A    between atoms: C_14  and  C_15
REMARK    6  A    between atoms: C_15  and  N_16
REMARK    7  A    between atoms: C_17  and  C_19
REMARK                            x       y       z     vdW  Elec       q    Type
REMARK                         _______ _______ _______ _____ _____    ______ ____
ROOT
ATOM      1  C   UNL     1      45.115   4.768  11.895  0.00  0.00    +0.000 A 
ATOM      2  C   UNL     1      45.405   6.008  12.483  0.00  0.00    +0.000 A 
ATOM      3  C   UNL     1      46.177   6.092  13.653  0.00  0.00    +0.000 A 
ATOM      4  C   UNL     1      46.695   4.935  14.252  0.00  0.00    +0.000 A 
ATOM      5  C   UNL     1      46.395   3.696  13.668  0.00  0.00    +0.000 A 
ATOM      6  C   UNL     1      45.631   3.613  12.496  0.00  0.00    +0.000 A 
ENDROOT
BRANCH   1   7
ATOM      7  C   UNL     1      44.258   4.695  10.654  0.00  0.00    +0.000 C 
BRANCH   7  10
ATOM      8  C   UNL     1      45.744   4.354   8.713  0.00  0.00    +0.000 C 
ATOM      9  O   UNL     1      46.126   5.525   8.726  0.00  0.00    +0.000 OA
ATOM     10  N   UNL     1      44.834   3.863   9.625  0.00  0.00    +0.000 N 
ATOM     11  H   UNL     1      44.536   2.899   9.534  0.00  0.00    +0.000 HD
BRANCH   8  15
ATOM     12  C   UNL     1      46.665   1.349   7.027  0.00  0.00    +0.000 A 
ATOM     13  C   UNL     1      47.010   2.197   6.002  0.00  0.00    +0.000 A 
ATOM     14  C   UNL     1      46.719   3.506   6.468  0.00  0.00    +0.000 A 
ATOM     15  C   UNL     1      46.210   3.374   7.750  0.00  0.00    +0.000 A 
ATOM     16  O   UNL     1      46.182   2.044   8.090  0.00  0.00    +0.000 OA
BRANCH  12  18
ATOM     17  N   UNL     1      46.770  -1.219   7.256  0.00  0.00    +0.000 NA
ATOM     18  C   UNL     1      46.727  -0.062   7.144  0.00  0.00    +0.000 C 
ENDBRANCH  12  18
ENDBRANCH   8  15
ENDBRANCH   7  10
ENDBRANCH   1   7
BRANCH   4  19
ATOM     19  C   UNL     1      47.555   4.999  15.493  0.00  0.00    +0.000 C 
BRANCH  19  20
ATOM     20  N   UNL     1      48.265   6.248  15.601  0.00  0.00    +0.000 N 
ATOM     21  C   UNL     1      49.511   6.318  16.173  0.00  0.00    +0.000 C 
ATOM     22  O   UNL     1      50.098   5.325  16.598  0.00  0.00    +0.000 OA
ATOM     23  H   UNL     1      47.706   7.095  15.546  0.00  0.00    +0.000 HD
BRANCH  21  24
ATOM     24  C   UNL     1      50.138   7.646  16.192  0.00  0.00    +0.000 A 
ATOM     25  C   UNL     1      50.540   8.214  17.395  0.00  0.00    +0.000 A 
ATOM     26  S   UNL     1      51.295   9.735  17.214  0.00  0.00    +0.000 S 
ATOM     27  C   UNL     1      51.064   9.712  15.529  0.00  0.00    +0.000 A 
ATOM     28  N   UNL     1      51.463  10.753  14.749  0.00  0.00    +0.000 NA
ATOM     29  C   UNL     1      51.198  10.613  13.493  0.00  0.00    +0.000 A 
ATOM     30  N   UNL     1      50.577   9.521  12.943  0.00  0.00    +0.000 N 
ATOM     31  C   UNL     1      50.196   8.429  13.684  0.00  0.00    +0.000 A 
ATOM     32  O   UNL     1      49.705   7.440  13.150  0.00  0.00    +0.000 OA
ATOM     33  C   UNL     1      50.446   8.548  15.107  0.00  0.00    +0.000 A 
ATOM     34  H   UNL     1      50.413   9.462  11.950  0.00  0.00    +0.000 HD
ENDBRANCH  21  24
ENDBRANCH  19  20
ENDBRANCH   4  19
TORSDOF 7
ENDMDL
MODEL 6
REMARK VINA RESULT:    -5.834      3.008      4.193
REMARK INTER + INTRA:          -9.299
REMARK INTER:                  -8.310
REMARK INTRA:                  -0.989
REMARK UNBOUND:                -1.078
REMARK  Name = 
REMARK  7 active torsions:
REMARK  status: ('A' for Active; 'I' for Inactive)
REMARK    1  A    between atoms: C_2  and  C_3
REMARK    2  A    between atoms: C_6  and  C_7
REMARK    3  A    between atoms: N_9  and  C_10
REMARK    4  A    between atoms: C_10  and  C_11
REMARK    5  A    between atoms: C_14  and  C_15
REMARK    6  A    between atoms: C_15  and  N_16
REMARK    7  A    between atoms: C_17  and  C_19
REMARK                            x       y       z     vdW  Elec       q    Type
REMARK                         _______ _______ _______ _____ _____    ______ ____
ROOT
ATOM      1  C   UNL     1      45.219   5.219  11.903  0.00  0.00    +0.000 A 
ATOM      2  C   UNL     1      45.609   6.556  12.063  0.00  0.00    +0.000 A 
ATOM      3  C   UNL     1      46.489   6.937  13.088  0.00  0.00    +0.000 A 
ATOM      4  C   UNL     1      47.016   5.982  13.968  0.00  0.00    +0.000 A 
ATOM      5  C   UNL     1      46.616   4.647  13.814  0.00  0.00    +0.000 A 
ATOM      6  C   UNL     1      45.744   4.266  12.785  0.00  0.00    +0.000 A 
ENDROOT
BRANCH   1   7
ATOM      7  C   UNL     1      44.247   4.833  10.813  0.00  0.00    +0.000 C 
BRANCH   7  10
ATOM      8  C   UNL     1      45.672   4.494   8.826  0.00  0.00    +0.000 C 
ATOM      9  O   UNL     1      45.959   5.689   8.756  0.00  0.00    +0.000 OA
ATOM     10  N   UNL     1      44.844   3.989   9.806  0.00  0.00    +0.000 N 
ATOM     11  H   UNL     1      44.621   3.001   9.783  0.00  0.00    +0.000 HD
BRANCH   8  15
ATOM     12  C   UNL     1      46.666   1.461   7.233  0.00  0.00    +0.000 A 
ATOM     13  C   UNL     1      47.033   2.291   6.200  0.00  0.00    +0.000 A 
ATOM     14  C   UNL     1      46.718   3.606   6.630  0.00  0.00    +0.000 A 
ATOM     15  C   UNL     1      46.173   3.498   7.899  0.00  0.00    +0.000 A 
ATOM     16  O   UNL     1      46.146   2.175   8.266  0.00  0.00    +0.000 OA
BRANCH  12  18
ATOM     17  N   UNL     1      46.788  -1.103   7.487  0.00  0.00    +0.000 NA
ATOM     18  C   UNL     1      46.736   0.054   7.382  0.00  0.00    +0.000 C 
ENDBRANCH  12  18
ENDBRANCH   8  15
ENDBRANCH   7  10
ENDBRANCH   1   7
BRANCH   4  19
ATOM     19  C   UNL     1      47.990   6.360  15.061  0.00  0.00    +0.000 C 
BRANCH  19  20
ATOM     20  N   UNL     1      49.239   6.846  14.534  0.00  0.00    +0.000 N 
ATOM     21  C   UNL     1      49.537   8.186  14.515  0.00  0.00    +0.000 C 
ATOM     22  O   UNL     1      48.773   9.038  14.965  0.00  0.00    +0.000 OA
ATOM     23  H   UNL     1      49.737   6.228  13.900  0.00  0.00    +0.000 HD
BRANCH  21  24
ATOM     24  C   UNL     1      50.858   8.546  13.981  0.00  0.00    +0.000 A 
ATOM     25  C   UNL     1      50.963   9.392  12.885  0.00  0.00    +0.000 A 
ATOM     26  S   UNL     1      52.575   9.738  12.441  0.00  0.00    +0.000 S 
ATOM     27  C   UNL     1      53.188   8.728  13.666  0.00  0.00    +0.000 A 
ATOM     28  N   UNL     1      54.527   8.546  13.823  0.00  0.00    +0.000 NA
ATOM     29  C   UNL     1      54.847   7.730  14.772  0.00  0.00    +0.000 A 
ATOM     30  N   UNL     1      53.950   7.086  15.585  0.00  0.00    +0.000 N 
ATOM     31  C   UNL     1      52.593   7.272  15.489  0.00  0.00    +0.000 A 
ATOM     32  O   UNL     1      51.822   6.732  16.276  0.00  0.00    +0.000 OA
ATOM     33  C   UNL     1      52.177   8.158  14.419  0.00  0.00    +0.000 A 
ATOM     34  H   UNL     1      54.264   6.473  16.321  0.00  0.00    +0.000 HD
ENDBRANCH  21  24
ENDBRANCH  19  20
ENDBRANCH   4  19
TORSDOF 7
ENDMDL
MODEL 7
REMARK VINA RESULT:    -5.735      2.441      3.562
REMARK INTER + INTRA:          -9.160
REMARK INTER:                  -8.426
REMARK INTRA:                  -0.734
REMARK UNBOUND:                -1.078
REMARK  Name = 
REMARK  7 active torsions:
REMARK  status: ('A' for Active; 'I' for Inactive)
REMARK    1  A    between atoms: C_2  and  C_3
REMARK    2  A    between atoms: C_6  and  C_7
REMARK    3  A    between atoms: N_9  and  C_10
REMARK    4  A    between atoms: C_10  and  C_11
REMARK    5  A    between atoms: C_14  and  C_15
REMARK    6  A    between atoms: C_15  and  N_16
REMARK    7  A    between atoms: C_17  and  C_19
REMARK                            x       y       z     vdW  Elec       q    Type
REMARK                         _______ _______ _______ _____ _____    ______ ____
ROOT
ATOM      1  C   UNL     1      45.174   4.804  11.858  0.00  0.00    +0.000 A 
ATOM      2  C   UNL     1      45.556   6.017  12.450  0.00  0.00    +0.000 A 
ATOM      3  C   UNL     1      46.317   6.040  13.629  0.00  0.00    +0.000 A 
ATOM      4  C   UNL     1      46.732   4.846  14.235  0.00  0.00    +0.000 A 
ATOM      5  C   UNL     1      46.341   3.635  13.649  0.00  0.00    +0.000 A 
ATOM      6  C   UNL     1      45.587   3.612  12.467  0.00  0.00    +0.000 A 
ENDROOT
BRANCH   1   7
ATOM      7  C   UNL     1      44.329   4.798  10.607  0.00  0.00    +0.000 C 
BRANCH   7  10
ATOM      8  C   UNL     1      45.786   4.406   8.652  0.00  0.00    +0.000 C 
ATOM      9  O   UNL     1      46.207   5.563   8.661  0.00  0.00    +0.000 OA
ATOM     10  N   UNL     1      44.868   3.947   9.573  0.00  0.00    +0.000 N 
ATOM     11  H   UNL     1      44.537   2.993   9.486  0.00  0.00    +0.000 HD
BRANCH   8  15
ATOM     12  C   UNL     1      46.646   1.375   6.982  0.00  0.00    +0.000 A 
ATOM     13  C   UNL     1      46.927   2.204   5.923  0.00  0.00    +0.000 A 
ATOM     14  C   UNL     1      46.647   3.520   6.377  0.00  0.00    +0.000 A 
ATOM     15  C   UNL     1      46.209   3.410   7.687  0.00  0.00    +0.000 A 
ATOM     16  O   UNL     1      46.214   2.088   8.055  0.00  0.00    +0.000 OA
BRANCH  12  18
ATOM     17  N   UNL     1      46.790  -1.187   7.258  0.00  0.00    +0.000 NA
ATOM     18  C   UNL     1      46.729  -0.033   7.125  0.00  0.00    +0.000 C 
ENDBRANCH  12  18
ENDBRANCH   8  15
ENDBRANCH   7  10
ENDBRANCH   1   7
BRANCH   4  19
ATOM     19  C   UNL     1      47.578   4.843  15.487  0.00  0.00    +0.000 C 
BRANCH  19  20
ATOM     20  N   UNL     1      48.140   6.139  15.770  0.00  0.00    +0.000 N 
ATOM     21  C   UNL     1      49.386   6.274  16.330  0.00  0.00    +0.000 C 
ATOM     22  O   UNL     1      50.098   5.308  16.596  0.00  0.00    +0.000 OA
ATOM     23  H   UNL     1      47.485   6.911  15.848  0.00  0.00    +0.000 HD
BRANCH  21  24
ATOM     24  C   UNL     1      49.854   7.651  16.538  0.00  0.00    +0.000 A 
ATOM     25  C   UNL     1      49.867   8.553  15.481  0.00  0.00    +0.000 A 
ATOM     26  S   UNL     1      50.392  10.116  15.923  0.00  0.00    +0.000 S 
ATOM     27  C   UNL     1      50.671   9.629  17.530  0.00  0.00    +0.000 A 
ATOM     28  N   UNL     1      51.166  10.497  18.452  0.00  0.00    +0.000 NA
ATOM     29  C   UNL     1      51.356   9.983  19.622  0.00  0.00    +0.000 A 
ATOM     30  N   UNL     1      51.087   8.681  19.956  0.00  0.00    +0.000 N 
ATOM     31  C   UNL     1      50.548   7.781  19.069  0.00  0.00    +0.000 A 
ATOM     32  O   UNL     1      50.256   6.643  19.420  0.00  0.00    +0.000 OA
ATOM     33  C   UNL     1      50.341   8.301  17.731  0.00  0.00    +0.000 A 
ATOM     34  H   UNL     1      51.241   8.343  20.893  0.00  0.00    +0.000 HD
ENDBRANCH  21  24
ENDBRANCH  19  20
ENDBRANCH   4  19
TORSDOF 7
ENDMDL
MODEL 8
REMARK VINA RESULT:    -5.713      2.738      3.609
REMARK INTER + INTRA:          -9.129
REMARK INTER:                  -7.999
REMARK INTRA:                  -1.130
REMARK UNBOUND:                -1.078
REMARK  Name = 
REMARK  7 active torsions:
REMARK  status: ('A' for Active; 'I' for Inactive)
REMARK    1  A    between atoms: C_2  and  C_3
REMARK    2  A    between atoms: C_6  and  C_7
REMARK    3  A    between atoms: N_9  and  C_10
REMARK    4  A    between atoms: C_10  and  C_11
REMARK    5  A    between atoms: C_14  and  C_15
REMARK    6  A    between atoms: C_15  and  N_16
REMARK    7  A    between atoms: C_17  and  C_19
REMARK                            x       y       z     vdW  Elec       q    Type
REMARK                         _______ _______ _______ _____ _____    ______ ____
ROOT
ATOM      1  C   UNL     1      47.253   8.464  13.139  0.00  0.00    +0.000 A 
ATOM      2  C   UNL     1      48.069   8.140  12.047  0.00  0.00    +0.000 A 
ATOM      3  C   UNL     1      49.467   8.248  12.129  0.00  0.00    +0.000 A 
ATOM      4  C   UNL     1      50.082   8.667  13.317  0.00  0.00    +0.000 A 
ATOM      5  C   UNL     1      49.264   9.001  14.405  0.00  0.00    +0.000 A 
ATOM      6  C   UNL     1      47.869   8.885  14.325  0.00  0.00    +0.000 A 
ENDROOT
BRANCH   1   7
ATOM      7  C   UNL     1      45.750   8.371  13.023  0.00  0.00    +0.000 C 
BRANCH   7  10
ATOM      8  C   UNL     1      44.376   6.782  11.727  0.00  0.00    +0.000 C 
ATOM      9  O   UNL     1      43.897   7.676  11.028  0.00  0.00    +0.000 OA
ATOM     10  N   UNL     1      45.294   7.035  12.724  0.00  0.00    +0.000 N 
ATOM     11  H   UNL     1      45.620   6.257  13.285  0.00  0.00    +0.000 HD
BRANCH   8  15
ATOM     12  C   UNL     1      44.124   3.396  10.634  0.00  0.00    +0.000 A 
ATOM     13  C   UNL     1      43.247   3.271  11.684  0.00  0.00    +0.000 A 
ATOM     14  C   UNL     1      43.186   4.552  12.292  0.00  0.00    +0.000 A 
ATOM     15  C   UNL     1      44.034   5.381  11.575  0.00  0.00    +0.000 A 
ATOM     16  O   UNL     1      44.607   4.664  10.554  0.00  0.00    +0.000 OA
BRANCH  12  18
ATOM     17  N   UNL     1      44.949   1.682   8.891  0.00  0.00    +0.000 NA
ATOM     18  C   UNL     1      44.584   2.462   9.673  0.00  0.00    +0.000 C 
ENDBRANCH  12  18
ENDBRANCH   8  15
ENDBRANCH   7  10
ENDBRANCH   1   7
BRANCH   4  19
ATOM     19  C   UNL     1      51.585   8.762  13.443  0.00  0.00    +0.000 C 
BRANCH  19  20
ATOM     20  N   UNL     1      52.125   7.747  14.311  0.00  0.00    +0.000 N 
ATOM     21  C   UNL     1      52.643   8.059  15.544  0.00  0.00    +0.000 C 
ATOM     22  O   UNL     1      52.652   9.207  15.984  0.00  0.00    +0.000 OA
ATOM     23  H   UNL     1      52.405   6.875  13.873  0.00  0.00    +0.000 HD
BRANCH  21  24
ATOM     24  C   UNL     1      53.132   6.928  16.343  0.00  0.00    +0.000 A 
ATOM     25  C   UNL     1      54.481   6.826  16.660  0.00  0.00    +0.000 A 
ATOM     26  S   UNL     1      54.852   5.476  17.637  0.00  0.00    +0.000 S 
ATOM     27  C   UNL     1      53.233   4.953  17.628  0.00  0.00    +0.000 A 
ATOM     28  N   UNL     1      52.859   3.812  18.267  0.00  0.00    +0.000 NA
ATOM     29  C   UNL     1      51.606   3.521  18.151  0.00  0.00    +0.000 A 
ATOM     30  N   UNL     1      50.690   4.273  17.461  0.00  0.00    +0.000 N 
ATOM     31  C   UNL     1      51.014   5.452  16.838  0.00  0.00    +0.000 A 
ATOM     32  O   UNL     1      50.157   6.136  16.287  0.00  0.00    +0.000 OA
ATOM     33  C   UNL     1      52.417   5.811  16.913  0.00  0.00    +0.000 A 
ATOM     34  H   UNL     1      49.720   4.002  17.422  0.00  0.00    +0.000 HD
ENDBRANCH  21  24
ENDBRANCH  19  20
ENDBRANCH   4  19
TORSDOF 7
ENDMDL
MODEL 9
REMARK VINA RESULT:    -5.587      5.494      7.727
REMARK INTER + INTRA:          -8.951
REMARK INTER:                  -7.931
REMARK INTRA:                  -1.020
REMARK UNBOUND:                -1.078
REMARK  Name = 
REMARK  7 active torsions:
REMARK  status: ('A' for Active; 'I' for Inactive)
REMARK    1  A    between atoms: C_2  and  C_3
REMARK    2  A    between atoms: C_6  and  C_7
REMARK    3  A    between atoms: N_9  and  C_10
REMARK    4  A    between atoms: C_10  and  C_11
REMARK    5  A    between atoms: C_14  and  C_15
REMARK    6  A    between atoms: C_15  and  N_16
REMARK    7  A    between atoms: C_17  and  C_19
REMARK                            x       y       z     vdW  Elec       q    Type
REMARK                         _______ _______ _______ _____ _____    ______ ____
ROOT
ATOM      1  C   UNL     1      51.076   9.400  11.720  0.00  0.00    +0.000 A 
ATOM      2  C   UNL     1      51.072   8.500  12.795  0.00  0.00    +0.000 A 
ATOM      3  C   UNL     1      49.867   8.036  13.347  0.00  0.00    +0.000 A 
ATOM      4  C   UNL     1      48.635   8.448  12.821  0.00  0.00    +0.000 A 
ATOM      5  C   UNL     1      48.641   9.356  11.753  0.00  0.00    +0.000 A 
ATOM      6  C   UNL     1      49.845   9.813  11.197  0.00  0.00    +0.000 A 
ENDROOT
BRANCH   1   7
ATOM      7  C   UNL     1      52.382   9.912  11.160  0.00  0.00    +0.000 C 
BRANCH   7  10
ATOM      8  C   UNL     1      53.306   8.179   9.664  0.00  0.00    +0.000 C 
ATOM      9  O   UNL     1      53.658   7.470  10.608  0.00  0.00    +0.000 OA
ATOM     10  N   UNL     1      52.670   9.389   9.846  0.00  0.00    +0.000 N 
ATOM     11  H   UNL     1      52.440   9.938   9.026  0.00  0.00    +0.000 HD
BRANCH   8  15
ATOM     12  C   UNL     1      53.936   6.445   6.612  0.00  0.00    +0.000 A 
ATOM     13  C   UNL     1      53.774   7.684   6.040  0.00  0.00    +0.000 A 
ATOM     14  C   UNL     1      53.505   8.574   7.113  0.00  0.00    +0.000 A 
ATOM     15  C   UNL     1      53.515   7.820   8.275  0.00  0.00    +0.000 A 
ATOM     16  O   UNL     1      53.783   6.510   7.961  0.00  0.00    +0.000 OA
BRANCH  12  18
ATOM     17  N   UNL     1      54.465   4.136   5.590  0.00  0.00    +0.000 NA
ATOM     18  C   UNL     1      54.217   5.175   6.048  0.00  0.00    +0.000 C 
ENDBRANCH  12  18
ENDBRANCH   8  15
ENDBRANCH   7  10
ENDBRANCH   1   7
BRANCH   4  19
ATOM     19  C   UNL     1      47.324   7.939  13.374  0.00  0.00    +0.000 C 
BRANCH  19  20
ATOM     20  N   UNL     1      46.801   6.835  12.611  0.00  0.00    +0.000 N 
ATOM     21  C   UNL     1      45.815   7.015  11.672  0.00  0.00    +0.000 C 
ATOM     22  O   UNL     1      45.345   8.121  11.413  0.00  0.00    +0.000 OA
ATOM     23  H   UNL     1      46.938   5.907  13.000  0.00  0.00    +0.000 HD
BRANCH  21  24
ATOM     24  C   UNL     1      45.393   5.813  10.941  0.00  0.00    +0.000 A 
ATOM     25  C   UNL     1      45.676   5.681   9.588  0.00  0.00    +0.000 A 
ATOM     26  S   UNL     1      45.156   4.198   8.922  0.00  0.00    +0.000 S 
ATOM     27  C   UNL     1      44.488   3.702  10.406  0.00  0.00    +0.000 A 
ATOM     28  N   UNL     1      43.845   2.508  10.525  0.00  0.00    +0.000 NA
ATOM     29  C   UNL     1      43.363   2.276  11.701  0.00  0.00    +0.000 A 
ATOM     30  N   UNL     1      43.471   3.126  12.772  0.00  0.00    +0.000 N 
ATOM     31  C   UNL     1      44.146   4.320  12.709  0.00  0.00    +0.000 A 
ATOM     32  O   UNL     1      44.282   5.025  13.703  0.00  0.00    +0.000 OA
ATOM     33  C   UNL     1      44.684   4.643  11.401  0.00  0.00    +0.000 A 
ATOM     34  H   UNL     1      43.087   2.880  13.671  0.00  0.00    +0.000 HD
ENDBRANCH  21  24
ENDBRANCH  19  20
ENDBRANCH   4  19
TORSDOF 7
ENDMDL
