MODEL 1
REMARK VINA RESULT:    -8.408      0.000      0.000
REMARK INTER + INTRA:         -13.559
REMARK INTER:                 -12.340
REMARK INTRA:                  -1.219
REMARK UNBOUND:                -1.219
REMARK  Name = 
REMARK  9 active torsions:
REMARK  status: ('A' for Active; 'I' for Inactive)
REMARK    1  A    between atoms: C_2  and  C_22
REMARK    2  A    between atoms: N_3  and  C_4
REMARK    3  A    between atoms: C_4  and  C_5
REMARK    4  A    between atoms: C_8  and  O_9
REMARK    5  A    between atoms: O_9  and  C_10
REMARK    6  A    between atoms: C_14  and  C_15
REMARK    7  A    between atoms: C_15  and  O_16
REMARK    8  A    between atoms: C_15  and  C_17
REMARK    9  A    between atoms: C_17  and  O_18
REMARK                            x       y       z     vdW  Elec       q    Type
REMARK                         _______ _______ _______ _____ _____    ______ ____
ROOT
ATOM      1  C   UNL     1      46.734   7.764  12.960  0.00  0.00    +0.000 A 
ATOM      2  C   UNL     1      47.204   6.565  12.410  0.00  0.00    +0.000 A 
ATOM      3  C   UNL     1      46.473   5.901  11.423  0.00  0.00    +0.000 A 
ATOM      4  C   UNL     1      45.233   6.397  11.014  0.00  0.00    +0.000 A 
ATOM      5  C   UNL     1      44.786   7.622  11.515  0.00  0.00    +0.000 A 
ATOM      6  C   UNL     1      45.536   8.307  12.476  0.00  0.00    +0.000 A 
ENDROOT
BRANCH   1   7
ATOM      7  C   UNL     1      47.536   8.467  14.025  0.00  0.00    +0.000 C 
BRANCH   7  10
ATOM      8  O   UNL     1      50.064   7.325  14.521  0.00  0.00    +0.000 OA
ATOM      9  C   UNL     1      49.144   7.097  15.303  0.00  0.00    +0.000 C 
ATOM     10  N   UNL     1      47.875   7.571  15.102  0.00  0.00    +0.000 N 
ATOM     11  H   UNL     1      47.192   7.498  15.849  0.00  0.00    +0.000 HD
BRANCH   9  12
ATOM     12  C   UNL     1      49.343   6.254  16.491  0.00  0.00    +0.000 A 
ATOM     13  C   UNL     1      50.299   6.608  17.433  0.00  0.00    +0.000 A 
ATOM     14  S   UNL     1      50.395   5.529  18.750  0.00  0.00    +0.000 S 
ATOM     15  C   UNL     1      49.131   4.574  18.130  0.00  0.00    +0.000 A 
ATOM     16  N   UNL     1      48.677   3.488  18.812  0.00  0.00    +0.000 NA
ATOM     17  C   UNL     1      47.686   2.882  18.250  0.00  0.00    +0.000 A 
ATOM     18  N   UNL     1      47.119   3.252  17.058  0.00  0.00    +0.000 N 
ATOM     19  C   UNL     1      47.601   4.286  16.294  0.00  0.00    +0.000 A 
ATOM     20  O   UNL     1      47.172   4.491  15.161  0.00  0.00    +0.000 OA
ATOM     21  C   UNL     1      48.671   5.047  16.914  0.00  0.00    +0.000 A 
ATOM     22  H   UNL     1      46.372   2.708  16.651  0.00  0.00    +0.000 HD
ENDBRANCH   9  12
ENDBRANCH   7  10
ENDBRANCH   1   7
BRANCH   4  23
ATOM     23  O   UNL     1      44.420   5.787  10.083  0.00  0.00    +0.000 OA
BRANCH  23  24
ATOM     24  C   UNL     1      44.672   4.492   9.683  0.00  0.00    +0.000 A 
ATOM     25  C   UNL     1      44.128   3.356  10.286  0.00  0.00    +0.000 A 
ATOM     26  C   UNL     1      44.482   2.085   9.836  0.00  0.00    +0.000 A 
ATOM     27  C   UNL     1      45.310   1.941   8.724  0.00  0.00    +0.000 A 
ATOM     28  C   UNL     1      45.781   3.071   8.036  0.00  0.00    +0.000 A 
ATOM     29  C   UNL     1      45.469   4.345   8.544  0.00  0.00    +0.000 A 
BRANCH  28  30
ATOM     30  C   UNL     1      46.545   2.943   6.730  0.00  0.00    +0.000 C 
BRANCH  30  31
ATOM     31  O   UNL     1      46.849   4.239   6.215  0.00  0.00    +0.000 OA
ATOM     32  H   UNL     1      47.283   4.750   6.916  0.00  0.00    +0.000 HD
ENDBRANCH  30  31
BRANCH  30  33
ATOM     33  C   UNL     1      47.834   2.113   6.897  0.00  0.00    +0.000 C 
BRANCH  33  34
ATOM     34  O   UNL     1      48.460   1.812   5.652  0.00  0.00    +0.000 OA
ATOM     35  H   UNL     1      48.381   0.850   5.511  0.00  0.00    +0.000 HD
ENDBRANCH  33  34
ENDBRANCH  30  33
ENDBRANCH  28  30
ENDBRANCH  23  24
ENDBRANCH   4  23
TORSDOF 9
ENDMDL
MODEL 2
REMARK VINA RESULT:    -7.394      1.534      2.454
REMARK INTER + INTRA:         -12.071
REMARK INTER:                 -11.184
REMARK INTRA:                  -0.887
REMARK UNBOUND:                -1.219
REMARK  Name = 
REMARK  9 active torsions:
REMARK  status: ('A' for Active; 'I' for Inactive)
REMARK    1  A    between atoms: C_2  and  C_22
REMARK    2  A    between atoms: N_3  and  C_4
REMARK    3  A    between atoms: C_4  and  C_5
REMARK    4  A    between atoms: C_8  and  O_9
REMARK    5  A    between atoms: O_9  and  C_10
REMARK    6  A    between atoms: C_14  and  C_15
REMARK    7  A    between atoms: C_15  and  O_16
REMARK    8  A    between atoms: C_15  and  C_17
REMARK    9  A    between atoms: C_17  and  O_18
REMARK                            x       y       z     vdW  Elec       q    Type
REMARK                         _______ _______ _______ _____ _____    ______ ____
ROOT
ATOM      1  C   UNL     1      46.746   7.402  12.997  0.00  0.00    +0.000 A 
ATOM      2  C   UNL     1      45.854   8.178  12.248  0.00  0.00    +0.000 A 
ATOM      3  C   UNL     1      44.922   7.574  11.400  0.00  0.00    +0.000 A 
ATOM      4  C   UNL     1      44.911   6.186  11.246  0.00  0.00    +0.000 A 
ATOM      5  C   UNL     1      45.757   5.402  12.033  0.00  0.00    +0.000 A 
ATOM      6  C   UNL     1      46.664   6.005  12.911  0.00  0.00    +0.000 A 
ENDROOT
BRANCH   1   7
ATOM      7  C   UNL     1      47.745   8.070  13.906  0.00  0.00    +0.000 C 
BRANCH   7  10
ATOM      8  O   UNL     1      50.079   6.798  14.841  0.00  0.00    +0.000 OA
ATOM      9  C   UNL     1      49.076   6.799  15.550  0.00  0.00    +0.000 C 
ATOM     10  N   UNL     1      47.889   7.350  15.145  0.00  0.00    +0.000 N 
ATOM     11  H   UNL     1      47.142   7.474  15.820  0.00  0.00    +0.000 HD
BRANCH   9  12
ATOM     12  C   UNL     1      49.079   6.163  16.876  0.00  0.00    +0.000 A 
ATOM     13  C   UNL     1      48.473   4.926  17.046  0.00  0.00    +0.000 A 
ATOM     14  S   UNL     1      48.571   4.328  18.640  0.00  0.00    +0.000 S 
ATOM     15  C   UNL     1      49.466   5.681  19.150  0.00  0.00    +0.000 A 
ATOM     16  N   UNL     1      49.918   5.779  20.430  0.00  0.00    +0.000 NA
ATOM     17  C   UNL     1      50.621   6.835  20.668  0.00  0.00    +0.000 A 
ATOM     18  N   UNL     1      50.898   7.812  19.749  0.00  0.00    +0.000 N 
ATOM     19  C   UNL     1      50.390   7.799  18.473  0.00  0.00    +0.000 A 
ATOM     20  O   UNL     1      50.527   8.765  17.726  0.00  0.00    +0.000 OA
ATOM     21  C   UNL     1      49.650   6.598  18.130  0.00  0.00    +0.000 A 
ATOM     22  H   UNL     1      51.420   8.636  20.012  0.00  0.00    +0.000 HD
ENDBRANCH   9  12
ENDBRANCH   7  10
ENDBRANCH   1   7
BRANCH   4  23
ATOM     23  O   UNL     1      44.063   5.505  10.399  0.00  0.00    +0.000 OA
BRANCH  23  24
ATOM     24  C   UNL     1      44.417   4.265   9.910  0.00  0.00    +0.000 A 
ATOM     25  C   UNL     1      43.907   3.053  10.382  0.00  0.00    +0.000 A 
ATOM     26  C   UNL     1      44.365   1.848   9.852  0.00  0.00    +0.000 A 
ATOM     27  C   UNL     1      45.266   1.846   8.789  0.00  0.00    +0.000 A 
ATOM     28  C   UNL     1      45.709   3.055   8.229  0.00  0.00    +0.000 A 
ATOM     29  C   UNL     1      45.290   4.262   8.818  0.00  0.00    +0.000 A 
BRANCH  28  30
ATOM     30  C   UNL     1      46.557   3.083   6.970  0.00  0.00    +0.000 C 
BRANCH  30  31
ATOM     31  O   UNL     1      47.208   4.347   6.849  0.00  0.00    +0.000 OA
ATOM     32  H   UNL     1      48.149   4.189   6.677  0.00  0.00    +0.000 HD
ENDBRANCH  30  31
BRANCH  30  33
ATOM     33  C   UNL     1      47.592   1.939   6.949  0.00  0.00    +0.000 C 
BRANCH  33  34
ATOM     34  O   UNL     1      48.381   1.933   5.762  0.00  0.00    +0.000 OA
ATOM     35  H   UNL     1      48.482   2.860   5.475  0.00  0.00    +0.000 HD
ENDBRANCH  33  34
ENDBRANCH  30  33
ENDBRANCH  28  30
ENDBRANCH  23  24
ENDBRANCH   4  23
TORSDOF 9
ENDMDL
MODEL 3
REMARK VINA RESULT:    -6.971      4.872      9.625
REMARK INTER + INTRA:         -11.450
REMARK INTER:                 -10.661
REMARK INTRA:                  -0.789
REMARK UNBOUND:                -1.219
REMARK  Name = 
REMARK  9 active torsions:
REMARK  status: ('A' for Active; 'I' for Inactive)
REMARK    1  A    between atoms: C_2  and  C_22
REMARK    2  A    between atoms: N_3  and  C_4
REMARK    3  A    between atoms: C_4  and  C_5
REMARK    4  A    between atoms: C_8  and  O_9
REMARK    5  A    between atoms: O_9  and  C_10
REMARK    6  A    between atoms: C_14  and  C_15
REMARK    7  A    between atoms: C_15  and  O_16
REMARK    8  A    between atoms: C_15  and  C_17
REMARK    9  A    between atoms: C_17  and  O_18
REMARK                            x       y       z     vdW  Elec       q    Type
REMARK                         _______ _______ _______ _____ _____    ______ ____
ROOT
ATOM      1  C   UNL     1      48.699   3.677  17.090  0.00  0.00    +0.000 A 
ATOM      2  C   UNL     1      49.476   2.517  17.196  0.00  0.00    +0.000 A 
ATOM      3  C   UNL     1      50.848   2.600  17.439  0.00  0.00    +0.000 A 
ATOM      4  C   UNL     1      51.473   3.846  17.519  0.00  0.00    +0.000 A 
ATOM      5  C   UNL     1      50.697   5.006  17.473  0.00  0.00    +0.000 A 
ATOM      6  C   UNL     1      49.316   4.923  17.268  0.00  0.00    +0.000 A 
ENDROOT
BRANCH   1   7
ATOM      7  C   UNL     1      47.219   3.570  16.828  0.00  0.00    +0.000 C 
BRANCH   7  10
ATOM      8  O   UNL     1      47.242   3.212  14.033  0.00  0.00    +0.000 OA
ATOM      9  C   UNL     1      46.789   4.255  14.495  0.00  0.00    +0.000 C 
ATOM     10  N   UNL     1      46.792   4.526  15.838  0.00  0.00    +0.000 N 
ATOM     11  H   UNL     1      46.264   5.319  16.187  0.00  0.00    +0.000 HD
BRANCH   9  12
ATOM     12  C   UNL     1      46.251   5.308  13.622  0.00  0.00    +0.000 A 
ATOM     13  C   UNL     1      47.010   6.441  13.361  0.00  0.00    +0.000 A 
ATOM     14  S   UNL     1      46.242   7.557  12.326  0.00  0.00    +0.000 S 
ATOM     15  C   UNL     1      44.886   6.546  12.152  0.00  0.00    +0.000 A 
ATOM     16  N   UNL     1      43.850   6.897  11.342  0.00  0.00    +0.000 NA
ATOM     17  C   UNL     1      42.908   6.018  11.268  0.00  0.00    +0.000 A 
ATOM     18  N   UNL     1      42.898   4.827  11.945  0.00  0.00    +0.000 N 
ATOM     19  C   UNL     1      43.877   4.471  12.840  0.00  0.00    +0.000 A 
ATOM     20  O   UNL     1      43.759   3.472  13.545  0.00  0.00    +0.000 OA
ATOM     21  C   UNL     1      44.997   5.392  12.908  0.00  0.00    +0.000 A 
ATOM     22  H   UNL     1      42.109   4.200  11.876  0.00  0.00    +0.000 HD
ENDBRANCH   9  12
ENDBRANCH   7  10
ENDBRANCH   1   7
BRANCH   4  23
ATOM     23  O   UNL     1      52.827   4.026  17.708  0.00  0.00    +0.000 OA
BRANCH  23  24
ATOM     24  C   UNL     1      53.551   3.121  18.454  0.00  0.00    +0.000 A 
ATOM     25  C   UNL     1      53.885   3.290  19.799  0.00  0.00    +0.000 A 
ATOM     26  C   UNL     1      54.663   2.336  20.454  0.00  0.00    +0.000 A 
ATOM     27  C   UNL     1      55.038   1.166  19.795  0.00  0.00    +0.000 A 
ATOM     28  C   UNL     1      54.622   0.927  18.476  0.00  0.00    +0.000 A 
ATOM     29  C   UNL     1      53.894   1.929  17.809  0.00  0.00    +0.000 A 
BRANCH  28  30
ATOM     30  C   UNL     1      54.874  -0.406  17.794  0.00  0.00    +0.000 C 
BRANCH  30  31
ATOM     31  O   UNL     1      53.860  -1.341  18.161  0.00  0.00    +0.000 OA
ATOM     32  H   UNL     1      53.636  -1.869  17.379  0.00  0.00    +0.000 HD
ENDBRANCH  30  31
BRANCH  30  33
ATOM     33  C   UNL     1      54.946  -0.262  16.260  0.00  0.00    +0.000 C 
BRANCH  33  34
ATOM     34  O   UNL     1      54.024  -1.115  15.585  0.00  0.00    +0.000 OA
ATOM     35  H   UNL     1      53.559  -0.573  14.920  0.00  0.00    +0.000 HD
ENDBRANCH  33  34
ENDBRANCH  30  33
ENDBRANCH  28  30
ENDBRANCH  23  24
ENDBRANCH   4  23
TORSDOF 9
ENDMDL
MODEL 4
REMARK VINA RESULT:    -6.696      3.969      8.936
REMARK INTER + INTRA:         -11.046
REMARK INTER:                  -9.813
REMARK INTRA:                  -1.233
REMARK UNBOUND:                -1.219
REMARK  Name = 
REMARK  9 active torsions:
REMARK  status: ('A' for Active; 'I' for Inactive)
REMARK    1  A    between atoms: C_2  and  C_22
REMARK    2  A    between atoms: N_3  and  C_4
REMARK    3  A    between atoms: C_4  and  C_5
REMARK    4  A    between atoms: C_8  and  O_9
REMARK    5  A    between atoms: O_9  and  C_10
REMARK    6  A    between atoms: C_14  and  C_15
REMARK    7  A    between atoms: C_15  and  O_16
REMARK    8  A    between atoms: C_15  and  C_17
REMARK    9  A    between atoms: C_17  and  O_18
REMARK                            x       y       z     vdW  Elec       q    Type
REMARK                         _______ _______ _______ _____ _____    ______ ____
ROOT
ATOM      1  C   UNL     1      48.574   3.821  17.239  0.00  0.00    +0.000 A 
ATOM      2  C   UNL     1      49.606   2.876  17.203  0.00  0.00    +0.000 A 
ATOM      3  C   UNL     1      50.879   3.194  17.680  0.00  0.00    +0.000 A 
ATOM      4  C   UNL     1      51.153   4.482  18.144  0.00  0.00    +0.000 A 
ATOM      5  C   UNL     1      50.116   5.412  18.237  0.00  0.00    +0.000 A 
ATOM      6  C   UNL     1      48.830   5.082  17.795  0.00  0.00    +0.000 A 
ENDROOT
BRANCH   1   7
ATOM      7  C   UNL     1      47.206   3.461  16.720  0.00  0.00    +0.000 C 
BRANCH   7  10
ATOM      8  O   UNL     1      47.256   3.166  13.918  0.00  0.00    +0.000 OA
ATOM      9  C   UNL     1      46.759   4.180  14.401  0.00  0.00    +0.000 C 
ATOM     10  N   UNL     1      46.744   4.421  15.749  0.00  0.00    +0.000 N 
ATOM     11  H   UNL     1      46.183   5.184  16.113  0.00  0.00    +0.000 HD
BRANCH   9  12
ATOM     12  C   UNL     1      46.182   5.228  13.547  0.00  0.00    +0.000 A 
ATOM     13  C   UNL     1      46.907   6.384  13.293  0.00  0.00    +0.000 A 
ATOM     14  S   UNL     1      46.098   7.493  12.282  0.00  0.00    +0.000 S 
ATOM     15  C   UNL     1      44.766   6.448  12.110  0.00  0.00    +0.000 A 
ATOM     16  N   UNL     1      43.712   6.782  11.318  0.00  0.00    +0.000 NA
ATOM     17  C   UNL     1      42.793   5.879  11.243  0.00  0.00    +0.000 A 
ATOM     18  N   UNL     1      42.823   4.680  11.905  0.00  0.00    +0.000 N 
ATOM     19  C   UNL     1      43.822   4.338  12.783  0.00  0.00    +0.000 A 
ATOM     20  O   UNL     1      43.739   3.328  13.477  0.00  0.00    +0.000 OA
ATOM     21  C   UNL     1      44.917   5.288  12.850  0.00  0.00    +0.000 A 
ATOM     22  H   UNL     1      42.050   4.033  11.837  0.00  0.00    +0.000 HD
ENDBRANCH   9  12
ENDBRANCH   7  10
ENDBRANCH   1   7
BRANCH   4  23
ATOM     23  O   UNL     1      52.388   4.902  18.588  0.00  0.00    +0.000 OA
BRANCH  23  24
ATOM     24  C   UNL     1      53.467   4.922  17.729  0.00  0.00    +0.000 A 
ATOM     25  C   UNL     1      54.492   3.974  17.722  0.00  0.00    +0.000 A 
ATOM     26  C   UNL     1      55.565   4.108  16.843  0.00  0.00    +0.000 A 
ATOM     27  C   UNL     1      55.577   5.138  15.904  0.00  0.00    +0.000 A 
ATOM     28  C   UNL     1      54.504   6.039  15.822  0.00  0.00    +0.000 A 
ATOM     29  C   UNL     1      53.462   5.930  16.760  0.00  0.00    +0.000 A 
BRANCH  28  30
ATOM     30  C   UNL     1      54.413   7.065  14.706  0.00  0.00    +0.000 C 
BRANCH  30  31
ATOM     31  O   UNL     1      54.588   6.427  13.442  0.00  0.00    +0.000 OA
ATOM     32  H   UNL     1      53.723   6.110  13.140  0.00  0.00    +0.000 HD
ENDBRANCH  30  31
BRANCH  30  33
ATOM     33  C   UNL     1      53.077   7.836  14.741  0.00  0.00    +0.000 C 
BRANCH  33  34
ATOM     34  O   UNL     1      52.542   8.066  13.440  0.00  0.00    +0.000 OA
ATOM     35  H   UNL     1      53.267   7.942  12.800  0.00  0.00    +0.000 HD
ENDBRANCH  33  34
ENDBRANCH  30  33
ENDBRANCH  28  30
ENDBRANCH  23  24
ENDBRANCH   4  23
TORSDOF 9
ENDMDL
MODEL 5
REMARK VINA RESULT:    -6.520      3.416      4.864
REMARK INTER + INTRA:         -10.788
REMARK INTER:                  -9.695
REMARK INTRA:                  -1.092
REMARK UNBOUND:                -1.219
REMARK  Name = 
REMARK  9 active torsions:
REMARK  status: ('A' for Active; 'I' for Inactive)
REMARK    1  A    between atoms: C_2  and  C_22
REMARK    2  A    between atoms: N_3  and  C_4
REMARK    3  A    between atoms: C_4  and  C_5
REMARK    4  A    between atoms: C_8  and  O_9
REMARK    5  A    between atoms: O_9  and  C_10
REMARK    6  A    between atoms: C_14  and  C_15
REMARK    7  A    between atoms: C_15  and  O_16
REMARK    8  A    between atoms: C_15  and  C_17
REMARK    9  A    between atoms: C_17  and  O_18
REMARK                            x       y       z     vdW  Elec       q    Type
REMARK                         _______ _______ _______ _____ _____    ______ ____
ROOT
ATOM      1  C   UNL     1      47.255   7.420  13.465  0.00  0.00    +0.000 A 
ATOM      2  C   UNL     1      46.273   8.304  13.004  0.00  0.00    +0.000 A 
ATOM      3  C   UNL     1      45.323   7.887  12.070  0.00  0.00    +0.000 A 
ATOM      4  C   UNL     1      45.379   6.597  11.539  0.00  0.00    +0.000 A 
ATOM      5  C   UNL     1      46.318   5.691  12.037  0.00  0.00    +0.000 A 
ATOM      6  C   UNL     1      47.247   6.097  13.001  0.00  0.00    +0.000 A 
ENDROOT
BRANCH   1   7
ATOM      7  C   UNL     1      48.273   7.886  14.474  0.00  0.00    +0.000 C 
BRANCH   7  10
ATOM      8  O   UNL     1      50.931   7.546  15.348  0.00  0.00    +0.000 OA
ATOM      9  C   UNL     1      50.722   8.138  14.292  0.00  0.00    +0.000 C 
ATOM     10  N   UNL     1      49.458   8.389  13.827  0.00  0.00    +0.000 N 
ATOM     11  H   UNL     1      49.335   8.732  12.880  0.00  0.00    +0.000 HD
BRANCH   9  12
ATOM     12  C   UNL     1      51.830   8.657  13.476  0.00  0.00    +0.000 A 
ATOM     13  C   UNL     1      52.826   9.418  14.073  0.00  0.00    +0.000 A 
ATOM     14  S   UNL     1      54.036   9.934  12.988  0.00  0.00    +0.000 S 
ATOM     15  C   UNL     1      53.296   9.121  11.690  0.00  0.00    +0.000 A 
ATOM     16  N   UNL     1      53.859   9.123  10.452  0.00  0.00    +0.000 NA
ATOM     17  C   UNL     1      53.216   8.430   9.572  0.00  0.00    +0.000 A 
ATOM     18  N   UNL     1      52.051   7.751   9.814  0.00  0.00    +0.000 N 
ATOM     19  C   UNL     1      51.402   7.794  11.023  0.00  0.00    +0.000 A 
ATOM     20  O   UNL     1      50.283   7.305  11.160  0.00  0.00    +0.000 OA
ATOM     21  C   UNL     1      52.118   8.501  12.069  0.00  0.00    +0.000 A 
ATOM     22  H   UNL     1      51.575   7.262   9.070  0.00  0.00    +0.000 HD
ENDBRANCH   9  12
ENDBRANCH   7  10
ENDBRANCH   1   7
BRANCH   4  23
ATOM     23  O   UNL     1      44.516   6.113  10.579  0.00  0.00    +0.000 OA
BRANCH  23  24
ATOM     24  C   UNL     1      44.618   4.807  10.149  0.00  0.00    +0.000 A 
ATOM     25  C   UNL     1      43.956   3.725  10.736  0.00  0.00    +0.000 A 
ATOM     26  C   UNL     1      44.162   2.434  10.254  0.00  0.00    +0.000 A 
ATOM     27  C   UNL     1      44.958   2.223   9.130  0.00  0.00    +0.000 A 
ATOM     28  C   UNL     1      45.545   3.307   8.460  0.00  0.00    +0.000 A 
ATOM     29  C   UNL     1      45.382   4.597   8.997  0.00  0.00    +0.000 A 
BRANCH  28  30
ATOM     30  C   UNL     1      46.277   3.124   7.142  0.00  0.00    +0.000 C 
BRANCH  30  31
ATOM     31  O   UNL     1      46.795   4.376   6.695  0.00  0.00    +0.000 OA
ATOM     32  H   UNL     1      46.429   4.559   5.815  0.00  0.00    +0.000 HD
ENDBRANCH  30  31
BRANCH  30  33
ATOM     33  C   UNL     1      47.408   2.081   7.253  0.00  0.00    +0.000 C 
BRANCH  33  34
ATOM     34  O   UNL     1      47.140   0.898   6.505  0.00  0.00    +0.000 OA
ATOM     35  H   UNL     1      46.191   0.904   6.280  0.00  0.00    +0.000 HD
ENDBRANCH  33  34
ENDBRANCH  30  33
ENDBRANCH  28  30
ENDBRANCH  23  24
ENDBRANCH   4  23
TORSDOF 9
ENDMDL
MODEL 6
REMARK VINA RESULT:    -6.352      4.517      8.458
REMARK INTER + INTRA:         -10.541
REMARK INTER:                  -9.420
REMARK INTRA:                  -1.121
REMARK UNBOUND:                -1.219
REMARK  Name = 
REMARK  9 active torsions:
REMARK  status: ('A' for Active; 'I' for Inactive)
REMARK    1  A    between atoms: C_2  and  C_22
REMARK    2  A    between atoms: N_3  and  C_4
REMARK    3  A    between atoms: C_4  and  C_5
REMARK    4  A    between atoms: C_8  and  O_9
REMARK    5  A    between atoms: O_9  and  C_10
REMARK    6  A    between atoms: C_14  and  C_15
REMARK    7  A    between atoms: C_15  and  O_16
REMARK    8  A    between atoms: C_15  and  C_17
REMARK    9  A    between atoms: C_17  and  O_18
REMARK                            x       y       z     vdW  Elec       q    Type
REMARK                         _______ _______ _______ _____ _____    ______ ____
ROOT
ATOM      1  C   UNL     1      44.865   4.552  12.419  0.00  0.00    +0.000 A 
ATOM      2  C   UNL     1      46.098   4.223  12.996  0.00  0.00    +0.000 A 
ATOM      3  C   UNL     1      46.927   5.219  13.518  0.00  0.00    +0.000 A 
ATOM      4  C   UNL     1      46.561   6.562  13.415  0.00  0.00    +0.000 A 
ATOM      5  C   UNL     1      45.308   6.893  12.894  0.00  0.00    +0.000 A 
ATOM      6  C   UNL     1      44.460   5.893  12.406  0.00  0.00    +0.000 A 
ENDROOT
BRANCH   1   7
ATOM      7  C   UNL     1      43.983   3.465  11.861  0.00  0.00    +0.000 C 
BRANCH   7  10
ATOM      8  O   UNL     1      44.055   3.970   9.089  0.00  0.00    +0.000 OA
ATOM      9  C   UNL     1      44.703   3.028   9.540  0.00  0.00    +0.000 C 
ATOM     10  N   UNL     1      44.677   2.686  10.866  0.00  0.00    +0.000 N 
ATOM     11  H   UNL     1      45.348   2.012  11.219  0.00  0.00    +0.000 HD
BRANCH   9  12
ATOM     12  C   UNL     1      45.519   2.175   8.664  0.00  0.00    +0.000 A 
ATOM     13  C   UNL     1      45.421   0.793   8.765  0.00  0.00    +0.000 A 
ATOM     14  S   UNL     1      46.428  -0.046   7.675  0.00  0.00    +0.000 S 
ATOM     15  C   UNL     1      46.998   1.406   6.998  0.00  0.00    +0.000 A 
ATOM     16  N   UNL     1      47.878   1.396   5.960  0.00  0.00    +0.000 NA
ATOM     17  C   UNL     1      48.192   2.567   5.515  0.00  0.00    +0.000 A 
ATOM     18  N   UNL     1      47.721   3.747   6.026  0.00  0.00    +0.000 N 
ATOM     19  C   UNL     1      46.902   3.808   7.127  0.00  0.00    +0.000 A 
ATOM     20  O   UNL     1      46.626   4.884   7.654  0.00  0.00    +0.000 OA
ATOM     21  C   UNL     1      46.461   2.518   7.624  0.00  0.00    +0.000 A 
ATOM     22  H   UNL     1      48.039   4.632   5.659  0.00  0.00    +0.000 HD
ENDBRANCH   9  12
ENDBRANCH   7  10
ENDBRANCH   1   7
BRANCH   4  23
ATOM     23  O   UNL     1      47.334   7.615  13.856  0.00  0.00    +0.000 OA
BRANCH  23  24
ATOM     24  C   UNL     1      47.972   8.436  12.950  0.00  0.00    +0.000 A 
ATOM     25  C   UNL     1      47.457   9.646  12.479  0.00  0.00    +0.000 A 
ATOM     26  C   UNL     1      48.159  10.383  11.527  0.00  0.00    +0.000 A 
ATOM     27  C   UNL     1      49.419   9.962  11.105  0.00  0.00    +0.000 A 
ATOM     28  C   UNL     1      50.002   8.805  11.646  0.00  0.00    +0.000 A 
ATOM     29  C   UNL     1      49.252   8.038  12.556  0.00  0.00    +0.000 A 
BRANCH  28  30
ATOM     30  C   UNL     1      51.435   8.416  11.329  0.00  0.00    +0.000 C 
BRANCH  30  31
ATOM     31  O   UNL     1      51.492   7.046  10.935  0.00  0.00    +0.000 OA
ATOM     32  H   UNL     1      50.788   6.567  11.401  0.00  0.00    +0.000 HD
ENDBRANCH  30  31
BRANCH  30  33
ATOM     33  C   UNL     1      52.048   9.318  10.237  0.00  0.00    +0.000 C 
BRANCH  33  34
ATOM     34  O   UNL     1      53.466   9.200  10.159  0.00  0.00    +0.000 OA
ATOM     35  H   UNL     1      53.750   8.612  10.883  0.00  0.00    +0.000 HD
ENDBRANCH  33  34
ENDBRANCH  30  33
ENDBRANCH  28  30
ENDBRANCH  23  24
ENDBRANCH   4  23
TORSDOF 9
ENDMDL
MODEL 7
REMARK VINA RESULT:    -6.228      4.162      8.900
REMARK INTER + INTRA:         -10.359
REMARK INTER:                  -9.599
REMARK INTRA:                  -0.759
REMARK UNBOUND:                -1.219
REMARK  Name = 
REMARK  9 active torsions:
REMARK  status: ('A' for Active; 'I' for Inactive)
REMARK    1  A    between atoms: C_2  and  C_22
REMARK    2  A    between atoms: N_3  and  C_4
REMARK    3  A    between atoms: C_4  and  C_5
REMARK    4  A    between atoms: C_8  and  O_9
REMARK    5  A    between atoms: O_9  and  C_10
REMARK    6  A    between atoms: C_14  and  C_15
REMARK    7  A    between atoms: C_15  and  O_16
REMARK    8  A    between atoms: C_15  and  C_17
REMARK    9  A    between atoms: C_17  and  O_18
REMARK                            x       y       z     vdW  Elec       q    Type
REMARK                         _______ _______ _______ _____ _____    ______ ____
ROOT
ATOM      1  C   UNL     1      44.276   4.534  12.115  0.00  0.00    +0.000 A 
ATOM      2  C   UNL     1      45.332   4.403  13.025  0.00  0.00    +0.000 A 
ATOM      3  C   UNL     1      46.031   5.527  13.470  0.00  0.00    +0.000 A 
ATOM      4  C   UNL     1      45.721   6.791  12.966  0.00  0.00    +0.000 A 
ATOM      5  C   UNL     1      44.632   6.938  12.104  0.00  0.00    +0.000 A 
ATOM      6  C   UNL     1      43.907   5.816  11.687  0.00  0.00    +0.000 A 
ENDROOT
BRANCH   1   7
ATOM      7  C   UNL     1      43.533   3.310  11.644  0.00  0.00    +0.000 C 
BRANCH   7  10
ATOM      8  O   UNL     1      43.992   3.965   8.942  0.00  0.00    +0.000 OA
ATOM      9  C   UNL     1      44.531   2.966   9.413  0.00  0.00    +0.000 C 
ATOM     10  N   UNL     1      44.315   2.553  10.701  0.00  0.00    +0.000 N 
ATOM     11  H   UNL     1      44.902   1.825  11.095  0.00  0.00    +0.000 HD
BRANCH   9  12
ATOM     12  C   UNL     1      45.415   2.120   8.598  0.00  0.00    +0.000 A 
ATOM     13  C   UNL     1      45.324   0.738   8.693  0.00  0.00    +0.000 A 
ATOM     14  S   UNL     1      46.414  -0.091   7.678  0.00  0.00    +0.000 S 
ATOM     15  C   UNL     1      47.017   1.366   7.042  0.00  0.00    +0.000 A 
ATOM     16  N   UNL     1      47.968   1.365   6.069  0.00  0.00    +0.000 NA
ATOM     17  C   UNL     1      48.301   2.538   5.647  0.00  0.00    +0.000 A 
ATOM     18  N   UNL     1      47.784   3.714   6.122  0.00  0.00    +0.000 N 
ATOM     19  C   UNL     1      46.889   3.767   7.162  0.00  0.00    +0.000 A 
ATOM     20  O   UNL     1      46.566   4.840   7.667  0.00  0.00    +0.000 OA
ATOM     21  C   UNL     1      46.426   2.473   7.627  0.00  0.00    +0.000 A 
ATOM     22  H   UNL     1      48.119   4.602   5.777  0.00  0.00    +0.000 HD
ENDBRANCH   9  12
ENDBRANCH   7  10
ENDBRANCH   1   7
BRANCH   4  23
ATOM     23  O   UNL     1      46.386   7.949  13.309  0.00  0.00    +0.000 OA
BRANCH  23  24
ATOM     24  C   UNL     1      47.743   8.063  13.091  0.00  0.00    +0.000 A 
ATOM     25  C   UNL     1      48.317   8.588  11.931  0.00  0.00    +0.000 A 
ATOM     26  C   UNL     1      49.703   8.617  11.787  0.00  0.00    +0.000 A 
ATOM     27  C   UNL     1      50.525   8.205  12.835  0.00  0.00    +0.000 A 
ATOM     28  C   UNL     1      49.969   7.775  14.050  0.00  0.00    +0.000 A 
ATOM     29  C   UNL     1      48.569   7.689  14.155  0.00  0.00    +0.000 A 
BRANCH  28  30
ATOM     30  C   UNL     1      50.838   7.480  15.260  0.00  0.00    +0.000 C 
BRANCH  30  31
ATOM     31  O   UNL     1      52.208   7.402  14.868  0.00  0.00    +0.000 OA
ATOM     32  H   UNL     1      52.288   7.762  13.971  0.00  0.00    +0.000 HD
ENDBRANCH  30  31
BRANCH  30  33
ATOM     33  C   UNL     1      50.653   8.535  16.371  0.00  0.00    +0.000 C 
BRANCH  33  34
ATOM     34  O   UNL     1      49.755   8.107  17.391  0.00  0.00    +0.000 OA
ATOM     35  H   UNL     1      50.150   8.348  18.249  0.00  0.00    +0.000 HD
ENDBRANCH  33  34
ENDBRANCH  30  33
ENDBRANCH  28  30
ENDBRANCH  23  24
ENDBRANCH   4  23
TORSDOF 9
ENDMDL
MODEL 8
REMARK VINA RESULT:    -6.214      4.139      9.279
REMARK INTER + INTRA:         -10.339
REMARK INTER:                 -10.047
REMARK INTRA:                  -0.293
REMARK UNBOUND:                -1.219
REMARK  Name = 
REMARK  9 active torsions:
REMARK  status: ('A' for Active; 'I' for Inactive)
REMARK    1  A    between atoms: C_2  and  C_22
REMARK    2  A    between atoms: N_3  and  C_4
REMARK    3  A    between atoms: C_4  and  C_5
REMARK    4  A    between atoms: C_8  and  O_9
REMARK    5  A    between atoms: O_9  and  C_10
REMARK    6  A    between atoms: C_14  and  C_15
REMARK    7  A    between atoms: C_15  and  O_16
REMARK    8  A    between atoms: C_15  and  C_17
REMARK    9  A    between atoms: C_17  and  O_18
REMARK                            x       y       z     vdW  Elec       q    Type
REMARK                         _______ _______ _______ _____ _____    ______ ____
ROOT
ATOM      1  C   UNL     1      45.018   4.372  12.471  0.00  0.00    +0.000 A 
ATOM      2  C   UNL     1      46.124   3.939  13.211  0.00  0.00    +0.000 A 
ATOM      3  C   UNL     1      47.004   4.862  13.780  0.00  0.00    +0.000 A 
ATOM      4  C   UNL     1      46.822   6.230  13.567  0.00  0.00    +0.000 A 
ATOM      5  C   UNL     1      45.689   6.671  12.881  0.00  0.00    +0.000 A 
ATOM      6  C   UNL     1      44.786   5.749  12.342  0.00  0.00    +0.000 A 
ENDROOT
BRANCH   1   7
ATOM      7  C   UNL     1      44.078   3.363  11.863  0.00  0.00    +0.000 C 
BRANCH   7  10
ATOM      8  O   UNL     1      44.202   3.981   9.116  0.00  0.00    +0.000 OA
ATOM      9  C   UNL     1      44.789   2.985   9.529  0.00  0.00    +0.000 C 
ATOM     10  N   UNL     1      44.733   2.588  10.839  0.00  0.00    +0.000 N 
ATOM     11  H   UNL     1      45.359   1.861  11.166  0.00  0.00    +0.000 HD
BRANCH   9  12
ATOM     12  C   UNL     1      45.561   2.123   8.622  0.00  0.00    +0.000 A 
ATOM     13  C   UNL     1      45.447   0.743   8.722  0.00  0.00    +0.000 A 
ATOM     14  S   UNL     1      46.402  -0.107   7.594  0.00  0.00    +0.000 S 
ATOM     15  C   UNL     1      46.968   1.339   6.901  0.00  0.00    +0.000 A 
ATOM     16  N   UNL     1      47.809   1.320   5.832  0.00  0.00    +0.000 NA
ATOM     17  C   UNL     1      48.123   2.488   5.379  0.00  0.00    +0.000 A 
ATOM     18  N   UNL     1      47.688   3.673   5.910  0.00  0.00    +0.000 N 
ATOM     19  C   UNL     1      46.911   3.742   7.041  0.00  0.00    +0.000 A 
ATOM     20  O   UNL     1      46.670   4.819   7.580  0.00  0.00    +0.000 OA
ATOM     21  C   UNL     1      46.470   2.456   7.549  0.00  0.00    +0.000 A 
ATOM     22  H   UNL     1      48.005   4.555   5.534  0.00  0.00    +0.000 HD
ENDBRANCH   9  12
ENDBRANCH   7  10
ENDBRANCH   1   7
BRANCH   4  23
ATOM     23  O   UNL     1      47.663   7.210  14.047  0.00  0.00    +0.000 OA
BRANCH  23  24
ATOM     24  C   UNL     1      48.687   6.886  14.913  0.00  0.00    +0.000 A 
ATOM     25  C   UNL     1      49.965   7.447  14.874  0.00  0.00    +0.000 A 
ATOM     26  C   UNL     1      50.946   7.017  15.766  0.00  0.00    +0.000 A 
ATOM     27  C   UNL     1      50.634   6.090  16.759  0.00  0.00    +0.000 A 
ATOM     28  C   UNL     1      49.327   5.594  16.883  0.00  0.00    +0.000 A 
ATOM     29  C   UNL     1      48.365   5.987  15.935  0.00  0.00    +0.000 A 
BRANCH  28  30
ATOM     30  C   UNL     1      48.920   4.714  18.052  0.00  0.00    +0.000 C 
BRANCH  30  31
ATOM     31  O   UNL     1      49.596   5.134  19.237  0.00  0.00    +0.000 OA
ATOM     32  H   UNL     1      50.550   5.128  19.060  0.00  0.00    +0.000 HD
ENDBRANCH  30  31
BRANCH  30  33
ATOM     33  C   UNL     1      47.393   4.719  18.272  0.00  0.00    +0.000 C 
BRANCH  33  34
ATOM     34  O   UNL     1      46.783   3.481  17.917  0.00  0.00    +0.000 OA
ATOM     35  H   UNL     1      46.478   3.560  16.994  0.00  0.00    +0.000 HD
ENDBRANCH  33  34
ENDBRANCH  30  33
ENDBRANCH  28  30
ENDBRANCH  23  24
ENDBRANCH   4  23
TORSDOF 9
ENDMDL
MODEL 9
REMARK VINA RESULT:    -5.714     10.314     13.610
REMARK INTER + INTRA:          -9.605
REMARK INTER:                  -8.479
REMARK INTRA:                  -1.126
REMARK UNBOUND:                -1.219
REMARK  Name = 
REMARK  9 active torsions:
REMARK  status: ('A' for Active; 'I' for Inactive)
REMARK    1  A    between atoms: C_2  and  C_22
REMARK    2  A    between atoms: N_3  and  C_4
REMARK    3  A    between atoms: C_4  and  C_5
REMARK    4  A    between atoms: C_8  and  O_9
REMARK    5  A    between atoms: O_9  and  C_10
REMARK    6  A    between atoms: C_14  and  C_15
REMARK    7  A    between atoms: C_15  and  O_16
REMARK    8  A    between atoms: C_15  and  C_17
REMARK    9  A    between atoms: C_17  and  O_18
REMARK                            x       y       z     vdW  Elec       q    Type
REMARK                         _______ _______ _______ _____ _____    ______ ____
ROOT
ATOM      1  C   UNL     1      40.185  -2.476  15.235  0.00  0.00    +0.000 A 
ATOM      2  C   UNL     1      38.882  -1.970  15.157  0.00  0.00    +0.000 A 
ATOM      3  C   UNL     1      38.253  -1.449  16.289  0.00  0.00    +0.000 A 
ATOM      4  C   UNL     1      38.896  -1.482  17.528  0.00  0.00    +0.000 A 
ATOM      5  C   UNL     1      40.216  -1.931  17.603  0.00  0.00    +0.000 A 
ATOM      6  C   UNL     1      40.862  -2.418  16.461  0.00  0.00    +0.000 A 
ENDROOT
BRANCH   1   7
ATOM      7  C   UNL     1      40.850  -3.035  14.003  0.00  0.00    +0.000 C 
BRANCH   7  10
ATOM      8  O   UNL     1      41.266  -1.777  11.516  0.00  0.00    +0.000 OA
ATOM      9  C   UNL     1      40.248  -2.443  11.683  0.00  0.00    +0.000 C 
ATOM     10  N   UNL     1      39.948  -3.040  12.879  0.00  0.00    +0.000 N 
ATOM     11  H   UNL     1      39.188  -3.710  12.924  0.00  0.00    +0.000 HD
BRANCH   9  12
ATOM     12  C   UNL     1      39.256  -2.604  10.610  0.00  0.00    +0.000 A 
ATOM     13  C   UNL     1      39.305  -3.723   9.790  0.00  0.00    +0.000 A 
ATOM     14  S   UNL     1      38.082  -3.757   8.603  0.00  0.00    +0.000 S 
ATOM     15  C   UNL     1      37.413  -2.300   9.172  0.00  0.00    +0.000 A 
ATOM     16  N   UNL     1      36.291  -1.778   8.608  0.00  0.00    +0.000 NA
ATOM     17  C   UNL     1      35.867  -0.694   9.166  0.00  0.00    +0.000 A 
ATOM     18  N   UNL     1      36.476  -0.073  10.225  0.00  0.00    +0.000 N 
ATOM     19  C   UNL     1      37.657  -0.515  10.768  0.00  0.00    +0.000 A 
ATOM     20  O   UNL     1      38.256   0.151  11.610  0.00  0.00    +0.000 OA
ATOM     21  C   UNL     1      38.140  -1.771  10.225  0.00  0.00    +0.000 A 
ATOM     22  H   UNL     1      36.117   0.798  10.589  0.00  0.00    +0.000 HD
ENDBRANCH   9  12
ENDBRANCH   7  10
ENDBRANCH   1   7
BRANCH   4  23
ATOM     23  O   UNL     1      38.337  -1.037  18.707  0.00  0.00    +0.000 OA
BRANCH  23  24
ATOM     24  C   UNL     1      38.689   0.193  19.222  0.00  0.00    +0.000 A 
ATOM     25  C   UNL     1      39.344   0.383  20.441  0.00  0.00    +0.000 A 
ATOM     26  C   UNL     1      39.615   1.672  20.897  0.00  0.00    +0.000 A 
ATOM     27  C   UNL     1      39.315   2.775  20.100  0.00  0.00    +0.000 A 
ATOM     28  C   UNL     1      38.755   2.601  18.825  0.00  0.00    +0.000 A 
ATOM     29  C   UNL     1      38.427   1.298  18.407  0.00  0.00    +0.000 A 
BRANCH  28  30
ATOM     30  C   UNL     1      38.573   3.769  17.872  0.00  0.00    +0.000 C 
BRANCH  30  31
ATOM     31  O   UNL     1      39.674   3.836  16.967  0.00  0.00    +0.000 OA
ATOM     32  H   UNL     1      39.990   2.933  16.806  0.00  0.00    +0.000 HD
ENDBRANCH  30  31
BRANCH  30  33
ATOM     33  C   UNL     1      37.242   3.676  17.097  0.00  0.00    +0.000 C 
BRANCH  33  34
ATOM     34  O   UNL     1      37.386   3.027  15.836  0.00  0.00    +0.000 OA
ATOM     35  H   UNL     1      37.206   2.079  15.974  0.00  0.00    +0.000 HD
ENDBRANCH  33  34
ENDBRANCH  30  33
ENDBRANCH  28  30
ENDBRANCH  23  24
ENDBRANCH   4  23
TORSDOF 9
ENDMDL
