MODEL 1
REMARK VINA RESULT:    -8.797      0.000      0.000
REMARK INTER + INTRA:         -12.111
REMARK INTER:                 -11.369
REMARK INTRA:                  -0.742
REMARK UNBOUND:                -0.742
REMARK  Name = 
REMARK  5 active torsions:
REMARK  status: ('A' for Active; 'I' for Inactive)
REMARK    1  A    between atoms: C_2  and  C_4
REMARK    2  A    between atoms: C_7  and  N_8
REMARK    3  A    between atoms: N_8  and  C_9
REMARK    4  A    between atoms: C_9  and  C_10
REMARK    5  A    between atoms: C_14  and  C_15
REMARK                            x       y       z     vdW  Elec       q    Type
REMARK                         _______ _______ _______ _____ _____    ______ ____
ROOT
ATOM      1  C   UNL     1      43.587   4.523  11.123  0.00  0.00    +0.000 C 
ENDROOT
BRANCH   1   2
ATOM      2  C   UNL     1      44.833   4.893  11.904  0.00  0.00    +0.000 A 
ATOM      3  C   UNL     1      45.433   3.986  12.782  0.00  0.00    +0.000 A 
ATOM      4  C   UNL     1      46.589   4.345  13.473  0.00  0.00    +0.000 A 
ATOM      5  C   UNL     1      47.162   5.606  13.281  0.00  0.00    +0.000 A 
ATOM      6  C   UNL     1      46.602   6.540  12.393  0.00  0.00    +0.000 A 
ATOM      7  C   UNL     1      45.418   6.163  11.733  0.00  0.00    +0.000 A 
BRANCH   6   8
ATOM      8  C   UNL     1      47.249   7.847  12.125  0.00  0.00    +0.000 A 
ATOM      9  C   UNL     1      48.618   7.946  11.808  0.00  0.00    +0.000 A 
ATOM     10  C   UNL     1      49.237   9.185  11.599  0.00  0.00    +0.000 A 
ATOM     11  C   UNL     1      48.493  10.357  11.689  0.00  0.00    +0.000 A 
ATOM     12  C   UNL     1      47.143  10.277  11.992  0.00  0.00    +0.000 A 
ATOM     13  F   UNL     1      46.420  11.402  12.085  0.00  0.00    +0.000 F 
ATOM     14  C   UNL     1      46.524   9.049  12.213  0.00  0.00    +0.000 A 
ENDBRANCH   6   8
ENDBRANCH   1   2
BRANCH   1  15
ATOM     15  N   UNL     1      43.803   4.876   9.724  0.00  0.00    +0.000 N 
ATOM     16  H   UNL     1      44.062   5.852   9.623  0.00  0.00    +0.000 HD
BRANCH  15  20
ATOM     17  C   UNL     1      46.377   2.338   7.774  0.00  0.00    +0.000 A 
ATOM     18  C   UNL     1      46.409   3.701   7.525  0.00  0.00    +0.000 A 
ATOM     19  N   UNL     1      45.567   4.580   8.137  0.00  0.00    +0.000 NA
ATOM     20  C   UNL     1      44.679   4.056   9.007  0.00  0.00    +0.000 A 
ATOM     21  C   UNL     1      44.668   2.672   9.247  0.00  0.00    +0.000 A 
ATOM     22  N   UNL     1      45.495   1.778   8.645  0.00  0.00    +0.000 NA
BRANCH  17  24
ATOM     23  N   UNL     1      48.446   2.028   6.553  0.00  0.00    +0.000 N 
ATOM     24  C   UNL     1      47.335   1.431   7.086  0.00  0.00    +0.000 C 
ATOM     25  O   UNL     1      47.145   0.224   6.998  0.00  0.00    +0.000 OA
ATOM     26  H   UNL     1      49.126   1.468   6.065  0.00  0.00    +0.000 HD
ATOM     27  H   UNL     1      48.574   3.030   6.642  0.00  0.00    +0.000 HD
ENDBRANCH  17  24
ENDBRANCH  15  20
ENDBRANCH   1  15
TORSDOF 5
ENDMDL
MODEL 2
REMARK VINA RESULT:    -8.641      2.769      4.057
REMARK INTER + INTRA:         -11.909
REMARK INTER:                 -11.301
REMARK INTRA:                  -0.608
REMARK UNBOUND:                -0.742
REMARK  Name = 
REMARK  5 active torsions:
REMARK  status: ('A' for Active; 'I' for Inactive)
REMARK    1  A    between atoms: C_2  and  C_4
REMARK    2  A    between atoms: C_7  and  N_8
REMARK    3  A    between atoms: N_8  and  C_9
REMARK    4  A    between atoms: C_9  and  C_10
REMARK    5  A    between atoms: C_14  and  C_15
REMARK                            x       y       z     vdW  Elec       q    Type
REMARK                         _______ _______ _______ _____ _____    ______ ____
ROOT
ATOM      1  C   UNL     1      44.118   4.579  11.423  0.00  0.00    +0.000 C 
ENDROOT
BRANCH   1   2
ATOM      2  C   UNL     1      45.328   5.306  11.978  0.00  0.00    +0.000 A 
ATOM      3  C   UNL     1      45.885   6.399  11.309  0.00  0.00    +0.000 A 
ATOM      4  C   UNL     1      46.985   7.062  11.852  0.00  0.00    +0.000 A 
ATOM      5  C   UNL     1      47.527   6.646  13.072  0.00  0.00    +0.000 A 
ATOM      6  C   UNL     1      46.984   5.564  13.786  0.00  0.00    +0.000 A 
ATOM      7  C   UNL     1      45.895   4.894  13.200  0.00  0.00    +0.000 A 
BRANCH   6   8
ATOM      8  C   UNL     1      47.503   5.170  15.118  0.00  0.00    +0.000 A 
ATOM      9  C   UNL     1      48.519   5.902  15.765  0.00  0.00    +0.000 A 
ATOM     10  C   UNL     1      49.038   5.502  17.004  0.00  0.00    +0.000 A 
ATOM     11  C   UNL     1      48.541   4.365  17.631  0.00  0.00    +0.000 A 
ATOM     12  C   UNL     1      47.535   3.638  17.012  0.00  0.00    +0.000 A 
ATOM     13  F   UNL     1      47.054   2.538  17.608  0.00  0.00    +0.000 F 
ATOM     14  C   UNL     1      47.023   4.023  15.775  0.00  0.00    +0.000 A 
ENDBRANCH   6   8
ENDBRANCH   1   2
BRANCH   1  15
ATOM     15  N   UNL     1      44.044   4.842   9.990  0.00  0.00    +0.000 N 
ATOM     16  H   UNL     1      44.195   5.825   9.785  0.00  0.00    +0.000 HD
BRANCH  15  20
ATOM     17  C   UNL     1      46.402   2.349   7.735  0.00  0.00    +0.000 A 
ATOM     18  C   UNL     1      46.416   3.718   7.518  0.00  0.00    +0.000 A 
ATOM     19  N   UNL     1      45.643   4.583   8.232  0.00  0.00    +0.000 NA
ATOM     20  C   UNL     1      44.841   4.039   9.171  0.00  0.00    +0.000 A 
ATOM     21  C   UNL     1      44.846   2.650   9.376  0.00  0.00    +0.000 A 
ATOM     22  N   UNL     1      45.606   1.770   8.674  0.00  0.00    +0.000 NA
BRANCH  17  24
ATOM     23  N   UNL     1      48.357   2.060   6.334  0.00  0.00    +0.000 N 
ATOM     24  C   UNL     1      47.283   1.458   6.934  0.00  0.00    +0.000 C 
ATOM     25  O   UNL     1      47.066   0.258   6.815  0.00  0.00    +0.000 OA
ATOM     26  H   UNL     1      48.984   1.511   5.769  0.00  0.00    +0.000 HD
ATOM     27  H   UNL     1      48.509   3.056   6.451  0.00  0.00    +0.000 HD
ENDBRANCH  17  24
ENDBRANCH  15  20
ENDBRANCH   1  15
TORSDOF 5
ENDMDL
MODEL 3
REMARK VINA RESULT:    -8.241      4.656      7.438
REMARK INTER + INTRA:         -11.392
REMARK INTER:                 -10.930
REMARK INTRA:                  -0.463
REMARK UNBOUND:                -0.742
REMARK  Name = 
REMARK  5 active torsions:
REMARK  status: ('A' for Active; 'I' for Inactive)
REMARK    1  A    between atoms: C_2  and  C_4
REMARK    2  A    between atoms: C_7  and  N_8
REMARK    3  A    between atoms: N_8  and  C_9
REMARK    4  A    between atoms: C_9  and  C_10
REMARK    5  A    between atoms: C_14  and  C_15
REMARK                            x       y       z     vdW  Elec       q    Type
REMARK                         _______ _______ _______ _____ _____    ______ ____
ROOT
ATOM      1  C   UNL     1      46.118   7.081  12.361  0.00  0.00    +0.000 C 
ENDROOT
BRANCH   1   2
ATOM      2  C   UNL     1      45.244   6.134  11.562  0.00  0.00    +0.000 A 
ATOM      3  C   UNL     1      43.856   6.116  11.728  0.00  0.00    +0.000 A 
ATOM      4  C   UNL     1      43.074   5.250  10.966  0.00  0.00    +0.000 A 
ATOM      5  C   UNL     1      43.671   4.404  10.025  0.00  0.00    +0.000 A 
ATOM      6  C   UNL     1      45.060   4.404   9.815  0.00  0.00    +0.000 A 
ATOM      7  C   UNL     1      45.828   5.267  10.619  0.00  0.00    +0.000 A 
BRANCH   6   8
ATOM      8  C   UNL     1      45.690   3.570   8.763  0.00  0.00    +0.000 A 
ATOM      9  C   UNL     1      46.271   4.138   7.613  0.00  0.00    +0.000 A 
ATOM     10  C   UNL     1      46.826   3.345   6.599  0.00  0.00    +0.000 A 
ATOM     11  C   UNL     1      46.823   1.960   6.723  0.00  0.00    +0.000 A 
ATOM     12  C   UNL     1      46.263   1.384   7.852  0.00  0.00    +0.000 A 
ATOM     13  F   UNL     1      46.252   0.049   7.977  0.00  0.00    +0.000 F 
ATOM     14  C   UNL     1      45.699   2.166   8.858  0.00  0.00    +0.000 A 
ENDBRANCH   6   8
ENDBRANCH   1   2
BRANCH   1  15
ATOM     15  N   UNL     1      47.396   6.423  12.610  0.00  0.00    +0.000 N 
ATOM     16  H   UNL     1      48.172   7.070  12.509  0.00  0.00    +0.000 HD
BRANCH  15  20
ATOM     17  C   UNL     1      47.520   4.252  16.094  0.00  0.00    +0.000 A 
ATOM     18  C   UNL     1      48.225   5.439  15.979  0.00  0.00    +0.000 A 
ATOM     19  N   UNL     1      48.225   6.187  14.840  0.00  0.00    +0.000 NA
ATOM     20  C   UNL     1      47.501   5.709  13.807  0.00  0.00    +0.000 A 
ATOM     21  C   UNL     1      46.791   4.506  13.947  0.00  0.00    +0.000 A 
ATOM     22  N   UNL     1      46.781   3.743  15.071  0.00  0.00    +0.000 NA
BRANCH  17  24
ATOM     23  N   UNL     1      48.637   3.700  18.171  0.00  0.00    +0.000 N 
ATOM     24  C   UNL     1      47.546   3.488  17.371  0.00  0.00    +0.000 C 
ATOM     25  O   UNL     1      46.650   2.717  17.690  0.00  0.00    +0.000 OA
ATOM     26  H   UNL     1      48.718   3.203  19.044  0.00  0.00    +0.000 HD
ATOM     27  H   UNL     1      49.363   4.344  17.878  0.00  0.00    +0.000 HD
ENDBRANCH  17  24
ENDBRANCH  15  20
ENDBRANCH   1  15
TORSDOF 5
ENDMDL
MODEL 4
REMARK VINA RESULT:    -8.200      1.603      1.928
REMARK INTER + INTRA:         -11.339
REMARK INTER:                 -10.553
REMARK INTRA:                  -0.786
REMARK UNBOUND:                -0.742
REMARK  Name = 
REMARK  5 active torsions:
REMARK  status: ('A' for Active; 'I' for Inactive)
REMARK    1  A    between atoms: C_2  and  C_4
REMARK    2  A    between atoms: C_7  and  N_8
REMARK    3  A    between atoms: N_8  and  C_9
REMARK    4  A    between atoms: C_9  and  C_10
REMARK    5  A    between atoms: C_14  and  C_15
REMARK                            x       y       z     vdW  Elec       q    Type
REMARK                         _______ _______ _______ _____ _____    ______ ____
ROOT
ATOM      1  C   UNL     1      43.877   5.346  10.767  0.00  0.00    +0.000 C 
ENDROOT
BRANCH   1   2
ATOM      2  C   UNL     1      45.051   5.478  11.717  0.00  0.00    +0.000 A 
ATOM      3  C   UNL     1      45.222   4.592  12.785  0.00  0.00    +0.000 A 
ATOM      4  C   UNL     1      46.321   4.724  13.631  0.00  0.00    +0.000 A 
ATOM      5  C   UNL     1      47.264   5.733  13.411  0.00  0.00    +0.000 A 
ATOM      6  C   UNL     1      47.140   6.632  12.338  0.00  0.00    +0.000 A 
ATOM      7  C   UNL     1      46.005   6.496  11.518  0.00  0.00    +0.000 A 
BRANCH   6   8
ATOM      8  C   UNL     1      48.178   7.652  12.051  0.00  0.00    +0.000 A 
ATOM      9  C   UNL     1      47.871   9.025  11.987  0.00  0.00    +0.000 A 
ATOM     10  C   UNL     1      48.845   9.983  11.673  0.00  0.00    +0.000 A 
ATOM     11  C   UNL     1      50.155   9.585  11.428  0.00  0.00    +0.000 A 
ATOM     12  C   UNL     1      50.476   8.239  11.496  0.00  0.00    +0.000 A 
ATOM     13  F   UNL     1      51.735   7.848  11.258  0.00  0.00    +0.000 F 
ATOM     14  C   UNL     1      49.510   7.281  11.796  0.00  0.00    +0.000 A 
ENDBRANCH   6   8
ENDBRANCH   1   2
BRANCH   1  15
ATOM     15  N   UNL     1      43.808   3.962  10.313  0.00  0.00    +0.000 N 
ATOM     16  H   UNL     1      42.861   3.703  10.054  0.00  0.00    +0.000 HD
BRANCH  15  20
ATOM     17  C   UNL     1      46.531   2.729   7.497  0.00  0.00    +0.000 A 
ATOM     18  C   UNL     1      46.146   4.059   7.570  0.00  0.00    +0.000 A 
ATOM     19  N   UNL     1      45.237   4.513   8.478  0.00  0.00    +0.000 NA
ATOM     20  C   UNL     1      44.713   3.593   9.314  0.00  0.00    +0.000 A 
ATOM     21  C   UNL     1      45.121   2.252   9.225  0.00  0.00    +0.000 A 
ATOM     22  N   UNL     1      46.022   1.778   8.326  0.00  0.00    +0.000 NA
BRANCH  17  24
ATOM     23  N   UNL     1      47.533   2.979   5.306  0.00  0.00    +0.000 N 
ATOM     24  C   UNL     1      47.542   2.298   6.494  0.00  0.00    +0.000 C 
ATOM     25  O   UNL     1      48.335   1.391   6.712  0.00  0.00    +0.000 OA
ATOM     26  H   UNL     1      48.186   2.726   4.582  0.00  0.00    +0.000 HD
ATOM     27  H   UNL     1      46.862   3.726   5.155  0.00  0.00    +0.000 HD
ENDBRANCH  17  24
ENDBRANCH  15  20
ENDBRANCH   1  15
TORSDOF 5
ENDMDL
MODEL 5
REMARK VINA RESULT:    -7.796      5.646      8.402
REMARK INTER + INTRA:         -10.818
REMARK INTER:                 -10.249
REMARK INTRA:                  -0.569
REMARK UNBOUND:                -0.742
REMARK  Name = 
REMARK  5 active torsions:
REMARK  status: ('A' for Active; 'I' for Inactive)
REMARK    1  A    between atoms: C_2  and  C_4
REMARK    2  A    between atoms: C_7  and  N_8
REMARK    3  A    between atoms: N_8  and  C_9
REMARK    4  A    between atoms: C_9  and  C_10
REMARK    5  A    between atoms: C_14  and  C_15
REMARK                            x       y       z     vdW  Elec       q    Type
REMARK                         _______ _______ _______ _____ _____    ______ ____
ROOT
ATOM      1  C   UNL     1      45.980   5.285  13.913  0.00  0.00    +0.000 C 
ENDROOT
BRANCH   1   2
ATOM      2  C   UNL     1      45.071   4.897  12.763  0.00  0.00    +0.000 A 
ATOM      3  C   UNL     1      43.700   5.163  12.802  0.00  0.00    +0.000 A 
ATOM      4  C   UNL     1      42.890   4.813  11.723  0.00  0.00    +0.000 A 
ATOM      5  C   UNL     1      43.446   4.206  10.592  0.00  0.00    +0.000 A 
ATOM      6  C   UNL     1      44.823   3.938  10.505  0.00  0.00    +0.000 A 
ATOM      7  C   UNL     1      45.611   4.274  11.621  0.00  0.00    +0.000 A 
BRANCH   6   8
ATOM      8  C   UNL     1      45.430   3.370   9.277  0.00  0.00    +0.000 A 
ATOM      9  C   UNL     1      45.801   4.183   8.188  0.00  0.00    +0.000 A 
ATOM     10  C   UNL     1      46.334   3.639   7.011  0.00  0.00    +0.000 A 
ATOM     11  C   UNL     1      46.520   2.265   6.905  0.00  0.00    +0.000 A 
ATOM     12  C   UNL     1      46.169   1.451   7.971  0.00  0.00    +0.000 A 
ATOM     13  F   UNL     1      46.342   0.126   7.874  0.00  0.00    +0.000 F 
ATOM     14  C   UNL     1      45.628   1.985   9.138  0.00  0.00    +0.000 A 
ENDBRANCH   6   8
ENDBRANCH   1   2
BRANCH   1  15
ATOM     15  N   UNL     1      46.554   4.067  14.474  0.00  0.00    +0.000 N 
ATOM     16  H   UNL     1      47.205   3.632  13.828  0.00  0.00    +0.000 HD
BRANCH  15  20
ATOM     17  C   UNL     1      48.389   4.473  18.126  0.00  0.00    +0.000 A 
ATOM     18  C   UNL     1      47.443   3.481  17.919  0.00  0.00    +0.000 A 
ATOM     19  N   UNL     1      46.799   3.315  16.730  0.00  0.00    +0.000 NA
ATOM     20  C   UNL     1      47.122   4.180  15.746  0.00  0.00    +0.000 A 
ATOM     21  C   UNL     1      48.086   5.174  15.976  0.00  0.00    +0.000 A 
ATOM     22  N   UNL     1      48.737   5.360  17.154  0.00  0.00    +0.000 NA
BRANCH  17  24
ATOM     23  N   UNL     1      48.580   3.798  20.444  0.00  0.00    +0.000 N 
ATOM     24  C   UNL     1      49.071   4.592  19.443  0.00  0.00    +0.000 C 
ATOM     25  O   UNL     1      50.014   5.352  19.624  0.00  0.00    +0.000 OA
ATOM     26  H   UNL     1      48.992   3.842  21.362  0.00  0.00    +0.000 HD
ATOM     27  H   UNL     1      47.797   3.179  20.262  0.00  0.00    +0.000 HD
ENDBRANCH  17  24
ENDBRANCH  15  20
ENDBRANCH   1  15
TORSDOF 5
ENDMDL
MODEL 6
REMARK VINA RESULT:    -7.714      2.052      2.765
REMARK INTER + INTRA:         -10.711
REMARK INTER:                  -9.994
REMARK INTRA:                  -0.717
REMARK UNBOUND:                -0.742
REMARK  Name = 
REMARK  5 active torsions:
REMARK  status: ('A' for Active; 'I' for Inactive)
REMARK    1  A    between atoms: C_2  and  C_4
REMARK    2  A    between atoms: C_7  and  N_8
REMARK    3  A    between atoms: N_8  and  C_9
REMARK    4  A    between atoms: C_9  and  C_10
REMARK    5  A    between atoms: C_14  and  C_15
REMARK                            x       y       z     vdW  Elec       q    Type
REMARK                         _______ _______ _______ _____ _____    ______ ____
ROOT
ATOM      1  C   UNL     1      44.403   4.928  11.443  0.00  0.00    +0.000 C 
ENDROOT
BRANCH   1   2
ATOM      2  C   UNL     1      45.020   6.291  11.690  0.00  0.00    +0.000 A 
ATOM      3  C   UNL     1      44.341   7.465  11.354  0.00  0.00    +0.000 A 
ATOM      4  C   UNL     1      44.923   8.705  11.610  0.00  0.00    +0.000 A 
ATOM      5  C   UNL     1      46.182   8.781  12.214  0.00  0.00    +0.000 A 
ATOM      6  C   UNL     1      46.891   7.625  12.584  0.00  0.00    +0.000 A 
ATOM      7  C   UNL     1      46.293   6.387  12.286  0.00  0.00    +0.000 A 
BRANCH   6   8
ATOM      8  C   UNL     1      48.189   7.701  13.297  0.00  0.00    +0.000 A 
ATOM      9  C   UNL     1      49.245   8.509  12.832  0.00  0.00    +0.000 A 
ATOM     10  C   UNL     1      50.485   8.546  13.483  0.00  0.00    +0.000 A 
ATOM     11  C   UNL     1      50.691   7.781  14.626  0.00  0.00    +0.000 A 
ATOM     12  C   UNL     1      49.660   6.987  15.103  0.00  0.00    +0.000 A 
ATOM     13  F   UNL     1      49.852   6.244  16.202  0.00  0.00    +0.000 F 
ATOM     14  C   UNL     1      48.428   6.937  14.453  0.00  0.00    +0.000 A 
ENDBRANCH   6   8
ENDBRANCH   1   2
BRANCH   1  15
ATOM     15  N   UNL     1      44.023   4.845  10.038  0.00  0.00    +0.000 N 
ATOM     16  H   UNL     1      43.899   5.767   9.632  0.00  0.00    +0.000 HD
BRANCH  15  20
ATOM     17  C   UNL     1      46.424   2.381   7.794  0.00  0.00    +0.000 A 
ATOM     18  C   UNL     1      46.444   3.753   7.598  0.00  0.00    +0.000 A 
ATOM     19  N   UNL     1      45.656   4.609   8.308  0.00  0.00    +0.000 NA
ATOM     20  C   UNL     1      44.836   4.052   9.223  0.00  0.00    +0.000 A 
ATOM     21  C   UNL     1      44.836   2.660   9.408  0.00  0.00    +0.000 A 
ATOM     22  N   UNL     1      45.609   1.789   8.709  0.00  0.00    +0.000 NA
BRANCH  17  24
ATOM     23  N   UNL     1      48.363   2.123   6.366  0.00  0.00    +0.000 N 
ATOM     24  C   UNL     1      47.320   1.500   6.998  0.00  0.00    +0.000 C 
ATOM     25  O   UNL     1      47.140   0.291   6.911  0.00  0.00    +0.000 OA
ATOM     26  H   UNL     1      48.998   1.581   5.802  0.00  0.00    +0.000 HD
ATOM     27  H   UNL     1      48.485   3.125   6.458  0.00  0.00    +0.000 HD
ENDBRANCH  17  24
ENDBRANCH  15  20
ENDBRANCH   1  15
TORSDOF 5
ENDMDL
MODEL 7
REMARK VINA RESULT:    -7.570      4.247      7.301
REMARK INTER + INTRA:         -10.525
REMARK INTER:                  -9.751
REMARK INTRA:                  -0.774
REMARK UNBOUND:                -0.742
REMARK  Name = 
REMARK  5 active torsions:
REMARK  status: ('A' for Active; 'I' for Inactive)
REMARK    1  A    between atoms: C_2  and  C_4
REMARK    2  A    between atoms: C_7  and  N_8
REMARK    3  A    between atoms: N_8  and  C_9
REMARK    4  A    between atoms: C_9  and  C_10
REMARK    5  A    between atoms: C_14  and  C_15
REMARK                            x       y       z     vdW  Elec       q    Type
REMARK                         _______ _______ _______ _____ _____    ______ ____
ROOT
ATOM      1  C   UNL     1      44.436   6.632  11.584  0.00  0.00    +0.000 C 
ENDROOT
BRANCH   1   2
ATOM      2  C   UNL     1      44.292   5.168  11.216  0.00  0.00    +0.000 A 
ATOM      3  C   UNL     1      43.412   4.331  11.907  0.00  0.00    +0.000 A 
ATOM      4  C   UNL     1      43.284   2.994  11.535  0.00  0.00    +0.000 A 
ATOM      5  C   UNL     1      44.025   2.487  10.463  0.00  0.00    +0.000 A 
ATOM      6  C   UNL     1      44.907   3.299   9.730  0.00  0.00    +0.000 A 
ATOM      7  C   UNL     1      45.039   4.636  10.147  0.00  0.00    +0.000 A 
BRANCH   6   8
ATOM      8  C   UNL     1      45.633   2.788   8.543  0.00  0.00    +0.000 A 
ATOM      9  C   UNL     1      46.127   1.470   8.485  0.00  0.00    +0.000 A 
ATOM     10  C   UNL     1      46.851   1.002   7.381  0.00  0.00    +0.000 A 
ATOM     11  C   UNL     1      47.086   1.844   6.298  0.00  0.00    +0.000 A 
ATOM     12  C   UNL     1      46.599   3.142   6.334  0.00  0.00    +0.000 A 
ATOM     13  F   UNL     1      46.825   3.960   5.297  0.00  0.00    +0.000 F 
ATOM     14  C   UNL     1      45.889   3.616   7.435  0.00  0.00    +0.000 A 
ENDBRANCH   6   8
ENDBRANCH   1   2
BRANCH   1  15
ATOM     15  N   UNL     1      45.788   7.060  11.239  0.00  0.00    +0.000 N 
ATOM     16  H   UNL     1      45.777   7.904  10.675  0.00  0.00    +0.000 HD
BRANCH  15  20
ATOM     17  C   UNL     1      48.434   7.232  14.375  0.00  0.00    +0.000 A 
ATOM     18  C   UNL     1      47.521   8.254  14.167  0.00  0.00    +0.000 A 
ATOM     19  N   UNL     1      46.632   8.247  13.134  0.00  0.00    +0.000 NA
ATOM     20  C   UNL     1      46.686   7.187  12.301  0.00  0.00    +0.000 A 
ATOM     21  C   UNL     1      47.616   6.161  12.534  0.00  0.00    +0.000 A 
ATOM     22  N   UNL     1      48.513   6.150  13.554  0.00  0.00    +0.000 NA
BRANCH  17  24
ATOM     23  N   UNL     1      49.402   8.476  16.214  0.00  0.00    +0.000 N 
ATOM     24  C   UNL     1      49.367   7.289  15.532  0.00  0.00    +0.000 C 
ATOM     25  O   UNL     1      50.064   6.336  15.858  0.00  0.00    +0.000 OA
ATOM     26  H   UNL     1      50.023   8.580  17.000  0.00  0.00    +0.000 HD
ATOM     27  H   UNL     1      48.814   9.247  15.919  0.00  0.00    +0.000 HD
ENDBRANCH  17  24
ENDBRANCH  15  20
ENDBRANCH   1  15
TORSDOF 5
ENDMDL
MODEL 8
REMARK VINA RESULT:    -7.194      4.294      7.196
REMARK INTER + INTRA:         -10.039
REMARK INTER:                  -9.180
REMARK INTRA:                  -0.859
REMARK UNBOUND:                -0.742
REMARK  Name = 
REMARK  5 active torsions:
REMARK  status: ('A' for Active; 'I' for Inactive)
REMARK    1  A    between atoms: C_2  and  C_4
REMARK    2  A    between atoms: C_7  and  N_8
REMARK    3  A    between atoms: N_8  and  C_9
REMARK    4  A    between atoms: C_9  and  C_10
REMARK    5  A    between atoms: C_14  and  C_15
REMARK                            x       y       z     vdW  Elec       q    Type
REMARK                         _______ _______ _______ _____ _____    ______ ____
ROOT
ATOM      1  C   UNL     1      45.696   4.202  13.370  0.00  0.00    +0.000 C 
ENDROOT
BRANCH   1   2
ATOM      2  C   UNL     1      45.039   4.208  12.003  0.00  0.00    +0.000 A 
ATOM      3  C   UNL     1      43.842   4.893  11.778  0.00  0.00    +0.000 A 
ATOM      4  C   UNL     1      43.271   4.899  10.507  0.00  0.00    +0.000 A 
ATOM      5  C   UNL     1      43.897   4.232   9.449  0.00  0.00    +0.000 A 
ATOM      6  C   UNL     1      45.111   3.547   9.629  0.00  0.00    +0.000 A 
ATOM      7  C   UNL     1      45.649   3.532  10.929  0.00  0.00    +0.000 A 
BRANCH   6   8
ATOM      8  C   UNL     1      45.820   2.907   8.495  0.00  0.00    +0.000 A 
ATOM      9  C   UNL     1      46.252   3.647   7.377  0.00  0.00    +0.000 A 
ATOM     10  C   UNL     1      46.882   3.033   6.287  0.00  0.00    +0.000 A 
ATOM     11  C   UNL     1      47.108   1.660   6.299  0.00  0.00    +0.000 A 
ATOM     12  C   UNL     1      46.698   0.918   7.395  0.00  0.00    +0.000 A 
ATOM     13  F   UNL     1      46.908  -0.405   7.412  0.00  0.00    +0.000 F 
ATOM     14  C   UNL     1      46.059   1.521   8.477  0.00  0.00    +0.000 A 
ENDBRANCH   6   8
ENDBRANCH   1   2
BRANCH   1  15
ATOM     15  N   UNL     1      45.780   5.579  13.843  0.00  0.00    +0.000 N 
ATOM     16  H   UNL     1      45.755   5.626  14.858  0.00  0.00    +0.000 HD
BRANCH  15  20
ATOM     17  C   UNL     1      48.762   7.891  12.222  0.00  0.00    +0.000 A 
ATOM     18  C   UNL     1      49.067   6.709  12.879  0.00  0.00    +0.000 A 
ATOM     19  N   UNL     1      48.113   5.916  13.444  0.00  0.00    +0.000 NA
ATOM     20  C   UNL     1      46.837   6.343  13.340  0.00  0.00    +0.000 A 
ATOM     21  C   UNL     1      46.553   7.541  12.667  0.00  0.00    +0.000 A 
ATOM     22  N   UNL     1      47.487   8.348  12.100  0.00  0.00    +0.000 NA
BRANCH  17  24
ATOM     23  N   UNL     1      49.740  10.061  11.772  0.00  0.00    +0.000 N 
ATOM     24  C   UNL     1      49.847   8.705  11.611  0.00  0.00    +0.000 C 
ATOM     25  O   UNL     1      50.780   8.199  11.000  0.00  0.00    +0.000 OA
ATOM     26  H   UNL     1      50.439  10.667  11.371  0.00  0.00    +0.000 HD
ATOM     27  H   UNL     1      48.955  10.450  12.282  0.00  0.00    +0.000 HD
ENDBRANCH  17  24
ENDBRANCH  15  20
ENDBRANCH   1  15
TORSDOF 5
ENDMDL
MODEL 9
REMARK VINA RESULT:    -6.988      4.880      7.605
REMARK INTER + INTRA:          -9.773
REMARK INTER:                  -9.587
REMARK INTRA:                  -0.186
REMARK UNBOUND:                -0.742
REMARK  Name = 
REMARK  5 active torsions:
REMARK  status: ('A' for Active; 'I' for Inactive)
REMARK    1  A    between atoms: C_2  and  C_4
REMARK    2  A    between atoms: C_7  and  N_8
REMARK    3  A    between atoms: N_8  and  C_9
REMARK    4  A    between atoms: C_9  and  C_10
REMARK    5  A    between atoms: C_14  and  C_15
REMARK                            x       y       z     vdW  Elec       q    Type
REMARK                         _______ _______ _______ _____ _____    ______ ____
ROOT
ATOM      1  C   UNL     1      48.852   7.452  13.090  0.00  0.00    +0.000 C 
ENDROOT
BRANCH   1   2
ATOM      2  C   UNL     1      47.446   7.436  12.522  0.00  0.00    +0.000 A 
ATOM      3  C   UNL     1      46.596   8.536  12.663  0.00  0.00    +0.000 A 
ATOM      4  C   UNL     1      45.316   8.502  12.115  0.00  0.00    +0.000 A 
ATOM      5  C   UNL     1      44.879   7.375  11.411  0.00  0.00    +0.000 A 
ATOM      6  C   UNL     1      45.710   6.255  11.230  0.00  0.00    +0.000 A 
ATOM      7  C   UNL     1      46.986   6.304  11.821  0.00  0.00    +0.000 A 
BRANCH   6   8
ATOM      8  C   UNL     1      45.283   5.091  10.417  0.00  0.00    +0.000 A 
ATOM      9  C   UNL     1      44.513   4.045  10.964  0.00  0.00    +0.000 A 
ATOM     10  C   UNL     1      44.148   2.925  10.206  0.00  0.00    +0.000 A 
ATOM     11  C   UNL     1      44.536   2.833   8.873  0.00  0.00    +0.000 A 
ATOM     12  C   UNL     1      45.286   3.858   8.316  0.00  0.00    +0.000 A 
ATOM     13  F   UNL     1      45.667   3.775   7.034  0.00  0.00    +0.000 F 
ATOM     14  C   UNL     1      45.662   4.968   9.068  0.00  0.00    +0.000 A 
ENDBRANCH   6   8
ENDBRANCH   1   2
BRANCH   1  15
ATOM     15  N   UNL     1      48.764   7.701  14.524  0.00  0.00    +0.000 N 
ATOM     16  H   UNL     1      48.171   8.500  14.726  0.00  0.00    +0.000 HD
BRANCH  15  20
ATOM     17  C   UNL     1      47.879   4.537  16.988  0.00  0.00    +0.000 A 
ATOM     18  C   UNL     1      47.574   4.484  15.637  0.00  0.00    +0.000 A 
ATOM     19  N   UNL     1      47.836   5.513  14.783  0.00  0.00    +0.000 NA
ATOM     20  C   UNL     1      48.410   6.609  15.321  0.00  0.00    +0.000 A 
ATOM     21  C   UNL     1      48.715   6.639  16.692  0.00  0.00    +0.000 A 
ATOM     22  N   UNL     1      48.458   5.626  17.560  0.00  0.00    +0.000 NA
BRANCH  17  24
ATOM     23  N   UNL     1      48.394   3.227  18.959  0.00  0.00    +0.000 N 
ATOM     24  C   UNL     1      47.583   3.373  17.865  0.00  0.00    +0.000 C 
ATOM     25  O   UNL     1      46.671   2.590  17.628  0.00  0.00    +0.000 OA
ATOM     26  H   UNL     1      48.250   2.451  19.585  0.00  0.00    +0.000 HD
ATOM     27  H   UNL     1      49.141   3.891  19.128  0.00  0.00    +0.000 HD
ENDBRANCH  17  24
ENDBRANCH  15  20
ENDBRANCH   1  15
TORSDOF 5
ENDMDL
