MODEL 1
REMARK VINA RESULT:    -9.556      0.000      0.000
REMARK INTER + INTRA:         -13.796
REMARK INTER:                 -12.908
REMARK INTRA:                  -0.889
REMARK UNBOUND:                -0.889
REMARK  Name = 
REMARK  6 active torsions:
REMARK  status: ('A' for Active; 'I' for Inactive)
REMARK    1  A    between atoms: C_2  and  C_4
REMARK    2  A    between atoms: N_8  and  C_9
REMARK    3  A    between atoms: C_9  and  C_10
REMARK    4  A    between atoms: C_10  and  C_13
REMARK    5  A    between atoms: C_17  and  N_18
REMARK    6  A    between atoms: N_18  and  C_19
REMARK                            x       y       z     vdW  Elec       q    Type
REMARK                         _______ _______ _______ _____ _____    ______ ____
ROOT
ATOM      1  C   UNL     1      43.499   5.580  12.172  0.00  0.00    +0.000 C 
ATOM      2  F   UNL     1      43.115   6.739  11.552  0.00  0.00    +0.000 F 
ATOM      3  F   UNL     1      42.635   5.435  13.222  0.00  0.00    +0.000 F 
ENDROOT
BRANCH   1   4
ATOM      4  C   UNL     1      44.940   5.644  12.644  0.00  0.00    +0.000 A 
ATOM      5  C   UNL     1      45.842   6.560  12.089  0.00  0.00    +0.000 A 
ATOM      6  C   UNL     1      47.165   6.599  12.531  0.00  0.00    +0.000 A 
ATOM      7  C   UNL     1      47.605   5.719  13.524  0.00  0.00    +0.000 A 
ATOM      8  C   UNL     1      46.723   4.802  14.097  0.00  0.00    +0.000 A 
ATOM      9  C   UNL     1      45.394   4.776  13.652  0.00  0.00    +0.000 A 
BRANCH   8  10
ATOM     10  N   UNL     1      47.103   3.902  15.116  0.00  0.00    +0.000 N 
ATOM     11  H   UNL     1      46.692   2.989  14.920  0.00  0.00    +0.000 HD
BRANCH  10  12
ATOM     12  C   UNL     1      47.135   4.190  16.521  0.00  0.00    +0.000 C 
ATOM     13  C   UNL     1      48.488   4.787  16.967  0.00  0.00    +0.000 C 
ATOM     14  C   UNL     1      48.539   3.745  18.096  0.00  0.00    +0.000 C 
ATOM     15  C   UNL     1      47.479   2.927  17.343  0.00  0.00    +0.000 C 
ENDBRANCH  10  12
ENDBRANCH   8  10
ENDBRANCH   1   4
BRANCH   1  16
ATOM     16  C   UNL     1      43.280   4.408  11.177  0.00  0.00    +0.000 C 
BRANCH  16  21
ATOM     17  C   UNL     1      46.492   2.501   7.679  0.00  0.00    +0.000 A 
ATOM     18  C   UNL     1      45.646   1.829   8.554  0.00  0.00    +0.000 A 
ATOM     19  C   UNL     1      44.723   2.562   9.305  0.00  0.00    +0.000 A 
ATOM     20  C   UNL     1      44.675   3.945   9.183  0.00  0.00    +0.000 A 
ATOM     21  N   UNL     1      43.735   4.730   9.816  0.00  0.00    +0.000 N 
ATOM     22  N   UNL     1      45.511   4.608   8.360  0.00  0.00    +0.000 NA
ATOM     23  C   UNL     1      46.402   3.883   7.632  0.00  0.00    +0.000 A 
ATOM     24  H   UNL     1      43.978   5.709   9.661  0.00  0.00    +0.000 HD
BRANCH  17  26
ATOM     25  N   UNL     1      48.573   2.517   6.425  0.00  0.00    +0.000 N 
ATOM     26  C   UNL     1      47.467   1.810   6.811  0.00  0.00    +0.000 C 
ATOM     27  O   UNL     1      47.317   0.641   6.483  0.00  0.00    +0.000 OA
ATOM     28  H   UNL     1      49.288   1.994   5.936  0.00  0.00    +0.000 HD
ATOM     29  H   UNL     1      48.858   3.369   6.887  0.00  0.00    +0.000 HD
ENDBRANCH  17  26
ENDBRANCH  16  21
ENDBRANCH   1  16
TORSDOF 6
ENDMDL
MODEL 2
REMARK VINA RESULT:    -8.952      1.814      3.604
REMARK INTER + INTRA:         -12.981
REMARK INTER:                 -12.006
REMARK INTRA:                  -0.975
REMARK UNBOUND:                -0.889
REMARK  Name = 
REMARK  6 active torsions:
REMARK  status: ('A' for Active; 'I' for Inactive)
REMARK    1  A    between atoms: C_2  and  C_4
REMARK    2  A    between atoms: N_8  and  C_9
REMARK    3  A    between atoms: C_9  and  C_10
REMARK    4  A    between atoms: C_10  and  C_13
REMARK    5  A    between atoms: C_17  and  N_18
REMARK    6  A    between atoms: N_18  and  C_19
REMARK                            x       y       z     vdW  Elec       q    Type
REMARK                         _______ _______ _______ _____ _____    ______ ____
ROOT
ATOM      1  C   UNL     1      43.520   5.605  12.147  0.00  0.00    +0.000 C 
ATOM      2  F   UNL     1      43.132   6.758  11.519  0.00  0.00    +0.000 F 
ATOM      3  F   UNL     1      42.680   5.485  13.220  0.00  0.00    +0.000 F 
ENDROOT
BRANCH   1   4
ATOM      4  C   UNL     1      44.972   5.661  12.582  0.00  0.00    +0.000 A 
ATOM      5  C   UNL     1      45.465   4.794  13.565  0.00  0.00    +0.000 A 
ATOM      6  C   UNL     1      46.803   4.865  13.958  0.00  0.00    +0.000 A 
ATOM      7  C   UNL     1      47.659   5.807  13.381  0.00  0.00    +0.000 A 
ATOM      8  C   UNL     1      47.193   6.677  12.395  0.00  0.00    +0.000 A 
ATOM      9  C   UNL     1      45.851   6.592  12.001  0.00  0.00    +0.000 A 
BRANCH   8  10
ATOM     10  N   UNL     1      48.015   7.636  11.763  0.00  0.00    +0.000 N 
ATOM     11  H   UNL     1      48.812   7.159  11.340  0.00  0.00    +0.000 HD
BRANCH  10  12
ATOM     12  C   UNL     1      48.373   8.918  12.298  0.00  0.00    +0.000 C 
ATOM     13  C   UNL     1      47.331  10.008  11.959  0.00  0.00    +0.000 C 
ATOM     14  C   UNL     1      48.477  10.901  11.458  0.00  0.00    +0.000 C 
ATOM     15  C   UNL     1      49.368   9.652  11.371  0.00  0.00    +0.000 C 
ENDBRANCH  10  12
ENDBRANCH   8  10
ENDBRANCH   1   4
BRANCH   1  16
ATOM     16  C   UNL     1      43.264   4.421  11.176  0.00  0.00    +0.000 C 
BRANCH  16  21
ATOM     17  C   UNL     1      46.478   2.498   7.689  0.00  0.00    +0.000 A 
ATOM     18  C   UNL     1      45.662   1.829   8.595  0.00  0.00    +0.000 A 
ATOM     19  C   UNL     1      44.730   2.560   9.338  0.00  0.00    +0.000 A 
ATOM     20  C   UNL     1      44.644   3.936   9.177  0.00  0.00    +0.000 A 
ATOM     21  N   UNL     1      43.693   4.715   9.801  0.00  0.00    +0.000 N 
ATOM     22  N   UNL     1      45.453   4.597   8.324  0.00  0.00    +0.000 NA
ATOM     23  C   UNL     1      46.352   3.874   7.604  0.00  0.00    +0.000 A 
ATOM     24  H   UNL     1      43.908   5.695   9.615  0.00  0.00    +0.000 HD
BRANCH  17  26
ATOM     25  N   UNL     1      48.555   2.523   6.428  0.00  0.00    +0.000 N 
ATOM     26  C   UNL     1      47.459   1.807   6.828  0.00  0.00    +0.000 C 
ATOM     27  O   UNL     1      47.324   0.632   6.517  0.00  0.00    +0.000 OA
ATOM     28  H   UNL     1      49.275   2.002   5.944  0.00  0.00    +0.000 HD
ATOM     29  H   UNL     1      48.831   3.385   6.877  0.00  0.00    +0.000 HD
ENDBRANCH  17  26
ENDBRANCH  16  21
ENDBRANCH   1  16
TORSDOF 6
ENDMDL
MODEL 3
REMARK VINA RESULT:    -8.582      2.903      4.652
REMARK INTER + INTRA:         -12.481
REMARK INTER:                 -11.423
REMARK INTRA:                  -1.058
REMARK UNBOUND:                -0.889
REMARK  Name = 
REMARK  6 active torsions:
REMARK  status: ('A' for Active; 'I' for Inactive)
REMARK    1  A    between atoms: C_2  and  C_4
REMARK    2  A    between atoms: N_8  and  C_9
REMARK    3  A    between atoms: C_9  and  C_10
REMARK    4  A    between atoms: C_10  and  C_13
REMARK    5  A    between atoms: C_17  and  N_18
REMARK    6  A    between atoms: N_18  and  C_19
REMARK                            x       y       z     vdW  Elec       q    Type
REMARK                         _______ _______ _______ _____ _____    ______ ____
ROOT
ATOM      1  C   UNL     1      44.431   4.698  12.287  0.00  0.00    +0.000 C 
ATOM      2  F   UNL     1      43.732   4.591  13.460  0.00  0.00    +0.000 F 
ATOM      3  F   UNL     1      45.269   3.618  12.273  0.00  0.00    +0.000 F 
ENDROOT
BRANCH   1   4
ATOM      4  C   UNL     1      45.204   6.001  12.208  0.00  0.00    +0.000 A 
ATOM      5  C   UNL     1      46.571   6.012  11.905  0.00  0.00    +0.000 A 
ATOM      6  C   UNL     1      47.268   7.220  11.844  0.00  0.00    +0.000 A 
ATOM      7  C   UNL     1      46.610   8.428  12.092  0.00  0.00    +0.000 A 
ATOM      8  C   UNL     1      45.247   8.443  12.389  0.00  0.00    +0.000 A 
ATOM      9  C   UNL     1      44.554   7.226  12.440  0.00  0.00    +0.000 A 
BRANCH   8  10
ATOM     10  N   UNL     1      44.525   9.632  12.630  0.00  0.00    +0.000 N 
ATOM     11  H   UNL     1      43.773   9.434  13.291  0.00  0.00    +0.000 HD
BRANCH  10  12
ATOM     12  C   UNL     1      44.133  10.592  11.638  0.00  0.00    +0.000 C 
ATOM     13  C   UNL     1      42.610  10.851  11.641  0.00  0.00    +0.000 C 
ATOM     14  C   UNL     1      42.600  10.618  10.121  0.00  0.00    +0.000 C 
ATOM     15  C   UNL     1      43.966   9.927  10.252  0.00  0.00    +0.000 C 
ENDBRANCH  10  12
ENDBRANCH   8  10
ENDBRANCH   1   4
BRANCH   1  16
ATOM     16  C   UNL     1      43.422   4.565  11.114  0.00  0.00    +0.000 C 
BRANCH  16  21
ATOM     17  C   UNL     1      46.616   2.825   7.514  0.00  0.00    +0.000 A 
ATOM     18  C   UNL     1      45.659   2.134   8.248  0.00  0.00    +0.000 A 
ATOM     19  C   UNL     1      44.775   2.851   9.058  0.00  0.00    +0.000 A 
ATOM     20  C   UNL     1      44.873   4.234   9.133  0.00  0.00    +0.000 A 
ATOM     21  N   UNL     1      43.983   5.021   9.833  0.00  0.00    +0.000 N 
ATOM     22  N   UNL     1      45.817   4.911   8.449  0.00  0.00    +0.000 NA
ATOM     23  C   UNL     1      46.669   4.202   7.661  0.00  0.00    +0.000 A 
ATOM     24  H   UNL     1      44.332   5.980   9.830  0.00  0.00    +0.000 HD
BRANCH  17  26
ATOM     25  N   UNL     1      47.936   2.847   5.473  0.00  0.00    +0.000 N 
ATOM     26  C   UNL     1      47.564   2.159   6.596  0.00  0.00    +0.000 C 
ATOM     27  O   UNL     1      48.031   1.057   6.846  0.00  0.00    +0.000 OA
ATOM     28  H   UNL     1      48.676   2.433   4.921  0.00  0.00    +0.000 HD
ATOM     29  H   UNL     1      47.788   3.842   5.375  0.00  0.00    +0.000 HD
ENDBRANCH  17  26
ENDBRANCH  16  21
ENDBRANCH   1  16
TORSDOF 6
ENDMDL
MODEL 4
REMARK VINA RESULT:    -8.185      2.549      3.205
REMARK INTER + INTRA:         -11.944
REMARK INTER:                 -11.566
REMARK INTRA:                  -0.378
REMARK UNBOUND:                -0.889
REMARK  Name = 
REMARK  6 active torsions:
REMARK  status: ('A' for Active; 'I' for Inactive)
REMARK    1  A    between atoms: C_2  and  C_4
REMARK    2  A    between atoms: N_8  and  C_9
REMARK    3  A    between atoms: C_9  and  C_10
REMARK    4  A    between atoms: C_10  and  C_13
REMARK    5  A    between atoms: C_17  and  N_18
REMARK    6  A    between atoms: N_18  and  C_19
REMARK                            x       y       z     vdW  Elec       q    Type
REMARK                         _______ _______ _______ _____ _____    ______ ____
ROOT
ATOM      1  C   UNL     1      44.231   4.717  12.248  0.00  0.00    +0.000 C 
ATOM      2  F   UNL     1      43.653   4.391  13.445  0.00  0.00    +0.000 F 
ATOM      3  F   UNL     1      45.295   3.868  12.123  0.00  0.00    +0.000 F 
ENDROOT
BRANCH   1   4
ATOM      4  C   UNL     1      44.672   6.169  12.211  0.00  0.00    +0.000 A 
ATOM      5  C   UNL     1      44.007   7.106  11.411  0.00  0.00    +0.000 A 
ATOM      6  C   UNL     1      44.432   8.435  11.385  0.00  0.00    +0.000 A 
ATOM      7  C   UNL     1      45.529   8.842  12.150  0.00  0.00    +0.000 A 
ATOM      8  C   UNL     1      46.203   7.928  12.960  0.00  0.00    +0.000 A 
ATOM      9  C   UNL     1      45.764   6.597  12.986  0.00  0.00    +0.000 A 
BRANCH   8  10
ATOM     10  N   UNL     1      47.305   8.282  13.769  0.00  0.00    +0.000 N 
ATOM     11  H   UNL     1      46.993   8.947  14.478  0.00  0.00    +0.000 HD
BRANCH  10  12
ATOM     12  C   UNL     1      48.630   8.572  13.302  0.00  0.00    +0.000 C 
ATOM     13  C   UNL     1      48.745   8.476  11.764  0.00  0.00    +0.000 C 
ATOM     14  C   UNL     1      49.977   7.575  11.945  0.00  0.00    +0.000 C 
ATOM     15  C   UNL     1      49.541   7.327  13.396  0.00  0.00    +0.000 C 
ENDBRANCH  10  12
ENDBRANCH   8  10
ENDBRANCH   1   4
BRANCH   1  16
ATOM     16  C   UNL     1      43.208   4.407  11.121  0.00  0.00    +0.000 C 
BRANCH  16  21
ATOM     17  C   UNL     1      46.512   2.520   7.699  0.00  0.00    +0.000 A 
ATOM     18  C   UNL     1      45.623   1.844   8.527  0.00  0.00    +0.000 A 
ATOM     19  C   UNL     1      44.687   2.577   9.261  0.00  0.00    +0.000 A 
ATOM     20  C   UNL     1      44.667   3.963   9.169  0.00  0.00    +0.000 A 
ATOM     21  N   UNL     1      43.719   4.751   9.786  0.00  0.00    +0.000 N 
ATOM     22  N   UNL     1      45.545   4.629   8.393  0.00  0.00    +0.000 NA
ATOM     23  C   UNL     1      46.449   3.904   7.680  0.00  0.00    +0.000 A 
ATOM     24  H   UNL     1      43.984   5.729   9.662  0.00  0.00    +0.000 HD
BRANCH  17  26
ATOM     25  N   UNL     1      48.587   2.559   6.434  0.00  0.00    +0.000 N 
ATOM     26  C   UNL     1      47.506   1.830   6.851  0.00  0.00    +0.000 C 
ATOM     27  O   UNL     1      47.394   0.646   6.566  0.00  0.00    +0.000 OA
ATOM     28  H   UNL     1      49.317   2.042   5.961  0.00  0.00    +0.000 HD
ATOM     29  H   UNL     1      48.845   3.436   6.863  0.00  0.00    +0.000 HD
ENDBRANCH  17  26
ENDBRANCH  16  21
ENDBRANCH   1  16
TORSDOF 6
ENDMDL
MODEL 5
REMARK VINA RESULT:    -7.796      3.030      7.954
REMARK INTER + INTRA:         -11.419
REMARK INTER:                 -10.642
REMARK INTRA:                  -0.777
REMARK UNBOUND:                -0.889
REMARK  Name = 
REMARK  6 active torsions:
REMARK  status: ('A' for Active; 'I' for Inactive)
REMARK    1  A    between atoms: C_2  and  C_4
REMARK    2  A    between atoms: N_8  and  C_9
REMARK    3  A    between atoms: C_9  and  C_10
REMARK    4  A    between atoms: C_10  and  C_13
REMARK    5  A    between atoms: C_17  and  N_18
REMARK    6  A    between atoms: N_18  and  C_19
REMARK                            x       y       z     vdW  Elec       q    Type
REMARK                         _______ _______ _______ _____ _____    ______ ____
ROOT
ATOM      1  C   UNL     1      45.629   6.312  11.597  0.00  0.00    +0.000 C 
ATOM      2  F   UNL     1      44.805   7.372  11.330  0.00  0.00    +0.000 F 
ATOM      3  F   UNL     1      46.848   6.672  11.091  0.00  0.00    +0.000 F 
ENDROOT
BRANCH   1   4
ATOM      4  C   UNL     1      45.122   5.030  10.963  0.00  0.00    +0.000 A 
ATOM      5  C   UNL     1      44.318   4.138  11.682  0.00  0.00    +0.000 A 
ATOM      6  C   UNL     1      43.867   2.959  11.085  0.00  0.00    +0.000 A 
ATOM      7  C   UNL     1      44.221   2.655   9.767  0.00  0.00    +0.000 A 
ATOM      8  C   UNL     1      45.016   3.532   9.028  0.00  0.00    +0.000 A 
ATOM      9  C   UNL     1      45.457   4.716   9.634  0.00  0.00    +0.000 A 
BRANCH   8  10
ATOM     10  N   UNL     1      45.391   3.288   7.689  0.00  0.00    +0.000 N 
ATOM     11  H   UNL     1      44.877   2.477   7.345  0.00  0.00    +0.000 HD
BRANCH  10  12
ATOM     12  C   UNL     1      46.727   3.344   7.168  0.00  0.00    +0.000 C 
ATOM     13  C   UNL     1      46.757   3.300   5.624  0.00  0.00    +0.000 C 
ATOM     14  C   UNL     1      47.801   2.175   5.708  0.00  0.00    +0.000 C 
ATOM     15  C   UNL     1      47.386   1.946   7.169  0.00  0.00    +0.000 C 
ENDBRANCH  10  12
ENDBRANCH   8  10
ENDBRANCH   1   4
BRANCH   1  16
ATOM     16  C   UNL     1      45.749   6.173  13.139  0.00  0.00    +0.000 C 
BRANCH  16  21
ATOM     17  C   UNL     1      48.552   4.268  16.973  0.00  0.00    +0.000 A 
ATOM     18  C   UNL     1      47.525   3.668  16.253  0.00  0.00    +0.000 A 
ATOM     19  C   UNL     1      47.015   4.317  15.126  0.00  0.00    +0.000 A 
ATOM     20  C   UNL     1      47.525   5.554  14.751  0.00  0.00    +0.000 A 
ATOM     21  N   UNL     1      47.143   6.216  13.603  0.00  0.00    +0.000 N 
ATOM     22  N   UNL     1      48.499   6.158  15.461  0.00  0.00    +0.000 NA
ATOM     23  C   UNL     1      48.989   5.513  16.553  0.00  0.00    +0.000 A 
ATOM     24  H   UNL     1      47.569   7.143  13.611  0.00  0.00    +0.000 HD
BRANCH  17  26
ATOM     25  N   UNL     1      48.361   3.255  19.174  0.00  0.00    +0.000 N 
ATOM     26  C   UNL     1      49.185   3.638  18.150  0.00  0.00    +0.000 C 
ATOM     27  O   UNL     1      50.389   3.427  18.194  0.00  0.00    +0.000 OA
ATOM     28  H   UNL     1      48.792   2.716  19.914  0.00  0.00    +0.000 HD
ATOM     29  H   UNL     1      47.361   3.167  19.059  0.00  0.00    +0.000 HD
ENDBRANCH  17  26
ENDBRANCH  16  21
ENDBRANCH   1  16
TORSDOF 6
ENDMDL
MODEL 6
REMARK VINA RESULT:    -6.895      3.535      8.118
REMARK INTER + INTRA:         -10.202
REMARK INTER:                  -9.507
REMARK INTRA:                  -0.695
REMARK UNBOUND:                -0.889
REMARK  Name = 
REMARK  6 active torsions:
REMARK  status: ('A' for Active; 'I' for Inactive)
REMARK    1  A    between atoms: C_2  and  C_4
REMARK    2  A    between atoms: N_8  and  C_9
REMARK    3  A    between atoms: C_9  and  C_10
REMARK    4  A    between atoms: C_10  and  C_13
REMARK    5  A    between atoms: C_17  and  N_18
REMARK    6  A    between atoms: N_18  and  C_19
REMARK                            x       y       z     vdW  Elec       q    Type
REMARK                         _______ _______ _______ _____ _____    ______ ____
ROOT
ATOM      1  C   UNL     1      46.924   7.160  12.072  0.00  0.00    +0.000 C 
ATOM      2  F   UNL     1      46.245   8.265  11.634  0.00  0.00    +0.000 F 
ATOM      3  F   UNL     1      48.101   7.167  11.376  0.00  0.00    +0.000 F 
ENDROOT
BRANCH   1   4
ATOM      4  C   UNL     1      46.142   5.883  11.826  0.00  0.00    +0.000 A 
ATOM      5  C   UNL     1      45.991   4.923  12.833  0.00  0.00    +0.000 A 
ATOM      6  C   UNL     1      45.275   3.751  12.586  0.00  0.00    +0.000 A 
ATOM      7  C   UNL     1      44.707   3.521  11.329  0.00  0.00    +0.000 A 
ATOM      8  C   UNL     1      44.838   4.467  10.312  0.00  0.00    +0.000 A 
ATOM      9  C   UNL     1      45.552   5.644  10.572  0.00  0.00    +0.000 A 
BRANCH   8  10
ATOM     10  N   UNL     1      44.272   4.300   9.029  0.00  0.00    +0.000 N 
ATOM     11  H   UNL     1      43.255   4.279   9.117  0.00  0.00    +0.000 HD
BRANCH  10  12
ATOM     12  C   UNL     1      44.746   3.406   8.012  0.00  0.00    +0.000 C 
ATOM     13  C   UNL     1      45.329   2.102   8.602  0.00  0.00    +0.000 C 
ATOM     14  C   UNL     1      46.583   2.310   7.737  0.00  0.00    +0.000 C 
ATOM     15  C   UNL     1      46.175   3.781   7.560  0.00  0.00    +0.000 C 
ENDBRANCH  10  12
ENDBRANCH   8  10
ENDBRANCH   1   4
BRANCH   1  16
ATOM     16  C   UNL     1      47.233   7.353  13.581  0.00  0.00    +0.000 C 
BRANCH  16  21
ATOM     17  C   UNL     1      49.619   5.110  17.514  0.00  0.00    +0.000 A 
ATOM     18  C   UNL     1      48.358   4.850  16.988  0.00  0.00    +0.000 A 
ATOM     19  C   UNL     1      47.979   5.471  15.794  0.00  0.00    +0.000 A 
ATOM     20  C   UNL     1      48.853   6.346  15.162  0.00  0.00    +0.000 A 
ATOM     21  N   UNL     1      48.594   6.925  13.938  0.00  0.00    +0.000 N 
ATOM     22  N   UNL     1      50.065   6.627  15.681  0.00  0.00    +0.000 NA
ATOM     23  C   UNL     1      50.423   6.014  16.841  0.00  0.00    +0.000 A 
ATOM     24  H   UNL     1      49.327   7.608  13.744  0.00  0.00    +0.000 HD
BRANCH  17  26
ATOM     25  N   UNL     1      49.210   3.831  19.540  0.00  0.00    +0.000 N 
ATOM     26  C   UNL     1      50.125   4.467  18.745  0.00  0.00    +0.000 C 
ATOM     27  O   UNL     1      51.315   4.464  19.023  0.00  0.00    +0.000 OA
ATOM     28  H   UNL     1      49.587   3.293  20.309  0.00  0.00    +0.000 HD
ATOM     29  H   UNL     1      48.287   3.584  19.212  0.00  0.00    +0.000 HD
ENDBRANCH  17  26
ENDBRANCH  16  21
ENDBRANCH   1  16
TORSDOF 6
ENDMDL
MODEL 7
REMARK VINA RESULT:    -6.720      3.727      6.302
REMARK INTER + INTRA:          -9.965
REMARK INTER:                  -9.257
REMARK INTRA:                  -0.709
REMARK UNBOUND:                -0.889
REMARK  Name = 
REMARK  6 active torsions:
REMARK  status: ('A' for Active; 'I' for Inactive)
REMARK    1  A    between atoms: C_2  and  C_4
REMARK    2  A    between atoms: N_8  and  C_9
REMARK    3  A    between atoms: C_9  and  C_10
REMARK    4  A    between atoms: C_10  and  C_13
REMARK    5  A    between atoms: C_17  and  N_18
REMARK    6  A    between atoms: N_18  and  C_19
REMARK                            x       y       z     vdW  Elec       q    Type
REMARK                         _______ _______ _______ _____ _____    ______ ____
ROOT
ATOM      1  C   UNL     1      48.157   2.904  16.891  0.00  0.00    +0.000 C 
ATOM      2  F   UNL     1      47.131   2.401  17.645  0.00  0.00    +0.000 F 
ATOM      3  F   UNL     1      48.649   1.832  16.200  0.00  0.00    +0.000 F 
ENDROOT
BRANCH   1   4
ATOM      4  C   UNL     1      49.227   3.548  17.753  0.00  0.00    +0.000 A 
ATOM      5  C   UNL     1      50.584   3.279  17.539  0.00  0.00    +0.000 A 
ATOM      6  C   UNL     1      51.555   3.874  18.346  0.00  0.00    +0.000 A 
ATOM      7  C   UNL     1      51.181   4.736  19.381  0.00  0.00    +0.000 A 
ATOM      8  C   UNL     1      49.835   5.024  19.610  0.00  0.00    +0.000 A 
ATOM      9  C   UNL     1      48.869   4.429  18.788  0.00  0.00    +0.000 A 
BRANCH   8  10
ATOM     10  N   UNL     1      49.398   5.901  20.626  0.00  0.00    +0.000 N 
ATOM     11  H   UNL     1      48.694   5.426  21.191  0.00  0.00    +0.000 HD
BRANCH  10  12
ATOM     12  C   UNL     1      49.109   7.297  20.464  0.00  0.00    +0.000 C 
ATOM     13  C   UNL     1      47.611   7.560  20.193  0.00  0.00    +0.000 C 
ATOM     14  C   UNL     1      48.013   8.424  18.988  0.00  0.00    +0.000 C 
ATOM     15  C   UNL     1      49.399   7.763  19.018  0.00  0.00    +0.000 C 
ENDBRANCH  10  12
ENDBRANCH   8  10
ENDBRANCH   1   4
BRANCH   1  16
ATOM     16  C   UNL     1      47.557   3.919  15.880  0.00  0.00    +0.000 C 
BRANCH  16  21
ATOM     17  C   UNL     1      44.614   4.723  11.772  0.00  0.00    +0.000 A 
ATOM     18  C   UNL     1      45.213   5.649  12.618  0.00  0.00    +0.000 A 
ATOM     19  C   UNL     1      46.123   5.202  13.580  0.00  0.00    +0.000 A 
ATOM     20  C   UNL     1      46.402   3.846  13.690  0.00  0.00    +0.000 A 
ATOM     21  N   UNL     1      47.354   3.334  14.547  0.00  0.00    +0.000 N 
ATOM     22  N   UNL     1      45.803   2.937  12.895  0.00  0.00    +0.000 NA
ATOM     23  C   UNL     1      44.923   3.386  11.960  0.00  0.00    +0.000 A 
ATOM     24  H   UNL     1      47.290   2.316  14.526  0.00  0.00    +0.000 HD
BRANCH  17  26
ATOM     25  N   UNL     1      43.996   4.721   9.422  0.00  0.00    +0.000 N 
ATOM     26  C   UNL     1      43.676   5.104  10.696  0.00  0.00    +0.000 C 
ATOM     27  O   UNL     1      42.635   5.700  10.935  0.00  0.00    +0.000 OA
ATOM     28  H   UNL     1      43.287   4.880   8.717  0.00  0.00    +0.000 HD
ATOM     29  H   UNL     1      44.689   4.012   9.228  0.00  0.00    +0.000 HD
ENDBRANCH  17  26
ENDBRANCH  16  21
ENDBRANCH   1  16
TORSDOF 6
ENDMDL
MODEL 8
REMARK VINA RESULT:    -6.651      3.532      8.305
REMARK INTER + INTRA:          -9.872
REMARK INTER:                  -9.051
REMARK INTRA:                  -0.820
REMARK UNBOUND:                -0.889
REMARK  Name = 
REMARK  6 active torsions:
REMARK  status: ('A' for Active; 'I' for Inactive)
REMARK    1  A    between atoms: C_2  and  C_4
REMARK    2  A    between atoms: N_8  and  C_9
REMARK    3  A    between atoms: C_9  and  C_10
REMARK    4  A    between atoms: C_10  and  C_13
REMARK    5  A    between atoms: C_17  and  N_18
REMARK    6  A    between atoms: N_18  and  C_19
REMARK                            x       y       z     vdW  Elec       q    Type
REMARK                         _______ _______ _______ _____ _____    ______ ____
ROOT
ATOM      1  C   UNL     1      46.763   4.515  13.549  0.00  0.00    +0.000 C 
ATOM      2  F   UNL     1      47.821   5.312  13.204  0.00  0.00    +0.000 F 
ATOM      3  F   UNL     1      47.213   3.234  13.381  0.00  0.00    +0.000 F 
ENDROOT
BRANCH   1   4
ATOM      4  C   UNL     1      45.544   4.791  12.688  0.00  0.00    +0.000 A 
ATOM      5  C   UNL     1      44.366   5.302  13.246  0.00  0.00    +0.000 A 
ATOM      6  C   UNL     1      43.253   5.544  12.440  0.00  0.00    +0.000 A 
ATOM      7  C   UNL     1      43.300   5.270  11.070  0.00  0.00    +0.000 A 
ATOM      8  C   UNL     1      44.465   4.766  10.489  0.00  0.00    +0.000 A 
ATOM      9  C   UNL     1      45.580   4.536  11.306  0.00  0.00    +0.000 A 
BRANCH   8  10
ATOM     10  N   UNL     1      44.579   4.488   9.110  0.00  0.00    +0.000 N 
ATOM     11  H   UNL     1      43.643   4.402   8.712  0.00  0.00    +0.000 HD
BRANCH  10  12
ATOM     12  C   UNL     1      45.506   3.571   8.513  0.00  0.00    +0.000 C 
ATOM     13  C   UNL     1      46.580   4.290   7.665  0.00  0.00    +0.000 C 
ATOM     14  C   UNL     1      46.269   3.323   6.511  0.00  0.00    +0.000 C 
ATOM     15  C   UNL     1      44.941   2.978   7.202  0.00  0.00    +0.000 C 
ENDBRANCH  10  12
ENDBRANCH   8  10
ENDBRANCH   1   4
BRANCH   1  16
ATOM     16  C   UNL     1      46.458   4.746  15.053  0.00  0.00    +0.000 C 
BRANCH  16  21
ATOM     17  C   UNL     1      50.685   3.486  17.649  0.00  0.00    +0.000 A 
ATOM     18  C   UNL     1      50.090   4.733  17.491  0.00  0.00    +0.000 A 
ATOM     19  C   UNL     1      48.835   4.815  16.881  0.00  0.00    +0.000 A 
ATOM     20  C   UNL     1      48.210   3.660  16.428  0.00  0.00    +0.000 A 
ATOM     21  N   UNL     1      46.935   3.644  15.902  0.00  0.00    +0.000 N 
ATOM     22  N   UNL     1      48.793   2.451  16.549  0.00  0.00    +0.000 NA
ATOM     23  C   UNL     1      50.012   2.384  17.148  0.00  0.00    +0.000 A 
ATOM     24  H   UNL     1      46.749   2.708  15.541  0.00  0.00    +0.000 HD
BRANCH  17  26
ATOM     25  N   UNL     1      52.152   3.888  19.544  0.00  0.00    +0.000 N 
ATOM     26  C   UNL     1      51.986   3.295  18.322  0.00  0.00    +0.000 C 
ATOM     27  O   UNL     1      52.866   2.603  17.830  0.00  0.00    +0.000 OA
ATOM     28  H   UNL     1      52.998   3.647  20.045  0.00  0.00    +0.000 HD
ATOM     29  H   UNL     1      51.374   4.230  20.089  0.00  0.00    +0.000 HD
ENDBRANCH  17  26
ENDBRANCH  16  21
ENDBRANCH   1  16
TORSDOF 6
ENDMDL
MODEL 9
REMARK VINA RESULT:    -6.600      3.550      6.072
REMARK INTER + INTRA:          -9.804
REMARK INTER:                  -8.363
REMARK INTRA:                  -1.441
REMARK UNBOUND:                -0.889
REMARK  Name = 
REMARK  6 active torsions:
REMARK  status: ('A' for Active; 'I' for Inactive)
REMARK    1  A    between atoms: C_2  and  C_4
REMARK    2  A    between atoms: N_8  and  C_9
REMARK    3  A    between atoms: C_9  and  C_10
REMARK    4  A    between atoms: C_10  and  C_13
REMARK    5  A    between atoms: C_17  and  N_18
REMARK    6  A    between atoms: N_18  and  C_19
REMARK                            x       y       z     vdW  Elec       q    Type
REMARK                         _______ _______ _______ _____ _____    ______ ____
ROOT
ATOM      1  C   UNL     1      48.496   4.352  17.141  0.00  0.00    +0.000 C 
ATOM      2  F   UNL     1      48.213   4.444  18.477  0.00  0.00    +0.000 F 
ATOM      3  F   UNL     1      49.060   3.116  16.982  0.00  0.00    +0.000 F 
ENDROOT
BRANCH   1   4
ATOM      4  C   UNL     1      49.436   5.453  16.686  0.00  0.00    +0.000 A 
ATOM      5  C   UNL     1      50.790   5.440  17.044  0.00  0.00    +0.000 A 
ATOM      6  C   UNL     1      51.638   6.465  16.623  0.00  0.00    +0.000 A 
ATOM      7  C   UNL     1      51.144   7.518  15.848  0.00  0.00    +0.000 A 
ATOM      8  C   UNL     1      49.800   7.549  15.473  0.00  0.00    +0.000 A 
ATOM      9  C   UNL     1      48.958   6.511  15.894  0.00  0.00    +0.000 A 
BRANCH   8  10
ATOM     10  N   UNL     1      49.247   8.575  14.676  0.00  0.00    +0.000 N 
ATOM     11  H   UNL     1      48.277   8.725  14.957  0.00  0.00    +0.000 HD
BRANCH  10  12
ATOM     12  C   UNL     1      49.430   8.731  13.262  0.00  0.00    +0.000 C 
ATOM     13  C   UNL     1      48.088   8.819  12.502  0.00  0.00    +0.000 C 
ATOM     14  C   UNL     1      48.599   7.735  11.539  0.00  0.00    +0.000 C 
ATOM     15  C   UNL     1      49.670   7.366  12.576  0.00  0.00    +0.000 C 
ENDBRANCH  10  12
ENDBRANCH   8  10
ENDBRANCH   1   4
BRANCH   1  16
ATOM     16  C   UNL     1      47.155   4.394  16.361  0.00  0.00    +0.000 C 
BRANCH  16  21
ATOM     17  C   UNL     1      45.244   4.677  11.622  0.00  0.00    +0.000 A 
ATOM     18  C   UNL     1      45.713   5.697  12.442  0.00  0.00    +0.000 A 
ATOM     19  C   UNL     1      46.356   5.366  13.638  0.00  0.00    +0.000 A 
ATOM     20  C   UNL     1      46.502   4.032  13.999  0.00  0.00    +0.000 A 
ATOM     21  N   UNL     1      47.203   3.620  15.112  0.00  0.00    +0.000 N 
ATOM     22  N   UNL     1      46.022   3.038  13.226  0.00  0.00    +0.000 NA
ATOM     23  C   UNL     1      45.403   3.373  12.062  0.00  0.00    +0.000 A 
ATOM     24  H   UNL     1      47.068   2.614  15.222  0.00  0.00    +0.000 HD
BRANCH  17  26
ATOM     25  N   UNL     1      45.408   5.226   9.261  0.00  0.00    +0.000 N 
ATOM     26  C   UNL     1      44.594   4.926  10.319  0.00  0.00    +0.000 C 
ATOM     27  O   UNL     1      43.383   4.829  10.178  0.00  0.00    +0.000 OA
ATOM     28  H   UNL     1      44.961   5.272   8.354  0.00  0.00    +0.000 HD
ATOM     29  H   UNL     1      46.403   5.052   9.277  0.00  0.00    +0.000 HD
ENDBRANCH  17  26
ENDBRANCH  16  21
ENDBRANCH   1  16
TORSDOF 6
ENDMDL
