MODEL 1
REMARK VINA RESULT:    -8.265      0.000      0.000
REMARK INTER + INTRA:         -10.084
REMARK INTER:                  -9.714
REMARK INTRA:                  -0.370
REMARK UNBOUND:                -0.370
REMARK  Name = 
REMARK  3 active torsions:
REMARK  status: ('A' for Active; 'I' for Inactive)
REMARK    1  A    between atoms: C_2  and  C_4
REMARK    2  A    between atoms: N_8  and  C_9
REMARK    3  A    between atoms: C_9  and  C_10
REMARK                            x       y       z     vdW  Elec       q    Type
REMARK                         _______ _______ _______ _____ _____    ______ ____
ROOT
ATOM      1  C   UNL     1      46.435   2.263   7.693  0.00  0.00    +0.000 A 
ATOM      2  C   UNL     1      45.639   1.798   8.733  0.00  0.00    +0.000 A 
ATOM      3  C   UNL     1      44.803   2.694   9.399  0.00  0.00    +0.000 A 
ATOM      4  C   UNL     1      44.793   4.036   9.030  0.00  0.00    +0.000 A 
ATOM      5  N   UNL     1      43.937   4.963   9.568  0.00  0.00    +0.000 N 
ATOM      6  N   UNL     1      45.579   4.500   8.041  0.00  0.00    +0.000 NA
ATOM      7  C   UNL     1      46.388   3.616   7.398  0.00  0.00    +0.000 A 
ATOM      8  H   UNL     1      44.139   5.885   9.194  0.00  0.00    +0.000 HD
ENDROOT
BRANCH   1  10
ATOM      9  N   UNL     1      48.412   1.959   6.321  0.00  0.00    +0.000 N 
ATOM     10  C   UNL     1      47.312   1.382   6.897  0.00  0.00    +0.000 C 
ATOM     11  O   UNL     1      47.093   0.185   6.790  0.00  0.00    +0.000 OA
ATOM     12  H   UNL     1      49.065   1.329   5.875  0.00  0.00    +0.000 HD
ATOM     13  H   UNL     1      48.756   2.868   6.597  0.00  0.00    +0.000 HD
ENDBRANCH   1  10
BRANCH   5  14
ATOM     14  C   UNL     1      43.461   4.917  10.934  0.00  0.00    +0.000 C 
BRANCH  14  15
ATOM     15  C   UNL     1      44.602   5.094  11.902  0.00  0.00    +0.000 A 
ATOM     16  C   UNL     1      45.458   6.202  11.875  0.00  0.00    +0.000 A 
ATOM     17  C   UNL     1      46.488   6.311  12.804  0.00  0.00    +0.000 A 
ATOM     18  C   UNL     1      46.620   5.313  13.751  0.00  0.00    +0.000 A 
ATOM     19  N   UNL     1      45.798   4.244  13.837  0.00  0.00    +0.000 NA
ATOM     20  C   UNL     1      44.811   4.163  12.914  0.00  0.00    +0.000 A 
ENDBRANCH  14  15
ENDBRANCH   5  14
TORSDOF 3
ENDMDL
MODEL 2
REMARK VINA RESULT:    -7.396      2.849      6.153
REMARK INTER + INTRA:          -9.063
REMARK INTER:                  -8.629
REMARK INTRA:                  -0.434
REMARK UNBOUND:                -0.370
REMARK  Name = 
REMARK  3 active torsions:
REMARK  status: ('A' for Active; 'I' for Inactive)
REMARK    1  A    between atoms: C_2  and  C_4
REMARK    2  A    between atoms: N_8  and  C_9
REMARK    3  A    between atoms: C_9  and  C_10
REMARK                            x       y       z     vdW  Elec       q    Type
REMARK                         _______ _______ _______ _____ _____    ______ ____
ROOT
ATOM      1  C   UNL     1      46.899   5.898  13.049  0.00  0.00    +0.000 A 
ATOM      2  C   UNL     1      46.621   6.526  11.841  0.00  0.00    +0.000 A 
ATOM      3  C   UNL     1      45.774   5.897  10.929  0.00  0.00    +0.000 A 
ATOM      4  C   UNL     1      45.239   4.648  11.230  0.00  0.00    +0.000 A 
ATOM      5  N   UNL     1      44.327   4.002  10.434  0.00  0.00    +0.000 N 
ATOM      6  N   UNL     1      45.523   4.021  12.388  0.00  0.00    +0.000 NA
ATOM      7  C   UNL     1      46.348   4.646  13.268  0.00  0.00    +0.000 A 
ATOM      8  H   UNL     1      44.115   3.086  10.817  0.00  0.00    +0.000 HD
ENDROOT
BRANCH   1  10
ATOM      9  N   UNL     1      47.591   7.852  14.309  0.00  0.00    +0.000 N 
ATOM     10  C   UNL     1      47.741   6.508  14.097  0.00  0.00    +0.000 C 
ATOM     11  O   UNL     1      48.506   5.839  14.776  0.00  0.00    +0.000 OA
ATOM     12  H   UNL     1      48.086   8.238  15.102  0.00  0.00    +0.000 HD
ATOM     13  H   UNL     1      46.802   8.374  13.955  0.00  0.00    +0.000 HD
ENDBRANCH   1  10
BRANCH   5  14
ATOM     14  C   UNL     1      44.302   4.114   8.992  0.00  0.00    +0.000 C 
BRANCH  14  15
ATOM     15  C   UNL     1      45.329   3.205   8.368  0.00  0.00    +0.000 A 
ATOM     16  C   UNL     1      46.296   3.657   7.462  0.00  0.00    +0.000 A 
ATOM     17  C   UNL     1      47.223   2.766   6.929  0.00  0.00    +0.000 A 
ATOM     18  C   UNL     1      47.167   1.446   7.335  0.00  0.00    +0.000 A 
ATOM     19  N   UNL     1      46.274   0.973   8.231  0.00  0.00    +0.000 NA
ATOM     20  C   UNL     1      45.381   1.861   8.726  0.00  0.00    +0.000 A 
ENDBRANCH  14  15
ENDBRANCH   5  14
TORSDOF 3
ENDMDL
MODEL 3
REMARK VINA RESULT:    -7.202      1.575      1.934
REMARK INTER + INTRA:          -8.835
REMARK INTER:                  -8.596
REMARK INTRA:                  -0.239
REMARK UNBOUND:                -0.370
REMARK  Name = 
REMARK  3 active torsions:
REMARK  status: ('A' for Active; 'I' for Inactive)
REMARK    1  A    between atoms: C_2  and  C_4
REMARK    2  A    between atoms: N_8  and  C_9
REMARK    3  A    between atoms: C_9  and  C_10
REMARK                            x       y       z     vdW  Elec       q    Type
REMARK                         _______ _______ _______ _____ _____    ______ ____
ROOT
ATOM      1  C   UNL     1      46.667   2.495   7.183  0.00  0.00    +0.000 A 
ATOM      2  C   UNL     1      46.217   3.727   7.641  0.00  0.00    +0.000 A 
ATOM      3  C   UNL     1      45.434   3.777   8.794  0.00  0.00    +0.000 A 
ATOM      4  C   UNL     1      45.099   2.598   9.454  0.00  0.00    +0.000 A 
ATOM      5  N   UNL     1      44.414   2.563  10.642  0.00  0.00    +0.000 N 
ATOM      6  N   UNL     1      45.510   1.398   9.003  0.00  0.00    +0.000 NA
ATOM      7  C   UNL     1      46.273   1.363   7.879  0.00  0.00    +0.000 A 
ATOM      8  H   UNL     1      44.232   1.602  10.913  0.00  0.00    +0.000 HD
ENDROOT
BRANCH   1  10
ATOM      9  N   UNL     1      47.421   3.290   5.019  0.00  0.00    +0.000 N 
ATOM     10  C   UNL     1      47.542   2.346   6.003  0.00  0.00    +0.000 C 
ATOM     11  O   UNL     1      48.366   1.447   5.924  0.00  0.00    +0.000 OA
ATOM     12  H   UNL     1      48.101   3.246   4.271  0.00  0.00    +0.000 HD
ATOM     13  H   UNL     1      46.947   4.170   5.165  0.00  0.00    +0.000 HD
ENDBRANCH   1  10
BRANCH   5  14
ATOM     14  C   UNL     1      43.408   3.535  11.015  0.00  0.00    +0.000 C 
BRANCH  14  15
ATOM     15  C   UNL     1      44.049   4.769  11.595  0.00  0.00    +0.000 A 
ATOM     16  C   UNL     1      43.762   6.061  11.138  0.00  0.00    +0.000 A 
ATOM     17  C   UNL     1      44.381   7.161  11.724  0.00  0.00    +0.000 A 
ATOM     18  C   UNL     1      45.258   6.937  12.770  0.00  0.00    +0.000 A 
ATOM     19  N   UNL     1      45.538   5.711  13.265  0.00  0.00    +0.000 NA
ATOM     20  C   UNL     1      44.927   4.662  12.669  0.00  0.00    +0.000 A 
ENDBRANCH  14  15
ENDBRANCH   5  14
TORSDOF 3
ENDMDL
MODEL 4
REMARK VINA RESULT:    -7.026      3.149      6.429
REMARK INTER + INTRA:          -8.629
REMARK INTER:                  -8.318
REMARK INTRA:                  -0.311
REMARK UNBOUND:                -0.370
REMARK  Name = 
REMARK  3 active torsions:
REMARK  status: ('A' for Active; 'I' for Inactive)
REMARK    1  A    between atoms: C_2  and  C_4
REMARK    2  A    between atoms: N_8  and  C_9
REMARK    3  A    between atoms: C_9  and  C_10
REMARK                            x       y       z     vdW  Elec       q    Type
REMARK                         _______ _______ _______ _____ _____    ______ ____
ROOT
ATOM      1  C   UNL     1      45.507   6.979  12.424  0.00  0.00    +0.000 A 
ATOM      2  C   UNL     1      44.465   6.765  11.529  0.00  0.00    +0.000 A 
ATOM      3  C   UNL     1      44.228   5.472  11.062  0.00  0.00    +0.000 A 
ATOM      4  C   UNL     1      45.044   4.425  11.479  0.00  0.00    +0.000 A 
ATOM      5  N   UNL     1      44.825   3.113  11.143  0.00  0.00    +0.000 N 
ATOM      6  N   UNL     1      46.071   4.628  12.326  0.00  0.00    +0.000 NA
ATOM      7  C   UNL     1      46.290   5.891  12.775  0.00  0.00    +0.000 A 
ATOM      8  H   UNL     1      45.569   2.529  11.509  0.00  0.00    +0.000 HD
ENDROOT
BRANCH   1  10
ATOM      9  N   UNL     1      44.872   9.285  12.823  0.00  0.00    +0.000 N 
ATOM     10  C   UNL     1      45.803   8.300  13.012  0.00  0.00    +0.000 C 
ATOM     11  O   UNL     1      46.811   8.497  13.674  0.00  0.00    +0.000 OA
ATOM     12  H   UNL     1      45.028  10.150  13.323  0.00  0.00    +0.000 HD
ATOM     13  H   UNL     1      43.930   9.092  12.511  0.00  0.00    +0.000 HD
ENDBRANCH   1  10
BRANCH   5  14
ATOM     14  C   UNL     1      44.243   2.695   9.886  0.00  0.00    +0.000 C 
BRANCH  14  15
ATOM     15  C   UNL     1      45.281   2.689   8.794  0.00  0.00    +0.000 A 
ATOM     16  C   UNL     1      46.012   1.547   8.446  0.00  0.00    +0.000 A 
ATOM     17  C   UNL     1      46.951   1.605   7.420  0.00  0.00    +0.000 A 
ATOM     18  C   UNL     1      47.116   2.806   6.755  0.00  0.00    +0.000 A 
ATOM     19  N   UNL     1      46.409   3.923   7.034  0.00  0.00    +0.000 NA
ATOM     20  C   UNL     1      45.511   3.837   8.041  0.00  0.00    +0.000 A 
ENDBRANCH  14  15
ENDBRANCH   5  14
TORSDOF 3
ENDMDL
MODEL 5
REMARK VINA RESULT:    -6.273      3.268      6.539
REMARK INTER + INTRA:          -7.744
REMARK INTER:                  -7.444
REMARK INTRA:                  -0.300
REMARK UNBOUND:                -0.370
REMARK  Name = 
REMARK  3 active torsions:
REMARK  status: ('A' for Active; 'I' for Inactive)
REMARK    1  A    between atoms: C_2  and  C_4
REMARK    2  A    between atoms: N_8  and  C_9
REMARK    3  A    between atoms: C_9  and  C_10
REMARK                            x       y       z     vdW  Elec       q    Type
REMARK                         _______ _______ _______ _____ _____    ______ ____
ROOT
ATOM      1  C   UNL     1      47.092   7.378  13.356  0.00  0.00    +0.000 A 
ATOM      2  C   UNL     1      47.220   6.042  12.993  0.00  0.00    +0.000 A 
ATOM      3  C   UNL     1      46.338   5.508  12.054  0.00  0.00    +0.000 A 
ATOM      4  C   UNL     1      45.336   6.308  11.512  0.00  0.00    +0.000 A 
ATOM      5  N   UNL     1      44.487   5.891  10.518  0.00  0.00    +0.000 N 
ATOM      6  N   UNL     1      45.189   7.596  11.877  0.00  0.00    +0.000 NA
ATOM      7  C   UNL     1      46.056   8.105  12.791  0.00  0.00    +0.000 A 
ATOM      8  H   UNL     1      43.804   6.614  10.315  0.00  0.00    +0.000 HD
ENDROOT
BRANCH   1  10
ATOM      9  N   UNL     1      47.507   9.102  15.010  0.00  0.00    +0.000 N 
ATOM     10  C   UNL     1      48.009   8.045  14.301  0.00  0.00    +0.000 C 
ATOM     11  O   UNL     1      49.152   7.647  14.476  0.00  0.00    +0.000 OA
ATOM     12  H   UNL     1      48.103   9.479  15.735  0.00  0.00    +0.000 HD
ATOM     13  H   UNL     1      46.516   9.288  15.080  0.00  0.00    +0.000 HD
ENDBRANCH   1  10
BRANCH   5  14
ATOM     14  C   UNL     1      44.035   4.524  10.373  0.00  0.00    +0.000 C 
BRANCH  14  15
ATOM     15  C   UNL     1      44.902   3.777   9.393  0.00  0.00    +0.000 A 
ATOM     16  C   UNL     1      45.045   2.384   9.411  0.00  0.00    +0.000 A 
ATOM     17  C   UNL     1      45.854   1.754   8.471  0.00  0.00    +0.000 A 
ATOM     18  C   UNL     1      46.484   2.537   7.522  0.00  0.00    +0.000 A 
ATOM     19  N   UNL     1      46.348   3.879   7.445  0.00  0.00    +0.000 NA
ATOM     20  C   UNL     1      45.562   4.464   8.378  0.00  0.00    +0.000 A 
ENDBRANCH  14  15
ENDBRANCH   5  14
TORSDOF 3
ENDMDL
MODEL 6
REMARK VINA RESULT:    -6.105      1.788      2.327
REMARK INTER + INTRA:          -7.546
REMARK INTER:                  -7.281
REMARK INTRA:                  -0.266
REMARK UNBOUND:                -0.370
REMARK  Name = 
REMARK  3 active torsions:
REMARK  status: ('A' for Active; 'I' for Inactive)
REMARK    1  A    between atoms: C_2  and  C_4
REMARK    2  A    between atoms: N_8  and  C_9
REMARK    3  A    between atoms: C_9  and  C_10
REMARK                            x       y       z     vdW  Elec       q    Type
REMARK                         _______ _______ _______ _____ _____    ______ ____
ROOT
ATOM      1  C   UNL     1      45.675   2.466   8.501  0.00  0.00    +0.000 A 
ATOM      2  C   UNL     1      45.921   3.834   8.464  0.00  0.00    +0.000 A 
ATOM      3  C   UNL     1      45.223   4.671   9.333  0.00  0.00    +0.000 A 
ATOM      4  C   UNL     1      44.280   4.133  10.205  0.00  0.00    +0.000 A 
ATOM      5  N   UNL     1      43.619   4.869  11.155  0.00  0.00    +0.000 N 
ATOM      6  N   UNL     1      44.018   2.812  10.230  0.00  0.00    +0.000 NA
ATOM      7  C   UNL     1      44.706   2.007   9.379  0.00  0.00    +0.000 A 
ATOM      8  H   UNL     1      42.943   4.288  11.640  0.00  0.00    +0.000 HD
ENDROOT
BRANCH   1  10
ATOM      9  N   UNL     1      47.020   1.988   6.540  0.00  0.00    +0.000 N 
ATOM     10  C   UNL     1      46.400   1.496   7.656  0.00  0.00    +0.000 C 
ATOM     11  O   UNL     1      46.481   0.315   7.961  0.00  0.00    +0.000 OA
ATOM     12  H   UNL     1      47.607   1.339   6.032  0.00  0.00    +0.000 HD
ATOM     13  H   UNL     1      47.188   2.974   6.401  0.00  0.00    +0.000 HD
ENDBRANCH   1  10
BRANCH   5  14
ATOM     14  C   UNL     1      43.260   6.261  10.982  0.00  0.00    +0.000 C 
BRANCH  14  15
ATOM     15  C   UNL     1      44.299   7.160  11.601  0.00  0.00    +0.000 A 
ATOM     16  C   UNL     1      44.401   8.524  11.301  0.00  0.00    +0.000 A 
ATOM     17  C   UNL     1      45.378   9.302  11.914  0.00  0.00    +0.000 A 
ATOM     18  C   UNL     1      46.215   8.694  12.831  0.00  0.00    +0.000 A 
ATOM     19  N   UNL     1      46.131   7.391  13.176  0.00  0.00    +0.000 NA
ATOM     20  C   UNL     1      45.177   6.659  12.557  0.00  0.00    +0.000 A 
ENDBRANCH  14  15
ENDBRANCH   5  14
TORSDOF 3
ENDMDL
MODEL 7
REMARK VINA RESULT:    -5.841      3.804      6.148
REMARK INTER + INTRA:          -7.235
REMARK INTER:                  -6.970
REMARK INTRA:                  -0.265
REMARK UNBOUND:                -0.370
REMARK  Name = 
REMARK  3 active torsions:
REMARK  status: ('A' for Active; 'I' for Inactive)
REMARK    1  A    between atoms: C_2  and  C_4
REMARK    2  A    between atoms: N_8  and  C_9
REMARK    3  A    between atoms: C_9  and  C_10
REMARK                            x       y       z     vdW  Elec       q    Type
REMARK                         _______ _______ _______ _____ _____    ______ ____
ROOT
ATOM      1  C   UNL     1      45.543   4.857  11.556  0.00  0.00    +0.000 A 
ATOM      2  C   UNL     1      46.229   5.744  12.378  0.00  0.00    +0.000 A 
ATOM      3  C   UNL     1      46.778   5.275  13.571  0.00  0.00    +0.000 A 
ATOM      4  C   UNL     1      46.613   3.940  13.931  0.00  0.00    +0.000 A 
ATOM      5  N   UNL     1      47.197   3.376  15.037  0.00  0.00    +0.000 N 
ATOM      6  N   UNL     1      45.928   3.081  13.153  0.00  0.00    +0.000 NA
ATOM      7  C   UNL     1      45.400   3.550  11.992  0.00  0.00    +0.000 A 
ATOM      8  H   UNL     1      46.900   2.411  15.136  0.00  0.00    +0.000 HD
ENDROOT
BRANCH   1  10
ATOM      9  N   UNL     1      43.620   5.453  10.203  0.00  0.00    +0.000 N 
ATOM     10  C   UNL     1      44.972   5.248  10.252  0.00  0.00    +0.000 C 
ATOM     11  O   UNL     1      45.678   5.423   9.269  0.00  0.00    +0.000 OA
ATOM     12  H   UNL     1      43.256   5.829   9.338  0.00  0.00    +0.000 HD
ATOM     13  H   UNL     1      43.057   5.568  11.034  0.00  0.00    +0.000 HD
ENDBRANCH   1  10
BRANCH   5  14
ATOM     14  C   UNL     1      47.447   4.098  16.266  0.00  0.00    +0.000 C 
BRANCH  14  15
ATOM     15  C   UNL     1      48.796   3.738  16.831  0.00  0.00    +0.000 A 
ATOM     16  C   UNL     1      49.303   2.433  16.819  0.00  0.00    +0.000 A 
ATOM     17  C   UNL     1      50.562   2.169  17.349  0.00  0.00    +0.000 A 
ATOM     18  C   UNL     1      51.291   3.227  17.859  0.00  0.00    +0.000 A 
ATOM     19  N   UNL     1      50.856   4.507  17.861  0.00  0.00    +0.000 NA
ATOM     20  C   UNL     1      49.625   4.730  17.347  0.00  0.00    +0.000 A 
ENDBRANCH  14  15
ENDBRANCH   5  14
TORSDOF 3
ENDMDL
MODEL 8
REMARK VINA RESULT:    -5.796      3.465      6.715
REMARK INTER + INTRA:          -7.183
REMARK INTER:                  -6.833
REMARK INTRA:                  -0.350
REMARK UNBOUND:                -0.370
REMARK  Name = 
REMARK  3 active torsions:
REMARK  status: ('A' for Active; 'I' for Inactive)
REMARK    1  A    between atoms: C_2  and  C_4
REMARK    2  A    between atoms: N_8  and  C_9
REMARK    3  A    between atoms: C_9  and  C_10
REMARK                            x       y       z     vdW  Elec       q    Type
REMARK                         _______ _______ _______ _____ _____    ______ ____
ROOT
ATOM      1  C   UNL     1      47.882   5.592  15.224  0.00  0.00    +0.000 A 
ATOM      2  C   UNL     1      46.866   4.756  14.775  0.00  0.00    +0.000 A 
ATOM      3  C   UNL     1      46.326   4.967  13.506  0.00  0.00    +0.000 A 
ATOM      4  C   UNL     1      46.793   6.017  12.721  0.00  0.00    +0.000 A 
ATOM      5  N   UNL     1      46.384   6.238  11.431  0.00  0.00    +0.000 N 
ATOM      6  N   UNL     1      47.759   6.847  13.158  0.00  0.00    +0.000 NA
ATOM      7  C   UNL     1      48.278   6.630  14.395  0.00  0.00    +0.000 A 
ATOM      8  H   UNL     1      46.810   7.085  11.069  0.00  0.00    +0.000 HD
ENDROOT
BRANCH   1  10
ATOM      9  N   UNL     1      47.925   5.950  17.622  0.00  0.00    +0.000 N 
ATOM     10  C   UNL     1      48.550   5.416  16.528  0.00  0.00    +0.000 C 
ATOM     11  O   UNL     1      49.592   4.786  16.635  0.00  0.00    +0.000 OA
ATOM     12  H   UNL     1      48.329   5.727  18.522  0.00  0.00    +0.000 HD
ATOM     13  H   UNL     1      46.958   6.243  17.606  0.00  0.00    +0.000 HD
ENDBRANCH   1  10
BRANCH   5  14
ATOM     14  C   UNL     1      45.053   5.935  10.949  0.00  0.00    +0.000 C 
BRANCH  14  15
ATOM     15  C   UNL     1      45.073   4.723  10.055  0.00  0.00    +0.000 A 
ATOM     16  C   UNL     1      45.662   4.724   8.784  0.00  0.00    +0.000 A 
ATOM     17  C   UNL     1      45.655   3.568   8.011  0.00  0.00    +0.000 A 
ATOM     18  C   UNL     1      45.073   2.432   8.542  0.00  0.00    +0.000 A 
ATOM     19  N   UNL     1      44.523   2.375   9.775  0.00  0.00    +0.000 NA
ATOM     20  C   UNL     1      44.538   3.518  10.499  0.00  0.00    +0.000 A 
ENDBRANCH  14  15
ENDBRANCH   5  14
TORSDOF 3
ENDMDL
MODEL 9
REMARK VINA RESULT:    -5.646      3.624      5.405
REMARK INTER + INTRA:          -7.006
REMARK INTER:                  -6.674
REMARK INTRA:                  -0.332
REMARK UNBOUND:                -0.370
REMARK  Name = 
REMARK  3 active torsions:
REMARK  status: ('A' for Active; 'I' for Inactive)
REMARK    1  A    between atoms: C_2  and  C_4
REMARK    2  A    between atoms: N_8  and  C_9
REMARK    3  A    between atoms: C_9  and  C_10
REMARK                            x       y       z     vdW  Elec       q    Type
REMARK                         _______ _______ _______ _____ _____    ______ ____
ROOT
ATOM      1  C   UNL     1      44.559   4.066  11.488  0.00  0.00    +0.000 A 
ATOM      2  C   UNL     1      45.125   5.003  10.632  0.00  0.00    +0.000 A 
ATOM      3  C   UNL     1      45.763   6.119  11.176  0.00  0.00    +0.000 A 
ATOM      4  C   UNL     1      45.804   6.288  12.557  0.00  0.00    +0.000 A 
ATOM      5  N   UNL     1      46.488   7.303  13.176  0.00  0.00    +0.000 N 
ATOM      6  N   UNL     1      45.236   5.397  13.392  0.00  0.00    +0.000 NA
ATOM      7  C   UNL     1      44.619   4.314  12.850  0.00  0.00    +0.000 A 
ATOM      8  H   UNL     1      46.338   7.265  14.179  0.00  0.00    +0.000 HD
ENDROOT
BRANCH   1  10
ATOM      9  N   UNL     1      44.477   2.209   9.930  0.00  0.00    +0.000 N 
ATOM     10  C   UNL     1      43.909   2.830  11.009  0.00  0.00    +0.000 C 
ATOM     11  O   UNL     1      42.934   2.357  11.574  0.00  0.00    +0.000 OA
ATOM     12  H   UNL     1      44.095   1.306   9.681  0.00  0.00    +0.000 HD
ATOM     13  H   UNL     1      45.411   2.424   9.608  0.00  0.00    +0.000 HD
ENDBRANCH   1  10
BRANCH   5  14
ATOM     14  C   UNL     1      46.655   8.621  12.603  0.00  0.00    +0.000 C 
BRANCH  14  15
ATOM     15  C   UNL     1      48.078   8.831  12.155  0.00  0.00    +0.000 A 
ATOM     16  C   UNL     1      48.978   7.776  11.958  0.00  0.00    +0.000 A 
ATOM     17  C   UNL     1      50.277   8.036  11.534  0.00  0.00    +0.000 A 
ATOM     18  C   UNL     1      50.634   9.351  11.297  0.00  0.00    +0.000 A 
ATOM     19  N   UNL     1      49.791  10.396  11.441  0.00  0.00    +0.000 NA
ATOM     20  C   UNL     1      48.538  10.111  11.863  0.00  0.00    +0.000 A 
ENDBRANCH  14  15
ENDBRANCH   5  14
TORSDOF 3
ENDMDL
