MODEL 1
REMARK VINA RESULT:    -8.794      0.000      0.000
REMARK INTER + INTRA:         -12.826
REMARK INTER:                 -11.878
REMARK INTRA:                  -0.948
REMARK UNBOUND:                -0.948
REMARK  Name = 
REMARK  7 active torsions:
REMARK  status: ('A' for Active; 'I' for Inactive)
REMARK    1  A    between atoms: C_1  and  O_2
REMARK    2  A    between atoms: O_2  and  C_3
REMARK    3  A    between atoms: C_5  and  C_6
REMARK    4  A    between atoms: C_6  and  N_7
REMARK    5  A    between atoms: N_7  and  C_8
REMARK    6  A    between atoms: C_11  and  C_12
REMARK    7  A    between atoms: C_21  and  C_22
REMARK                            x       y       z     vdW  Elec       q    Type
REMARK                         _______ _______ _______ _____ _____    ______ ____
ROOT
ATOM      1  C   UNL     1      43.753   5.137  11.354  0.00  0.00    +0.000 C 
ATOM      2  C   UNL     1      42.501   5.548  12.104  0.00  0.00    +0.000 C 
ATOM      3  C   UNL     1      42.998   4.149  12.245  0.00  0.00    +0.000 C 
ENDROOT
BRANCH   1   6
ATOM      4  C   UNL     1      47.117   5.357  13.259  0.00  0.00    +0.000 A 
ATOM      5  C   UNL     1      45.846   4.938  12.826  0.00  0.00    +0.000 A 
ATOM      6  C   UNL     1      45.096   5.657  11.871  0.00  0.00    +0.000 A 
ATOM      7  C   UNL     1      45.649   6.854  11.397  0.00  0.00    +0.000 A 
ATOM      8  C   UNL     1      46.918   7.279  11.800  0.00  0.00    +0.000 A 
ATOM      9  C   UNL     1      47.671   6.533  12.717  0.00  0.00    +0.000 A 
BRANCH   9  10
ATOM     10  C   UNL     1      49.051   7.037  13.003  0.00  0.00    +0.000 C 
ATOM     11  N   UNL     1      49.444   7.161  14.303  0.00  0.00    +0.000 N 
ATOM     12  O   UNL     1      49.836   7.313  12.101  0.00  0.00    +0.000 OA
ATOM     13  H   UNL     1      48.796   6.996  15.064  0.00  0.00    +0.000 HD
ATOM     14  H   UNL     1      50.372   7.505  14.499  0.00  0.00    +0.000 HD
ENDBRANCH   9  10
BRANCH   4  16
ATOM     15  C   UNL     1      47.160   4.371  15.437  0.00  0.00    +0.000 C 
ATOM     16  O   UNL     1      47.831   4.694  14.226  0.00  0.00    +0.000 OA
ENDBRANCH   4  16
ENDBRANCH   1   6
BRANCH   1  17
ATOM     17  N   UNL     1      43.740   4.766   9.934  0.00  0.00    +0.000 N 
ATOM     18  H   UNL     1      42.836   4.789   9.477  0.00  0.00    +0.000 HD
BRANCH  17  19
ATOM     19  C   UNL     1      44.713   4.036   9.228  0.00  0.00    +0.000 A 
ATOM     20  C   UNL     1      45.594   4.586   8.297  0.00  0.00    +0.000 A 
ATOM     21  C   UNL     1      46.475   3.768   7.567  0.00  0.00    +0.000 A 
ATOM     22  C   UNL     1      46.478   2.380   7.750  0.00  0.00    +0.000 A 
ATOM     23  C   UNL     1      45.587   1.816   8.666  0.00  0.00    +0.000 A 
ATOM     24  C   UNL     1      44.721   2.640   9.390  0.00  0.00    +0.000 A 
BRANCH  22  25
ATOM     25  C   UNL     1      47.382   1.543   6.917  0.00  0.00    +0.000 C 
ATOM     26  N   UNL     1      48.548   2.112   6.481  0.00  0.00    +0.000 N 
ATOM     27  O   UNL     1      47.092   0.395   6.609  0.00  0.00    +0.000 OA
ATOM     28  H   UNL     1      48.725   3.105   6.515  0.00  0.00    +0.000 HD
ATOM     29  H   UNL     1      49.119   1.554   5.857  0.00  0.00    +0.000 HD
ENDBRANCH  22  25
ENDBRANCH  17  19
ENDBRANCH   1  17
TORSDOF 6
ENDMDL
MODEL 2
REMARK VINA RESULT:    -8.490      1.127      2.086
REMARK INTER + INTRA:         -12.416
REMARK INTER:                 -11.278
REMARK INTRA:                  -1.139
REMARK UNBOUND:                -0.948
REMARK  Name = 
REMARK  7 active torsions:
REMARK  status: ('A' for Active; 'I' for Inactive)
REMARK    1  A    between atoms: C_1  and  O_2
REMARK    2  A    between atoms: O_2  and  C_3
REMARK    3  A    between atoms: C_5  and  C_6
REMARK    4  A    between atoms: C_6  and  N_7
REMARK    5  A    between atoms: N_7  and  C_8
REMARK    6  A    between atoms: C_11  and  C_12
REMARK    7  A    between atoms: C_21  and  C_22
REMARK                            x       y       z     vdW  Elec       q    Type
REMARK                         _______ _______ _______ _____ _____    ______ ____
ROOT
ATOM      1  C   UNL     1      43.863   5.018  11.414  0.00  0.00    +0.000 C 
ATOM      2  C   UNL     1      42.799   6.092  11.303  0.00  0.00    +0.000 C 
ATOM      3  C   UNL     1      42.655   5.043  12.353  0.00  0.00    +0.000 C 
ENDROOT
BRANCH   1   6
ATOM      4  C   UNL     1      47.031   7.067  12.283  0.00  0.00    +0.000 A 
ATOM      5  C   UNL     1      45.827   6.647  11.691  0.00  0.00    +0.000 A 
ATOM      6  C   UNL     1      45.216   5.415  12.008  0.00  0.00    +0.000 A 
ATOM      7  C   UNL     1      45.891   4.584  12.913  0.00  0.00    +0.000 A 
ATOM      8  C   UNL     1      47.079   4.990  13.525  0.00  0.00    +0.000 A 
ATOM      9  C   UNL     1      47.653   6.235  13.234  0.00  0.00    +0.000 A 
BRANCH   9  10
ATOM     10  C   UNL     1      48.874   6.599  14.019  0.00  0.00    +0.000 C 
ATOM     11  N   UNL     1      49.885   7.259  13.384  0.00  0.00    +0.000 N 
ATOM     12  O   UNL     1      48.971   6.342  15.215  0.00  0.00    +0.000 OA
ATOM     13  H   UNL     1      49.854   7.430  12.386  0.00  0.00    +0.000 HD
ATOM     14  H   UNL     1      50.712   7.501  13.909  0.00  0.00    +0.000 HD
ENDBRANCH   9  10
BRANCH   4  16
ATOM     15  C   UNL     1      46.957   9.454  12.163  0.00  0.00    +0.000 C 
ATOM     16  O   UNL     1      47.661   8.239  11.942  0.00  0.00    +0.000 OA
ENDBRANCH   4  16
ENDBRANCH   1   6
BRANCH   1  17
ATOM     17  N   UNL     1      43.894   3.840  10.538  0.00  0.00    +0.000 N 
ATOM     18  H   UNL     1      43.351   3.043  10.846  0.00  0.00    +0.000 HD
BRANCH  17  19
ATOM     19  C   UNL     1      44.847   3.530   9.551  0.00  0.00    +0.000 A 
ATOM     20  C   UNL     1      45.420   4.462   8.685  0.00  0.00    +0.000 A 
ATOM     21  C   UNL     1      46.297   4.053   7.664  0.00  0.00    +0.000 A 
ATOM     22  C   UNL     1      46.604   2.699   7.486  0.00  0.00    +0.000 A 
ATOM     23  C   UNL     1      46.021   1.755   8.336  0.00  0.00    +0.000 A 
ATOM     24  C   UNL     1      45.156   2.175   9.351  0.00  0.00    +0.000 A 
BRANCH  22  25
ATOM     25  C   UNL     1      47.488   2.300   6.359  0.00  0.00    +0.000 C 
ATOM     26  N   UNL     1      47.355   2.980   5.179  0.00  0.00    +0.000 N 
ATOM     27  O   UNL     1      48.292   1.384   6.466  0.00  0.00    +0.000 OA
ATOM     28  H   UNL     1      46.568   3.578   4.972  0.00  0.00    +0.000 HD
ATOM     29  H   UNL     1      47.913   2.651   4.400  0.00  0.00    +0.000 HD
ENDBRANCH  22  25
ENDBRANCH  17  19
ENDBRANCH   1  17
TORSDOF 6
ENDMDL
MODEL 3
REMARK VINA RESULT:    -6.885      1.773      2.643
REMARK INTER + INTRA:         -10.248
REMARK INTER:                  -9.644
REMARK INTRA:                  -0.604
REMARK UNBOUND:                -0.948
REMARK  Name = 
REMARK  7 active torsions:
REMARK  status: ('A' for Active; 'I' for Inactive)
REMARK    1  A    between atoms: C_1  and  O_2
REMARK    2  A    between atoms: O_2  and  C_3
REMARK    3  A    between atoms: C_5  and  C_6
REMARK    4  A    between atoms: C_6  and  N_7
REMARK    5  A    between atoms: N_7  and  C_8
REMARK    6  A    between atoms: C_11  and  C_12
REMARK    7  A    between atoms: C_21  and  C_22
REMARK                            x       y       z     vdW  Elec       q    Type
REMARK                         _______ _______ _______ _____ _____    ______ ____
ROOT
ATOM      1  C   UNL     1      44.858   6.279  11.186  0.00  0.00    +0.000 C 
ATOM      2  C   UNL     1      45.138   7.720  10.809  0.00  0.00    +0.000 C 
ATOM      3  C   UNL     1      43.866   7.396  11.516  0.00  0.00    +0.000 C 
ENDROOT
BRANCH   1   6
ATOM      4  C   UNL     1      47.538   5.795  13.937  0.00  0.00    +0.000 A 
ATOM      5  C   UNL     1      46.836   6.281  12.820  0.00  0.00    +0.000 A 
ATOM      6  C   UNL     1      45.648   5.681  12.352  0.00  0.00    +0.000 A 
ATOM      7  C   UNL     1      45.210   4.529  13.020  0.00  0.00    +0.000 A 
ATOM      8  C   UNL     1      45.882   4.040  14.142  0.00  0.00    +0.000 A 
ATOM      9  C   UNL     1      47.038   4.672  14.624  0.00  0.00    +0.000 A 
BRANCH   9  10
ATOM     10  C   UNL     1      47.618   4.112  15.886  0.00  0.00    +0.000 C 
ATOM     11  N   UNL     1      46.808   3.390  16.711  0.00  0.00    +0.000 N 
ATOM     12  O   UNL     1      48.800   4.267  16.174  0.00  0.00    +0.000 OA
ATOM     13  H   UNL     1      45.816   3.299  16.525  0.00  0.00    +0.000 HD
ATOM     14  H   UNL     1      47.194   3.016  17.565  0.00  0.00    +0.000 HD
ENDBRANCH   9  10
BRANCH   4  16
ATOM     15  C   UNL     1      48.684   7.646  14.927  0.00  0.00    +0.000 C 
ATOM     16  O   UNL     1      48.723   6.339  14.369  0.00  0.00    +0.000 OA
ENDBRANCH   4  16
ENDBRANCH   1   6
BRANCH   1  17
ATOM     17  N   UNL     1      44.331   5.298  10.229  0.00  0.00    +0.000 N 
ATOM     18  H   UNL     1      43.338   5.109  10.287  0.00  0.00    +0.000 HD
BRANCH  17  19
ATOM     19  C   UNL     1      45.051   4.325   9.514  0.00  0.00    +0.000 A 
ATOM     20  C   UNL     1      45.903   4.599   8.443  0.00  0.00    +0.000 A 
ATOM     21  C   UNL     1      46.514   3.558   7.722  0.00  0.00    +0.000 A 
ATOM     22  C   UNL     1      46.271   2.220   8.056  0.00  0.00    +0.000 A 
ATOM     23  C   UNL     1      45.406   1.933   9.115  0.00  0.00    +0.000 A 
ATOM     24  C   UNL     1      44.810   2.977   9.827  0.00  0.00    +0.000 A 
BRANCH  22  25
ATOM     25  C   UNL     1      46.888   1.146   7.233  0.00  0.00    +0.000 C 
ATOM     26  N   UNL     1      46.793  -0.138   7.694  0.00  0.00    +0.000 N 
ATOM     27  O   UNL     1      47.480   1.395   6.191  0.00  0.00    +0.000 OA
ATOM     28  H   UNL     1      46.521  -0.367   8.639  0.00  0.00    +0.000 HD
ATOM     29  H   UNL     1      47.279  -0.849   7.160  0.00  0.00    +0.000 HD
ENDBRANCH  22  25
ENDBRANCH  17  19
ENDBRANCH   1  17
TORSDOF 6
ENDMDL
MODEL 4
REMARK VINA RESULT:    -6.325      1.770      7.105
REMARK INTER + INTRA:          -9.491
REMARK INTER:                  -9.392
REMARK INTRA:                  -0.100
REMARK UNBOUND:                -0.948
REMARK  Name = 
REMARK  7 active torsions:
REMARK  status: ('A' for Active; 'I' for Inactive)
REMARK    1  A    between atoms: C_1  and  O_2
REMARK    2  A    between atoms: O_2  and  C_3
REMARK    3  A    between atoms: C_5  and  C_6
REMARK    4  A    between atoms: C_6  and  N_7
REMARK    5  A    between atoms: N_7  and  C_8
REMARK    6  A    between atoms: C_11  and  C_12
REMARK    7  A    between atoms: C_21  and  C_22
REMARK                            x       y       z     vdW  Elec       q    Type
REMARK                         _______ _______ _______ _____ _____    ______ ____
ROOT
ATOM      1  C   UNL     1      44.224   4.911  10.790  0.00  0.00    +0.000 C 
ATOM      2  C   UNL     1      43.614   4.295  12.034  0.00  0.00    +0.000 C 
ATOM      3  C   UNL     1      42.709   4.771  10.949  0.00  0.00    +0.000 C 
ENDROOT
BRANCH   1   6
ATOM      4  C   UNL     1      46.344   3.635   7.813  0.00  0.00    +0.000 A 
ATOM      5  C   UNL     1      45.642   4.474   8.697  0.00  0.00    +0.000 A 
ATOM      6  C   UNL     1      44.910   3.974   9.794  0.00  0.00    +0.000 A 
ATOM      7  C   UNL     1      44.862   2.581   9.947  0.00  0.00    +0.000 A 
ATOM      8  C   UNL     1      45.567   1.732   9.091  0.00  0.00    +0.000 A 
ATOM      9  C   UNL     1      46.327   2.244   8.030  0.00  0.00    +0.000 A 
BRANCH   9  10
ATOM     10  C   UNL     1      47.112   1.245   7.238  0.00  0.00    +0.000 C 
ATOM     11  N   UNL     1      48.329   1.614   6.747  0.00  0.00    +0.000 N 
ATOM     12  O   UNL     1      46.698   0.106   7.047  0.00  0.00    +0.000 OA
ATOM     13  H   UNL     1      48.666   2.565   6.841  0.00  0.00    +0.000 HD
ATOM     14  H   UNL     1      48.859   0.945   6.209  0.00  0.00    +0.000 HD
ENDBRANCH   9  10
BRANCH   4  16
ATOM     15  C   UNL     1      46.602   3.636   5.435  0.00  0.00    +0.000 C 
ATOM     16  O   UNL     1      47.015   4.107   6.711  0.00  0.00    +0.000 OA
ENDBRANCH   4  16
ENDBRANCH   1   6
BRANCH   1  17
ATOM     17  N   UNL     1      44.677   6.307  10.738  0.00  0.00    +0.000 N 
ATOM     18  H   UNL     1      44.532   6.789   9.860  0.00  0.00    +0.000 HD
BRANCH  17  19
ATOM     19  C   UNL     1      45.603   6.940  11.586  0.00  0.00    +0.000 A 
ATOM     20  C   UNL     1      46.855   6.422  11.918  0.00  0.00    +0.000 A 
ATOM     21  C   UNL     1      47.683   7.076  12.848  0.00  0.00    +0.000 A 
ATOM     22  C   UNL     1      47.263   8.256  13.472  0.00  0.00    +0.000 A 
ATOM     23  C   UNL     1      46.003   8.775  13.161  0.00  0.00    +0.000 A 
ATOM     24  C   UNL     1      45.192   8.119  12.230  0.00  0.00    +0.000 A 
BRANCH  22  25
ATOM     25  C   UNL     1      48.141   8.886  14.493  0.00  0.00    +0.000 C 
ATOM     26  N   UNL     1      47.573   9.234  15.688  0.00  0.00    +0.000 N 
ATOM     27  O   UNL     1      49.325   9.108  14.275  0.00  0.00    +0.000 OA
ATOM     28  H   UNL     1      46.575   9.280  15.833  0.00  0.00    +0.000 HD
ATOM     29  H   UNL     1      48.166   9.726  16.346  0.00  0.00    +0.000 HD
ENDBRANCH  22  25
ENDBRANCH  17  19
ENDBRANCH   1  17
TORSDOF 6
ENDMDL
MODEL 5
REMARK VINA RESULT:    -6.246      1.710      6.939
REMARK INTER + INTRA:          -9.385
REMARK INTER:                  -9.336
REMARK INTRA:                  -0.049
REMARK UNBOUND:                -0.948
REMARK  Name = 
REMARK  7 active torsions:
REMARK  status: ('A' for Active; 'I' for Inactive)
REMARK    1  A    between atoms: C_1  and  O_2
REMARK    2  A    between atoms: O_2  and  C_3
REMARK    3  A    between atoms: C_5  and  C_6
REMARK    4  A    between atoms: C_6  and  N_7
REMARK    5  A    between atoms: N_7  and  C_8
REMARK    6  A    between atoms: C_11  and  C_12
REMARK    7  A    between atoms: C_21  and  C_22
REMARK                            x       y       z     vdW  Elec       q    Type
REMARK                         _______ _______ _______ _____ _____    ______ ____
ROOT
ATOM      1  C   UNL     1      44.476   4.553  11.056  0.00  0.00    +0.000 C 
ATOM      2  C   UNL     1      43.566   3.583  11.784  0.00  0.00    +0.000 C 
ATOM      3  C   UNL     1      42.953   4.669  10.967  0.00  0.00    +0.000 C 
ENDROOT
BRANCH   1   6
ATOM      4  C   UNL     1      45.771   2.210   8.259  0.00  0.00    +0.000 A 
ATOM      5  C   UNL     1      45.168   2.687   9.437  0.00  0.00    +0.000 A 
ATOM      6  C   UNL     1      45.211   4.045   9.814  0.00  0.00    +0.000 A 
ATOM      7  C   UNL     1      45.934   4.914   8.985  0.00  0.00    +0.000 A 
ATOM      8  C   UNL     1      46.525   4.465   7.802  0.00  0.00    +0.000 A 
ATOM      9  C   UNL     1      46.438   3.120   7.416  0.00  0.00    +0.000 A 
BRANCH   9  10
ATOM     10  C   UNL     1      47.030   2.775   6.085  0.00  0.00    +0.000 C 
ATOM     11  N   UNL     1      48.382   2.629   5.992  0.00  0.00    +0.000 N 
ATOM     12  O   UNL     1      46.328   2.596   5.095  0.00  0.00    +0.000 OA
ATOM     13  H   UNL     1      48.987   2.828   6.779  0.00  0.00    +0.000 HD
ATOM     14  H   UNL     1      48.785   2.401   5.095  0.00  0.00    +0.000 HD
ENDBRANCH   9  10
BRANCH   4  16
ATOM     15  C   UNL     1      47.044   0.254   7.737  0.00  0.00    +0.000 C 
ATOM     16  O   UNL     1      45.780   0.882   7.911  0.00  0.00    +0.000 OA
ENDBRANCH   4  16
ENDBRANCH   1   6
BRANCH   1  17
ATOM     17  N   UNL     1      45.108   5.698  11.723  0.00  0.00    +0.000 N 
ATOM     18  H   UNL     1      45.089   6.574  11.216  0.00  0.00    +0.000 HD
BRANCH  17  19
ATOM     19  C   UNL     1      46.045   5.670  12.772  0.00  0.00    +0.000 A 
ATOM     20  C   UNL     1      46.121   4.667  13.738  0.00  0.00    +0.000 A 
ATOM     21  C   UNL     1      47.029   4.764  14.808  0.00  0.00    +0.000 A 
ATOM     22  C   UNL     1      47.869   5.876  14.933  0.00  0.00    +0.000 A 
ATOM     23  C   UNL     1      47.789   6.896  13.981  0.00  0.00    +0.000 A 
ATOM     24  C   UNL     1      46.887   6.785  12.919  0.00  0.00    +0.000 A 
BRANCH  22  25
ATOM     25  C   UNL     1      48.774   5.970  16.110  0.00  0.00    +0.000 C 
ATOM     26  N   UNL     1      48.200   6.183  17.334  0.00  0.00    +0.000 N 
ATOM     27  O   UNL     1      49.989   5.883  15.995  0.00  0.00    +0.000 OA
ATOM     28  H   UNL     1      47.243   6.482  17.450  0.00  0.00    +0.000 HD
ATOM     29  H   UNL     1      48.833   6.315  18.114  0.00  0.00    +0.000 HD
ENDBRANCH  22  25
ENDBRANCH  17  19
ENDBRANCH   1  17
TORSDOF 6
ENDMDL
MODEL 6
REMARK VINA RESULT:    -6.174      3.100      5.459
REMARK INTER + INTRA:          -9.287
REMARK INTER:                  -8.414
REMARK INTRA:                  -0.873
REMARK UNBOUND:                -0.948
REMARK  Name = 
REMARK  7 active torsions:
REMARK  status: ('A' for Active; 'I' for Inactive)
REMARK    1  A    between atoms: C_1  and  O_2
REMARK    2  A    between atoms: O_2  and  C_3
REMARK    3  A    between atoms: C_5  and  C_6
REMARK    4  A    between atoms: C_6  and  N_7
REMARK    5  A    between atoms: N_7  and  C_8
REMARK    6  A    between atoms: C_11  and  C_12
REMARK    7  A    between atoms: C_21  and  C_22
REMARK                            x       y       z     vdW  Elec       q    Type
REMARK                         _______ _______ _______ _____ _____    ______ ____
ROOT
ATOM      1  C   UNL     1      48.470   7.431  14.050  0.00  0.00    +0.000 C 
ATOM      2  C   UNL     1      49.392   7.811  12.908  0.00  0.00    +0.000 C 
ATOM      3  C   UNL     1      48.869   8.886  13.799  0.00  0.00    +0.000 C 
ENDROOT
BRANCH   1   6
ATOM      4  C   UNL     1      48.923   5.117  17.121  0.00  0.00    +0.000 A 
ATOM      5  C   UNL     1      48.353   5.825  16.048  0.00  0.00    +0.000 A 
ATOM      6  C   UNL     1      49.090   6.737  15.265  0.00  0.00    +0.000 A 
ATOM      7  C   UNL     1      50.424   6.960  15.633  0.00  0.00    +0.000 A 
ATOM      8  C   UNL     1      51.015   6.255  16.684  0.00  0.00    +0.000 A 
ATOM      9  C   UNL     1      50.283   5.318  17.427  0.00  0.00    +0.000 A 
BRANCH   9  10
ATOM     10  C   UNL     1      51.046   4.560  18.468  0.00  0.00    +0.000 C 
ATOM     11  N   UNL     1      51.051   3.197  18.408  0.00  0.00    +0.000 N 
ATOM     12  O   UNL     1      51.682   5.133  19.346  0.00  0.00    +0.000 OA
ATOM     13  H   UNL     1      50.487   2.700  17.730  0.00  0.00    +0.000 HD
ATOM     14  H   UNL     1      51.560   2.682  19.111  0.00  0.00    +0.000 HD
ENDBRANCH   9  10
BRANCH   4  16
ATOM     15  C   UNL     1      47.474   3.222  17.288  0.00  0.00    +0.000 C 
ATOM     16  O   UNL     1      48.201   4.267  17.922  0.00  0.00    +0.000 OA
ENDBRANCH   4  16
ENDBRANCH   1   6
BRANCH   1  17
ATOM     17  N   UNL     1      47.036   7.180  13.860  0.00  0.00    +0.000 N 
ATOM     18  H   UNL     1      46.441   7.379  14.654  0.00  0.00    +0.000 HD
BRANCH  17  19
ATOM     19  C   UNL     1      46.429   6.365  12.887  0.00  0.00    +0.000 A 
ATOM     20  C   UNL     1      46.310   6.699  11.538  0.00  0.00    +0.000 A 
ATOM     21  C   UNL     1      45.606   5.868  10.649  0.00  0.00    +0.000 A 
ATOM     22  C   UNL     1      44.996   4.692  11.101  0.00  0.00    +0.000 A 
ATOM     23  C   UNL     1      45.092   4.357  12.454  0.00  0.00    +0.000 A 
ATOM     24  C   UNL     1      45.801   5.188  13.327  0.00  0.00    +0.000 A 
BRANCH  22  25
ATOM     25  C   UNL     1      44.210   3.871  10.143  0.00  0.00    +0.000 C 
ATOM     26  N   UNL     1      44.082   4.340   8.864  0.00  0.00    +0.000 N 
ATOM     27  O   UNL     1      43.675   2.824  10.482  0.00  0.00    +0.000 OA
ATOM     28  H   UNL     1      44.306   5.287   8.598  0.00  0.00    +0.000 HD
ATOM     29  H   UNL     1      43.485   3.805   8.243  0.00  0.00    +0.000 HD
ENDBRANCH  22  25
ENDBRANCH  17  19
ENDBRANCH   1  17
TORSDOF 6
ENDMDL
MODEL 7
REMARK VINA RESULT:    -6.055      3.066      4.949
REMARK INTER + INTRA:          -9.127
REMARK INTER:                  -8.114
REMARK INTRA:                  -1.013
REMARK UNBOUND:                -0.948
REMARK  Name = 
REMARK  7 active torsions:
REMARK  status: ('A' for Active; 'I' for Inactive)
REMARK    1  A    between atoms: C_1  and  O_2
REMARK    2  A    between atoms: O_2  and  C_3
REMARK    3  A    between atoms: C_5  and  C_6
REMARK    4  A    between atoms: C_6  and  N_7
REMARK    5  A    between atoms: N_7  and  C_8
REMARK    6  A    between atoms: C_11  and  C_12
REMARK    7  A    between atoms: C_21  and  C_22
REMARK                            x       y       z     vdW  Elec       q    Type
REMARK                         _______ _______ _______ _____ _____    ______ ____
ROOT
ATOM      1  C   UNL     1      47.803   7.932  12.737  0.00  0.00    +0.000 C 
ATOM      2  C   UNL     1      48.921   7.763  11.727  0.00  0.00    +0.000 C 
ATOM      3  C   UNL     1      48.479   9.141  12.088  0.00  0.00    +0.000 C 
ENDROOT
BRANCH   1   6
ATOM      4  C   UNL     1      48.667   6.074  16.023  0.00  0.00    +0.000 A 
ATOM      5  C   UNL     1      48.295   6.346  14.694  0.00  0.00    +0.000 A 
ATOM      6  C   UNL     1      48.125   7.659  14.208  0.00  0.00    +0.000 A 
ATOM      7  C   UNL     1      48.291   8.705  15.127  0.00  0.00    +0.000 A 
ATOM      8  C   UNL     1      48.678   8.458  16.446  0.00  0.00    +0.000 A 
ATOM      9  C   UNL     1      48.886   7.149  16.905  0.00  0.00    +0.000 A 
BRANCH   9  10
ATOM     10  C   UNL     1      49.387   7.014  18.309  0.00  0.00    +0.000 C 
ATOM     11  N   UNL     1      48.691   6.224  19.176  0.00  0.00    +0.000 N 
ATOM     12  O   UNL     1      50.413   7.571  18.683  0.00  0.00    +0.000 OA
ATOM     13  H   UNL     1      47.810   5.801  18.909  0.00  0.00    +0.000 HD
ATOM     14  H   UNL     1      49.022   6.134  20.125  0.00  0.00    +0.000 HD
ENDBRANCH   9  10
BRANCH   4  16
ATOM     15  C   UNL     1      47.632   3.965  16.471  0.00  0.00    +0.000 C 
ATOM     16  O   UNL     1      48.783   4.799  16.519  0.00  0.00    +0.000 OA
ENDBRANCH   4  16
ENDBRANCH   1   6
BRANCH   1  17
ATOM     17  N   UNL     1      46.385   7.796  12.379  0.00  0.00    +0.000 N 
ATOM     18  H   UNL     1      45.786   8.569  12.639  0.00  0.00    +0.000 HD
BRANCH  17  19
ATOM     19  C   UNL     1      45.687   6.614  12.075  0.00  0.00    +0.000 A 
ATOM     20  C   UNL     1      44.976   5.854  13.004  0.00  0.00    +0.000 A 
ATOM     21  C   UNL     1      44.383   4.633  12.634  0.00  0.00    +0.000 A 
ATOM     22  C   UNL     1      44.503   4.148  11.327  0.00  0.00    +0.000 A 
ATOM     23  C   UNL     1      45.228   4.893  10.392  0.00  0.00    +0.000 A 
ATOM     24  C   UNL     1      45.807   6.107  10.771  0.00  0.00    +0.000 A 
BRANCH  22  25
ATOM     25  C   UNL     1      43.913   2.826  10.989  0.00  0.00    +0.000 C 
ATOM     26  N   UNL     1      44.425   2.161   9.909  0.00  0.00    +0.000 N 
ATOM     27  O   UNL     1      42.988   2.351  11.635  0.00  0.00    +0.000 OA
ATOM     28  H   UNL     1      45.020   2.600   9.222  0.00  0.00    +0.000 HD
ATOM     29  H   UNL     1      43.966   1.296   9.649  0.00  0.00    +0.000 HD
ENDBRANCH  22  25
ENDBRANCH  17  19
ENDBRANCH   1  17
TORSDOF 6
ENDMDL
MODEL 8
REMARK VINA RESULT:    -5.917      3.577      7.869
REMARK INTER + INTRA:          -8.941
REMARK INTER:                  -8.589
REMARK INTRA:                  -0.352
REMARK UNBOUND:                -0.948
REMARK  Name = 
REMARK  7 active torsions:
REMARK  status: ('A' for Active; 'I' for Inactive)
REMARK    1  A    between atoms: C_1  and  O_2
REMARK    2  A    between atoms: O_2  and  C_3
REMARK    3  A    between atoms: C_5  and  C_6
REMARK    4  A    between atoms: C_6  and  N_7
REMARK    5  A    between atoms: N_7  and  C_8
REMARK    6  A    between atoms: C_11  and  C_12
REMARK    7  A    between atoms: C_21  and  C_22
REMARK                            x       y       z     vdW  Elec       q    Type
REMARK                         _______ _______ _______ _____ _____    ______ ____
ROOT
ATOM      1  C   UNL     1      47.838   7.092  13.355  0.00  0.00    +0.000 C 
ATOM      2  C   UNL     1      48.165   8.122  12.291  0.00  0.00    +0.000 C 
ATOM      3  C   UNL     1      49.157   7.047  12.581  0.00  0.00    +0.000 C 
ENDROOT
BRANCH   1   6
ATOM      4  C   UNL     1      44.761   5.331  11.798  0.00  0.00    +0.000 A 
ATOM      5  C   UNL     1      45.691   6.313  12.186  0.00  0.00    +0.000 A 
ATOM      6  C   UNL     1      46.794   6.026  13.016  0.00  0.00    +0.000 A 
ATOM      7  C   UNL     1      46.907   4.713  13.494  0.00  0.00    +0.000 A 
ATOM      8  C   UNL     1      46.005   3.719  13.107  0.00  0.00    +0.000 A 
ATOM      9  C   UNL     1      44.937   4.008  12.246  0.00  0.00    +0.000 A 
BRANCH   9  10
ATOM     10  C   UNL     1      44.091   2.845  11.829  0.00  0.00    +0.000 C 
ATOM     11  N   UNL     1      44.154   2.426  10.533  0.00  0.00    +0.000 N 
ATOM     12  O   UNL     1      43.373   2.252  12.627  0.00  0.00    +0.000 OA
ATOM     13  H   UNL     1      44.693   2.934   9.843  0.00  0.00    +0.000 HD
ATOM     14  H   UNL     1      43.582   1.645  10.247  0.00  0.00    +0.000 HD
ENDBRANCH   9  10
BRANCH   4  16
ATOM     15  C   UNL     1      42.419   5.806  11.710  0.00  0.00    +0.000 C 
ATOM     16  O   UNL     1      43.655   5.612  11.034  0.00  0.00    +0.000 OA
ENDBRANCH   4  16
ENDBRANCH   1   6
BRANCH   1  17
ATOM     17  N   UNL     1      48.015   7.351  14.789  0.00  0.00    +0.000 N 
ATOM     18  H   UNL     1      47.733   8.267  15.113  0.00  0.00    +0.000 HD
BRANCH  17  19
ATOM     19  C   UNL     1      48.849   6.663  15.688  0.00  0.00    +0.000 A 
ATOM     20  C   UNL     1      50.204   6.937  15.877  0.00  0.00    +0.000 A 
ATOM     21  C   UNL     1      50.989   6.139  16.729  0.00  0.00    +0.000 A 
ATOM     22  C   UNL     1      50.430   5.044  17.398  0.00  0.00    +0.000 A 
ATOM     23  C   UNL     1      49.078   4.749  17.202  0.00  0.00    +0.000 A 
ATOM     24  C   UNL     1      48.307   5.553  16.357  0.00  0.00    +0.000 A 
BRANCH  22  25
ATOM     25  C   UNL     1      51.305   4.189  18.243  0.00  0.00    +0.000 C 
ATOM     26  N   UNL     1      51.107   2.836  18.193  0.00  0.00    +0.000 N 
ATOM     27  O   UNL     1      52.159   4.670  18.976  0.00  0.00    +0.000 OA
ATOM     28  H   UNL     1      50.285   2.412  17.789  0.00  0.00    +0.000 HD
ATOM     29  H   UNL     1      51.662   2.273  18.827  0.00  0.00    +0.000 HD
ENDBRANCH  22  25
ENDBRANCH  17  19
ENDBRANCH   1  17
TORSDOF 6
ENDMDL
