MODEL 1
REMARK VINA RESULT:    -8.228      0.000      0.000
REMARK INTER + INTRA:         -12.031
REMARK INTER:                 -11.114
REMARK INTRA:                  -0.917
REMARK UNBOUND:                -0.917
REMARK  Name = 
REMARK  7 active torsions:
REMARK  status: ('A' for Active; 'I' for Inactive)
REMARK    1  A    between atoms: C_1  and  N_2
REMARK    2  A    between atoms: C_6  and  C_7
REMARK    3  A    between atoms: N_9  and  C_10
REMARK    4  A    between atoms: C_10  and  C_11
REMARK    5  A    between atoms: C_14  and  C_15
REMARK    6  A    between atoms: C_15  and  N_16
REMARK    7  A    between atoms: C_17  and  C_19
REMARK                            x       y       z     vdW  Elec       q    Type
REMARK                         _______ _______ _______ _____ _____    ______ ____
ROOT
ATOM      1  C   UNL     1      45.080   5.235  11.073  0.00  0.00    +0.000 C 
ATOM      2  C   UNL     1      44.172   6.304  11.699  0.00  0.00    +0.000 C 
ATOM      3  C   UNL     1      44.915   7.133  12.744  0.00  0.00    +0.000 C 
ATOM      4  C   UNL     1      46.159   7.817  12.155  0.00  0.00    +0.000 C 
ATOM      5  C   UNL     1      47.076   6.764  11.512  0.00  0.00    +0.000 C 
ATOM      6  C   UNL     1      46.339   5.897  10.488  0.00  0.00    +0.000 C 
ENDROOT
BRANCH   1   7
ATOM      7  C   UNL     1      44.347   4.428   9.986  0.00  0.00    +0.000 C 
BRANCH   7  10
ATOM      8  C   UNL     1      45.448   2.678   8.577  0.00  0.00    +0.000 C 
ATOM      9  O   UNL     1      44.921   1.752   9.186  0.00  0.00    +0.000 OA
ATOM     10  N   UNL     1      45.222   3.997   8.911  0.00  0.00    +0.000 N 
ATOM     11  H   UNL     1      45.650   4.719   8.356  0.00  0.00    +0.000 HD
BRANCH   8  17
ATOM     12  C   UNL     1      46.805   0.002   7.744  0.00  0.00    +0.000 C 
ATOM     13  N   UNL     1      46.934   1.289   7.098  0.00  0.00    +0.000 N 
ATOM     14  N   UNL     1      47.729   1.377   6.008  0.00  0.00    +0.000 NA
ATOM     15  C   UNL     1      47.664   2.658   5.664  0.00  0.00    +0.000 A 
ATOM     16  C   UNL     1      46.832   3.393   6.521  0.00  0.00    +0.000 A 
ATOM     17  C   UNL     1      46.350   2.487   7.457  0.00  0.00    +0.000 A 
ENDBRANCH   8  17
ENDBRANCH   7  10
ENDBRANCH   1   7
BRANCH   4  18
ATOM     18  C   UNL     1      46.928   8.620  13.219  0.00  0.00    +0.000 C 
BRANCH  18  19
ATOM     19  N   UNL     1      47.271   7.823  14.381  0.00  0.00    +0.000 N 
ATOM     20  C   UNL     1      48.569   7.503  14.688  0.00  0.00    +0.000 C 
ATOM     21  O   UNL     1      49.507   7.897  13.999  0.00  0.00    +0.000 OA
ATOM     22  H   UNL     1      46.517   7.489  14.973  0.00  0.00    +0.000 HD
BRANCH  20  23
ATOM     23  C   UNL     1      48.795   6.657  15.874  0.00  0.00    +0.000 A 
ATOM     24  C   UNL     1      49.664   7.105  16.863  0.00  0.00    +0.000 A 
ATOM     25  S   UNL     1      49.848   6.026  18.166  0.00  0.00    +0.000 S 
ATOM     26  C   UNL     1      48.776   4.909  17.462  0.00  0.00    +0.000 A 
ATOM     27  N   UNL     1      48.503   3.730  18.081  0.00  0.00    +0.000 NA
ATOM     28  C   UNL     1      47.673   2.972  17.447  0.00  0.00    +0.000 A 
ATOM     29  N   UNL     1      47.087   3.291  16.252  0.00  0.00    +0.000 N 
ATOM     30  C   UNL     1      47.325   4.476  15.594  0.00  0.00    +0.000 A 
ATOM     31  O   UNL     1      46.762   4.729  14.535  0.00  0.00    +0.000 OA
ATOM     32  C   UNL     1      48.269   5.360  16.254  0.00  0.00    +0.000 A 
ATOM     33  H   UNL     1      46.436   2.658  15.813  0.00  0.00    +0.000 HD
ENDBRANCH  20  23
ENDBRANCH  18  19
ENDBRANCH   4  18
TORSDOF 6
ENDMDL
MODEL 2
REMARK VINA RESULT:    -7.805      2.000      2.590
REMARK INTER + INTRA:         -11.459
REMARK INTER:                 -10.879
REMARK INTRA:                  -0.580
REMARK UNBOUND:                -0.917
REMARK  Name = 
REMARK  7 active torsions:
REMARK  status: ('A' for Active; 'I' for Inactive)
REMARK    1  A    between atoms: C_1  and  N_2
REMARK    2  A    between atoms: C_6  and  C_7
REMARK    3  A    between atoms: N_9  and  C_10
REMARK    4  A    between atoms: C_10  and  C_11
REMARK    5  A    between atoms: C_14  and  C_15
REMARK    6  A    between atoms: C_15  and  N_16
REMARK    7  A    between atoms: C_17  and  C_19
REMARK                            x       y       z     vdW  Elec       q    Type
REMARK                         _______ _______ _______ _____ _____    ______ ____
ROOT
ATOM      1  C   UNL     1      45.000   5.083  11.354  0.00  0.00    +0.000 C 
ATOM      2  C   UNL     1      46.039   5.974  10.661  0.00  0.00    +0.000 C 
ATOM      3  C   UNL     1      46.675   6.963  11.635  0.00  0.00    +0.000 C 
ATOM      4  C   UNL     1      47.342   6.250  12.822  0.00  0.00    +0.000 C 
ATOM      5  C   UNL     1      46.320   5.341  13.524  0.00  0.00    +0.000 C 
ATOM      6  C   UNL     1      45.644   4.367  12.555  0.00  0.00    +0.000 C 
ENDROOT
BRANCH   1   7
ATOM      7  C   UNL     1      44.391   4.053  10.385  0.00  0.00    +0.000 C 
BRANCH   7  10
ATOM      8  C   UNL     1      45.356   2.460   8.716  0.00  0.00    +0.000 C 
ATOM      9  O   UNL     1      44.677   1.518   9.113  0.00  0.00    +0.000 OA
ATOM     10  N   UNL     1      45.276   3.713   9.287  0.00  0.00    +0.000 N 
ATOM     11  H   UNL     1      45.830   4.459   8.900  0.00  0.00    +0.000 HD
BRANCH   8  17
ATOM     12  C   UNL     1      46.765  -0.141   7.741  0.00  0.00    +0.000 C 
ATOM     13  N   UNL     1      46.909   1.191   7.198  0.00  0.00    +0.000 N 
ATOM     14  N   UNL     1      47.745   1.363   6.149  0.00  0.00    +0.000 NA
ATOM     15  C   UNL     1      47.683   2.666   5.898  0.00  0.00    +0.000 A 
ATOM     16  C   UNL     1      46.814   3.331   6.775  0.00  0.00    +0.000 A 
ATOM     17  C   UNL     1      46.303   2.356   7.621  0.00  0.00    +0.000 A 
ENDBRANCH   8  17
ENDBRANCH   7  10
ENDBRANCH   1   7
BRANCH   4  18
ATOM     18  C   UNL     1      47.948   7.250  13.823  0.00  0.00    +0.000 C 
BRANCH  18  19
ATOM     19  N   UNL     1      47.882   6.778  15.192  0.00  0.00    +0.000 N 
ATOM     20  C   UNL     1      49.007   6.452  15.906  0.00  0.00    +0.000 C 
ATOM     21  O   UNL     1      50.130   6.564  15.420  0.00  0.00    +0.000 OA
ATOM     22  H   UNL     1      46.968   6.682  15.623  0.00  0.00    +0.000 HD
BRANCH  20  23
ATOM     23  C   UNL     1      48.816   5.949  17.278  0.00  0.00    +0.000 A 
ATOM     24  C   UNL     1      49.130   4.623  17.558  0.00  0.00    +0.000 A 
ATOM     25  S   UNL     1      48.845   4.169  19.174  0.00  0.00    +0.000 S 
ATOM     26  C   UNL     1      48.285   5.725  19.568  0.00  0.00    +0.000 A 
ATOM     27  N   UNL     1      47.858   6.007  20.829  0.00  0.00    +0.000 NA
ATOM     28  C   UNL     1      47.462   7.222  21.001  0.00  0.00    +0.000 A 
ATOM     29  N   UNL     1      47.458   8.183  20.027  0.00  0.00    +0.000 N 
ATOM     30  C   UNL     1      47.889   7.948  18.742  0.00  0.00    +0.000 A 
ATOM     31  O   UNL     1      47.888   8.845  17.906  0.00  0.00    +0.000 OA
ATOM     32  C   UNL     1      48.329   6.588  18.485  0.00  0.00    +0.000 A 
ATOM     33  H   UNL     1      47.145   9.121  20.230  0.00  0.00    +0.000 HD
ENDBRANCH  20  23
ENDBRANCH  18  19
ENDBRANCH   4  18
TORSDOF 6
ENDMDL
MODEL 3
REMARK VINA RESULT:    -7.260      1.965      2.656
REMARK INTER + INTRA:         -10.723
REMARK INTER:                 -10.278
REMARK INTRA:                  -0.444
REMARK UNBOUND:                -0.917
REMARK  Name = 
REMARK  7 active torsions:
REMARK  status: ('A' for Active; 'I' for Inactive)
REMARK    1  A    between atoms: C_1  and  N_2
REMARK    2  A    between atoms: C_6  and  C_7
REMARK    3  A    between atoms: N_9  and  C_10
REMARK    4  A    between atoms: C_10  and  C_11
REMARK    5  A    between atoms: C_14  and  C_15
REMARK    6  A    between atoms: C_15  and  N_16
REMARK    7  A    between atoms: C_17  and  C_19
REMARK                            x       y       z     vdW  Elec       q    Type
REMARK                         _______ _______ _______ _____ _____    ______ ____
ROOT
ATOM      1  C   UNL     1      44.873   4.810  11.574  0.00  0.00    +0.000 C 
ATOM      2  C   UNL     1      45.661   5.968  10.946  0.00  0.00    +0.000 C 
ATOM      3  C   UNL     1      46.263   6.885  12.010  0.00  0.00    +0.000 C 
ATOM      4  C   UNL     1      47.184   6.118  12.972  0.00  0.00    +0.000 C 
ATOM      5  C   UNL     1      46.417   4.945  13.603  0.00  0.00    +0.000 C 
ATOM      6  C   UNL     1      45.774   4.036  12.552  0.00  0.00    +0.000 C 
ENDROOT
BRANCH   1   7
ATOM      7  C   UNL     1      44.306   3.859  10.506  0.00  0.00    +0.000 C 
BRANCH   7  10
ATOM      8  C   UNL     1      45.322   2.353   8.786  0.00  0.00    +0.000 C 
ATOM      9  O   UNL     1      44.577   1.417   9.058  0.00  0.00    +0.000 OA
ATOM     10  N   UNL     1      45.253   3.562   9.447  0.00  0.00    +0.000 N 
ATOM     11  H   UNL     1      45.863   4.308   9.160  0.00  0.00    +0.000 HD
BRANCH   8  17
ATOM     12  C   UNL     1      46.686  -0.229   7.704  0.00  0.00    +0.000 C 
ATOM     13  N   UNL     1      46.925   1.132   7.281  0.00  0.00    +0.000 N 
ATOM     14  N   UNL     1      47.841   1.344   6.309  0.00  0.00    +0.000 NA
ATOM     15  C   UNL     1      47.853   2.664   6.160  0.00  0.00    +0.000 A 
ATOM     16  C   UNL     1      46.951   3.301   7.025  0.00  0.00    +0.000 A 
ATOM     17  C   UNL     1      46.339   2.289   7.753  0.00  0.00    +0.000 A 
ENDBRANCH   8  17
ENDBRANCH   7  10
ENDBRANCH   1   7
BRANCH   4  18
ATOM     18  C   UNL     1      47.758   7.035  14.067  0.00  0.00    +0.000 C 
BRANCH  18  19
ATOM     19  N   UNL     1      48.230   6.297  15.222  0.00  0.00    +0.000 N 
ATOM     20  C   UNL     1      48.744   6.925  16.328  0.00  0.00    +0.000 C 
ATOM     21  O   UNL     1      48.809   8.150  16.397  0.00  0.00    +0.000 OA
ATOM     22  H   UNL     1      48.182   5.284  15.196  0.00  0.00    +0.000 HD
BRANCH  20  23
ATOM     23  C   UNL     1      49.227   6.071  17.428  0.00  0.00    +0.000 A 
ATOM     24  C   UNL     1      48.312   5.602  18.366  0.00  0.00    +0.000 A 
ATOM     25  S   UNL     1      49.003   4.644  19.590  0.00  0.00    +0.000 S 
ATOM     26  C   UNL     1      50.557   4.817  18.923  0.00  0.00    +0.000 A 
ATOM     27  N   UNL     1      51.634   4.237  19.518  0.00  0.00    +0.000 NA
ATOM     28  C   UNL     1      52.755   4.439  18.913  0.00  0.00    +0.000 A 
ATOM     29  N   UNL     1      52.895   5.166  17.761  0.00  0.00    +0.000 N 
ATOM     30  C   UNL     1      51.836   5.763  17.118  0.00  0.00    +0.000 A 
ATOM     31  O   UNL     1      52.004   6.387  16.077  0.00  0.00    +0.000 OA
ATOM     32  C   UNL     1      50.549   5.584  17.768  0.00  0.00    +0.000 A 
ATOM     33  H   UNL     1      53.801   5.277  17.330  0.00  0.00    +0.000 HD
ENDBRANCH  20  23
ENDBRANCH  18  19
ENDBRANCH   4  18
TORSDOF 6
ENDMDL
MODEL 4
REMARK VINA RESULT:    -7.034      5.142      9.440
REMARK INTER + INTRA:         -10.418
REMARK INTER:                  -9.952
REMARK INTRA:                  -0.466
REMARK UNBOUND:                -0.917
REMARK  Name = 
REMARK  7 active torsions:
REMARK  status: ('A' for Active; 'I' for Inactive)
REMARK    1  A    between atoms: C_1  and  N_2
REMARK    2  A    between atoms: C_6  and  C_7
REMARK    3  A    between atoms: N_9  and  C_10
REMARK    4  A    between atoms: C_10  and  C_11
REMARK    5  A    between atoms: C_14  and  C_15
REMARK    6  A    between atoms: C_15  and  N_16
REMARK    7  A    between atoms: C_17  and  C_19
REMARK                            x       y       z     vdW  Elec       q    Type
REMARK                         _______ _______ _______ _____ _____    ______ ____
ROOT
ATOM      1  C   UNL     1      51.506   2.976  18.044  0.00  0.00    +0.000 C 
ATOM      2  C   UNL     1      50.867   2.021  17.026  0.00  0.00    +0.000 C 
ATOM      3  C   UNL     1      49.342   2.109  17.047  0.00  0.00    +0.000 C 
ATOM      4  C   UNL     1      48.848   3.537  16.770  0.00  0.00    +0.000 C 
ATOM      5  C   UNL     1      49.486   4.512  17.773  0.00  0.00    +0.000 C 
ATOM      6  C   UNL     1      51.013   4.412  17.793  0.00  0.00    +0.000 C 
ENDROOT
BRANCH   1   7
ATOM      7  C   UNL     1      53.043   2.923  17.992  0.00  0.00    +0.000 C 
BRANCH   7  10
ATOM      8  C   UNL     1      54.203   0.722  18.255  0.00  0.00    +0.000 C 
ATOM      9  O   UNL     1      54.412   0.892  19.453  0.00  0.00    +0.000 OA
ATOM     10  N   UNL     1      53.552   1.662  17.484  0.00  0.00    +0.000 N 
ATOM     11  H   UNL     1      53.374   1.456  16.515  0.00  0.00    +0.000 HD
BRANCH   8  17
ATOM     12  C   UNL     1      54.057  -2.206  19.309  0.00  0.00    +0.000 C 
ATOM     13  N   UNL     1      54.529  -1.761  18.016  0.00  0.00    +0.000 N 
ATOM     14  N   UNL     1      54.968  -2.695  17.144  0.00  0.00    +0.000 NA
ATOM     15  C   UNL     1      55.349  -1.992  16.083  0.00  0.00    +0.000 A 
ATOM     16  C   UNL     1      55.157  -0.615  16.267  0.00  0.00    +0.000 A 
ATOM     17  C   UNL     1      54.611  -0.470  17.535  0.00  0.00    +0.000 A 
ENDBRANCH   8  17
ENDBRANCH   7  10
ENDBRANCH   1   7
BRANCH   4  18
ATOM     18  C   UNL     1      47.313   3.633  16.832  0.00  0.00    +0.000 C 
BRANCH  18  19
ATOM     19  N   UNL     1      46.767   4.525  15.827  0.00  0.00    +0.000 N 
ATOM     20  C   UNL     1      46.735   4.192  14.497  0.00  0.00    +0.000 C 
ATOM     21  O   UNL     1      47.151   3.107  14.097  0.00  0.00    +0.000 OA
ATOM     22  H   UNL     1      46.410   5.426  16.129  0.00  0.00    +0.000 HD
BRANCH  20  23
ATOM     23  C   UNL     1      46.190   5.193  13.562  0.00  0.00    +0.000 A 
ATOM     24  C   UNL     1      46.963   6.304  13.241  0.00  0.00    +0.000 A 
ATOM     25  S   UNL     1      46.208   7.388  12.167  0.00  0.00    +0.000 S 
ATOM     26  C   UNL     1      44.812   6.420  12.089  0.00  0.00    +0.000 A 
ATOM     27  N   UNL     1      43.749   6.803  11.331  0.00  0.00    +0.000 NA
ATOM     28  C   UNL     1      42.754   5.982  11.352  0.00  0.00    +0.000 A 
ATOM     29  N   UNL     1      42.728   4.810  12.058  0.00  0.00    +0.000 N 
ATOM     30  C   UNL     1      43.782   4.378  12.830  0.00  0.00    +0.000 A 
ATOM     31  O   UNL     1      43.724   3.310  13.430  0.00  0.00    +0.000 OA
ATOM     32  C   UNL     1      44.924   5.274  12.859  0.00  0.00    +0.000 A 
ATOM     33  H   UNL     1      41.921   4.205  12.023  0.00  0.00    +0.000 HD
ENDBRANCH  20  23
ENDBRANCH  18  19
ENDBRANCH   4  18
TORSDOF 6
ENDMDL
MODEL 5
REMARK VINA RESULT:    -6.979      2.119      2.735
REMARK INTER + INTRA:         -10.343
REMARK INTER:                  -9.751
REMARK INTRA:                  -0.592
REMARK UNBOUND:                -0.917
REMARK  Name = 
REMARK  7 active torsions:
REMARK  status: ('A' for Active; 'I' for Inactive)
REMARK    1  A    between atoms: C_1  and  N_2
REMARK    2  A    between atoms: C_6  and  C_7
REMARK    3  A    between atoms: N_9  and  C_10
REMARK    4  A    between atoms: C_10  and  C_11
REMARK    5  A    between atoms: C_14  and  C_15
REMARK    6  A    between atoms: C_15  and  N_16
REMARK    7  A    between atoms: C_17  and  C_19
REMARK                            x       y       z     vdW  Elec       q    Type
REMARK                         _______ _______ _______ _____ _____    ______ ____
ROOT
ATOM      1  C   UNL     1      44.714   4.728  11.739  0.00  0.00    +0.000 C 
ATOM      2  C   UNL     1      45.684   5.467  10.807  0.00  0.00    +0.000 C 
ATOM      3  C   UNL     1      46.403   6.606  11.528  0.00  0.00    +0.000 C 
ATOM      4  C   UNL     1      47.176   6.107  12.759  0.00  0.00    +0.000 C 
ATOM      5  C   UNL     1      46.224   5.352  13.700  0.00  0.00    +0.000 C 
ATOM      6  C   UNL     1      45.466   4.230  12.986  0.00  0.00    +0.000 C 
ENDROOT
BRANCH   1   7
ATOM      7  C   UNL     1      44.023   3.551  11.028  0.00  0.00    +0.000 C 
BRANCH   7  10
ATOM      8  C   UNL     1      44.985   2.911   8.809  0.00  0.00    +0.000 C 
ATOM      9  O   UNL     1      44.258   3.681   8.189  0.00  0.00    +0.000 OA
ATOM     10  N   UNL     1      44.924   2.790  10.182  0.00  0.00    +0.000 N 
ATOM     11  H   UNL     1      45.568   2.170  10.644  0.00  0.00    +0.000 HD
BRANCH   8  17
ATOM     12  C   UNL     1      47.309   3.849   6.960  0.00  0.00    +0.000 C 
ATOM     13  N   UNL     1      47.001   2.495   7.364  0.00  0.00    +0.000 N 
ATOM     14  N   UNL     1      47.789   1.499   6.901  0.00  0.00    +0.000 NA
ATOM     15  C   UNL     1      47.252   0.398   7.414  0.00  0.00    +0.000 A 
ATOM     16  C   UNL     1      46.127   0.679   8.203  0.00  0.00    +0.000 A 
ATOM     17  C   UNL     1      45.972   2.059   8.173  0.00  0.00    +0.000 A 
ENDBRANCH   8  17
ENDBRANCH   7  10
ENDBRANCH   1   7
BRANCH   4  18
ATOM     18  C   UNL     1      47.867   7.262  13.507  0.00  0.00    +0.000 C 
BRANCH  18  19
ATOM     19  N   UNL     1      49.085   6.845  14.174  0.00  0.00    +0.000 N 
ATOM     20  C   UNL     1      49.264   6.996  15.525  0.00  0.00    +0.000 C 
ATOM     21  O   UNL     1      48.387   7.475  16.239  0.00  0.00    +0.000 OA
ATOM     22  H   UNL     1      49.826   6.439  13.611  0.00  0.00    +0.000 HD
BRANCH  20  23
ATOM     23  C   UNL     1      50.558   6.569  16.088  0.00  0.00    +0.000 A 
ATOM     24  C   UNL     1      51.713   7.245  15.707  0.00  0.00    +0.000 A 
ATOM     25  S   UNL     1      53.137   6.640  16.416  0.00  0.00    +0.000 S 
ATOM     26  C   UNL     1      52.272   5.443  17.259  0.00  0.00    +0.000 A 
ATOM     27  N   UNL     1      52.922   4.556  18.059  0.00  0.00    +0.000 NA
ATOM     28  C   UNL     1      52.155   3.701  18.646  0.00  0.00    +0.000 A 
ATOM     29  N   UNL     1      50.793   3.658  18.509  0.00  0.00    +0.000 N 
ATOM     30  C   UNL     1      50.092   4.539  17.719  0.00  0.00    +0.000 A 
ATOM     31  O   UNL     1      48.869   4.477  17.642  0.00  0.00    +0.000 OA
ATOM     32  C   UNL     1      50.909   5.513  17.018  0.00  0.00    +0.000 A 
ATOM     33  H   UNL     1      50.247   2.970  19.006  0.00  0.00    +0.000 HD
ENDBRANCH  20  23
ENDBRANCH  18  19
ENDBRANCH   4  18
TORSDOF 6
ENDMDL
MODEL 6
REMARK VINA RESULT:    -6.818      2.289      3.136
REMARK INTER + INTRA:         -10.126
REMARK INTER:                  -9.214
REMARK INTRA:                  -0.912
REMARK UNBOUND:                -0.917
REMARK  Name = 
REMARK  7 active torsions:
REMARK  status: ('A' for Active; 'I' for Inactive)
REMARK    1  A    between atoms: C_1  and  N_2
REMARK    2  A    between atoms: C_6  and  C_7
REMARK    3  A    between atoms: N_9  and  C_10
REMARK    4  A    between atoms: C_10  and  C_11
REMARK    5  A    between atoms: C_14  and  C_15
REMARK    6  A    between atoms: C_15  and  N_16
REMARK    7  A    between atoms: C_17  and  C_19
REMARK                            x       y       z     vdW  Elec       q    Type
REMARK                         _______ _______ _______ _____ _____    ______ ____
ROOT
ATOM      1  C   UNL     1      46.237   7.731  12.405  0.00  0.00    +0.000 C 
ATOM      2  C   UNL     1      46.822   9.150  12.437  0.00  0.00    +0.000 C 
ATOM      3  C   UNL     1      47.996   9.255  13.408  0.00  0.00    +0.000 C 
ATOM      4  C   UNL     1      49.116   8.261  13.063  0.00  0.00    +0.000 C 
ATOM      5  C   UNL     1      48.548   6.834  13.014  0.00  0.00    +0.000 C 
ATOM      6  C   UNL     1      47.345   6.716  12.073  0.00  0.00    +0.000 C 
ENDROOT
BRANCH   1   7
ATOM      7  C   UNL     1      45.084   7.610  11.393  0.00  0.00    +0.000 C 
BRANCH   7  10
ATOM      8  C   UNL     1      43.934   5.511  10.663  0.00  0.00    +0.000 C 
ATOM      9  O   UNL     1      42.872   5.821  11.194  0.00  0.00    +0.000 OA
ATOM     10  N   UNL     1      45.048   6.323  10.723  0.00  0.00    +0.000 N 
ATOM     11  H   UNL     1      45.883   6.038  10.239  0.00  0.00    +0.000 HD
BRANCH   8  17
ATOM     12  C   UNL     1      43.415   2.631  11.729  0.00  0.00    +0.000 C 
ATOM     13  N   UNL     1      43.883   3.009  10.413  0.00  0.00    +0.000 N 
ATOM     14  N   UNL     1      44.137   2.025   9.522  0.00  0.00    +0.000 NA
ATOM     15  C   UNL     1      44.563   2.670   8.442  0.00  0.00    +0.000 A 
ATOM     16  C   UNL     1      44.583   4.059   8.632  0.00  0.00    +0.000 A 
ATOM     17  C   UNL     1      44.128   4.276   9.926  0.00  0.00    +0.000 A 
ENDBRANCH   8  17
ENDBRANCH   7  10
ENDBRANCH   1   7
BRANCH   4  18
ATOM     18  C   UNL     1      50.281   8.341  14.066  0.00  0.00    +0.000 C 
BRANCH  18  19
ATOM     19  N   UNL     1      50.150   7.388  15.151  0.00  0.00    +0.000 N 
ATOM     20  C   UNL     1      49.662   7.747  16.381  0.00  0.00    +0.000 C 
ATOM     21  O   UNL     1      49.294   8.896  16.615  0.00  0.00    +0.000 OA
ATOM     22  H   UNL     1      50.440   6.430  14.985  0.00  0.00    +0.000 HD
BRANCH  20  23
ATOM     23  C   UNL     1      49.608   6.701  17.419  0.00  0.00    +0.000 A 
ATOM     24  C   UNL     1      50.277   6.911  18.620  0.00  0.00    +0.000 A 
ATOM     25  S   UNL     1      50.148   5.619  19.721  0.00  0.00    +0.000 S 
ATOM     26  C   UNL     1      49.195   4.721  18.637  0.00  0.00    +0.000 A 
ATOM     27  N   UNL     1      48.752   3.479  18.972  0.00  0.00    +0.000 NA
ATOM     28  C   UNL     1      48.036   2.903  18.066  0.00  0.00    +0.000 A 
ATOM     29  N   UNL     1      47.718   3.460  16.857  0.00  0.00    +0.000 N 
ATOM     30  C   UNL     1      48.134   4.716  16.478  0.00  0.00    +0.000 A 
ATOM     31  O   UNL     1      47.808   5.185  15.393  0.00  0.00    +0.000 OA
ATOM     32  C   UNL     1      48.962   5.404  17.454  0.00  0.00    +0.000 A 
ATOM     33  H   UNL     1      47.143   2.961  16.196  0.00  0.00    +0.000 HD
ENDBRANCH  20  23
ENDBRANCH  18  19
ENDBRANCH   4  18
TORSDOF 6
ENDMDL
MODEL 7
REMARK VINA RESULT:    -6.609      4.936      7.460
REMARK INTER + INTRA:          -9.844
REMARK INTER:                  -9.023
REMARK INTRA:                  -0.821
REMARK UNBOUND:                -0.917
REMARK  Name = 
REMARK  7 active torsions:
REMARK  status: ('A' for Active; 'I' for Inactive)
REMARK    1  A    between atoms: C_1  and  N_2
REMARK    2  A    between atoms: C_6  and  C_7
REMARK    3  A    between atoms: N_9  and  C_10
REMARK    4  A    between atoms: C_10  and  C_11
REMARK    5  A    between atoms: C_14  and  C_15
REMARK    6  A    between atoms: C_15  and  N_16
REMARK    7  A    between atoms: C_17  and  C_19
REMARK                            x       y       z     vdW  Elec       q    Type
REMARK                         _______ _______ _______ _____ _____    ______ ____
ROOT
ATOM      1  C   UNL     1      50.928   9.340  11.574  0.00  0.00    +0.000 C 
ATOM      2  C   UNL     1      50.551   7.860  11.425  0.00  0.00    +0.000 C 
ATOM      3  C   UNL     1      49.395   7.475  12.347  0.00  0.00    +0.000 C 
ATOM      4  C   UNL     1      48.148   8.336  12.093  0.00  0.00    +0.000 C 
ATOM      5  C   UNL     1      48.508   9.825  12.226  0.00  0.00    +0.000 C 
ATOM      6  C   UNL     1      49.689  10.221  11.336  0.00  0.00    +0.000 C 
ENDROOT
BRANCH   1   7
ATOM      7  C   UNL     1      52.060   9.742  10.612  0.00  0.00    +0.000 C 
BRANCH   7  10
ATOM      8  C   UNL     1      53.550   8.193   9.332  0.00  0.00    +0.000 C 
ATOM      9  O   UNL     1      54.551   8.514   9.964  0.00  0.00    +0.000 OA
ATOM     10  N   UNL     1      52.313   8.749   9.585  0.00  0.00    +0.000 N 
ATOM     11  H   UNL     1      51.518   8.423   9.061  0.00  0.00    +0.000 HD
BRANCH   8  17
ATOM     12  C   UNL     1      53.505   8.790   6.275  0.00  0.00    +0.000 C 
ATOM     13  N   UNL     1      53.551   7.494   6.915  0.00  0.00    +0.000 N 
ATOM     14  N   UNL     1      53.574   6.396   6.127  0.00  0.00    +0.000 NA
ATOM     15  C   UNL     1      53.590   5.383   6.986  0.00  0.00    +0.000 A 
ATOM     16  C   UNL     1      53.579   5.821   8.318  0.00  0.00    +0.000 A 
ATOM     17  C   UNL     1      53.561   7.209   8.265  0.00  0.00    +0.000 A 
ENDBRANCH   8  17
ENDBRANCH   7  10
ENDBRANCH   1   7
BRANCH   4  18
ATOM     18  C   UNL     1      46.999   7.975  13.050  0.00  0.00    +0.000 C 
BRANCH  18  19
ATOM     19  N   UNL     1      46.380   6.704  12.726  0.00  0.00    +0.000 N 
ATOM     20  C   UNL     1      45.380   6.597  11.795  0.00  0.00    +0.000 C 
ATOM     21  O   UNL     1      44.973   7.577  11.174  0.00  0.00    +0.000 OA
ATOM     22  H   UNL     1      46.700   5.876  13.218  0.00  0.00    +0.000 HD
BRANCH  20  23
ATOM     23  C   UNL     1      44.801   5.259  11.573  0.00  0.00    +0.000 A 
ATOM     24  C   UNL     1      44.072   4.665  12.598  0.00  0.00    +0.000 A 
ATOM     25  S   UNL     1      43.477   3.116  12.217  0.00  0.00    +0.000 S 
ATOM     26  C   UNL     1      44.173   3.171  10.667  0.00  0.00    +0.000 A 
ATOM     27  N   UNL     1      44.044   2.119   9.815  0.00  0.00    +0.000 NA
ATOM     28  C   UNL     1      44.614   2.285   8.669  0.00  0.00    +0.000 A 
ATOM     29  N   UNL     1      45.296   3.412   8.297  0.00  0.00    +0.000 N 
ATOM     30  C   UNL     1      45.444   4.504   9.121  0.00  0.00    +0.000 A 
ATOM     31  O   UNL     1      46.046   5.502   8.739  0.00  0.00    +0.000 OA
ATOM     32  C   UNL     1      44.838   4.364  10.434  0.00  0.00    +0.000 A 
ATOM     33  H   UNL     1      45.709   3.484   7.379  0.00  0.00    +0.000 HD
ENDBRANCH  20  23
ENDBRANCH  18  19
ENDBRANCH   4  18
TORSDOF 6
ENDMDL
MODEL 8
REMARK VINA RESULT:    -6.455      3.209      4.852
REMARK INTER + INTRA:          -9.636
REMARK INTER:                  -8.688
REMARK INTRA:                  -0.949
REMARK UNBOUND:                -0.917
REMARK  Name = 
REMARK  7 active torsions:
REMARK  status: ('A' for Active; 'I' for Inactive)
REMARK    1  A    between atoms: C_1  and  N_2
REMARK    2  A    between atoms: C_6  and  C_7
REMARK    3  A    between atoms: N_9  and  C_10
REMARK    4  A    between atoms: C_10  and  C_11
REMARK    5  A    between atoms: C_14  and  C_15
REMARK    6  A    between atoms: C_15  and  N_16
REMARK    7  A    between atoms: C_17  and  C_19
REMARK                            x       y       z     vdW  Elec       q    Type
REMARK                         _______ _______ _______ _____ _____    ______ ____
ROOT
ATOM      1  C   UNL     1      48.338   7.316  13.051  0.00  0.00    +0.000 C 
ATOM      2  C   UNL     1      47.900   6.283  14.098  0.00  0.00    +0.000 C 
ATOM      3  C   UNL     1      48.699   6.417  15.393  0.00  0.00    +0.000 C 
ATOM      4  C   UNL     1      48.576   7.824  15.998  0.00  0.00    +0.000 C 
ATOM      5  C   UNL     1      48.999   8.876  14.959  0.00  0.00    +0.000 C 
ATOM      6  C   UNL     1      48.235   8.733  13.641  0.00  0.00    +0.000 C 
ENDROOT
BRANCH   1   7
ATOM      7  C   UNL     1      47.503   7.213  11.762  0.00  0.00    +0.000 C 
BRANCH   7  10
ATOM      8  C   UNL     1      45.260   6.143  11.470  0.00  0.00    +0.000 C 
ATOM      9  O   UNL     1      44.705   7.206  11.209  0.00  0.00    +0.000 OA
ATOM     10  N   UNL     1      46.608   6.070  11.753  0.00  0.00    +0.000 N 
ATOM     11  H   UNL     1      47.021   5.168  11.924  0.00  0.00    +0.000 HD
BRANCH   8  17
ATOM     12  C   UNL     1      44.757   4.251   9.047  0.00  0.00    +0.000 C 
ATOM     13  N   UNL     1      44.363   4.039  10.422  0.00  0.00    +0.000 N 
ATOM     14  N   UNL     1      43.696   2.903  10.724  0.00  0.00    +0.000 NA
ATOM     15  C   UNL     1      43.458   3.006  12.027  0.00  0.00    +0.000 A 
ATOM     16  C   UNL     1      43.967   4.197  12.563  0.00  0.00    +0.000 A 
ATOM     17  C   UNL     1      44.568   4.868  11.506  0.00  0.00    +0.000 A 
ENDBRANCH   8  17
ENDBRANCH   7  10
ENDBRANCH   1   7
BRANCH   4  18
ATOM     18  C   UNL     1      49.414   7.971  17.281  0.00  0.00    +0.000 C 
BRANCH  18  19
ATOM     19  N   UNL     1      50.363   6.888  17.455  0.00  0.00    +0.000 N 
ATOM     20  C   UNL     1      50.225   5.951  18.446  0.00  0.00    +0.000 C 
ATOM     21  O   UNL     1      49.274   5.975  19.224  0.00  0.00    +0.000 OA
ATOM     22  H   UNL     1      51.155   6.839  16.823  0.00  0.00    +0.000 HD
BRANCH  20  23
ATOM     23  C   UNL     1      51.271   4.917  18.549  0.00  0.00    +0.000 A 
ATOM     24  C   UNL     1      52.447   5.216  19.228  0.00  0.00    +0.000 A 
ATOM     25  S   UNL     1      53.575   3.942  19.257  0.00  0.00    +0.000 S 
ATOM     26  C   UNL     1      52.541   2.935  18.358  0.00  0.00    +0.000 A 
ATOM     27  N   UNL     1      52.926   1.676  18.019  0.00  0.00    +0.000 NA
ATOM     28  C   UNL     1      52.052   1.012  17.341  0.00  0.00    +0.000 A 
ATOM     29  N   UNL     1      50.823   1.494  16.977  0.00  0.00    +0.000 N 
ATOM     30  C   UNL     1      50.386   2.756  17.305  0.00  0.00    +0.000 A 
ATOM     31  O   UNL     1      49.269   3.139  16.976  0.00  0.00    +0.000 OA
ATOM     32  C   UNL     1      51.340   3.556  18.053  0.00  0.00    +0.000 A 
ATOM     33  H   UNL     1      50.178   0.918  16.456  0.00  0.00    +0.000 HD
ENDBRANCH  20  23
ENDBRANCH  18  19
ENDBRANCH   4  18
TORSDOF 6
ENDMDL
MODEL 9
REMARK VINA RESULT:    -6.445      3.707      8.555
REMARK INTER + INTRA:          -9.622
REMARK INTER:                  -8.762
REMARK INTRA:                  -0.860
REMARK UNBOUND:                -0.917
REMARK  Name = 
REMARK  7 active torsions:
REMARK  status: ('A' for Active; 'I' for Inactive)
REMARK    1  A    between atoms: C_1  and  N_2
REMARK    2  A    between atoms: C_6  and  C_7
REMARK    3  A    between atoms: N_9  and  C_10
REMARK    4  A    between atoms: C_10  and  C_11
REMARK    5  A    between atoms: C_14  and  C_15
REMARK    6  A    between atoms: C_15  and  N_16
REMARK    7  A    between atoms: C_17  and  C_19
REMARK                            x       y       z     vdW  Elec       q    Type
REMARK                         _______ _______ _______ _____ _____    ______ ____
ROOT
ATOM      1  C   UNL     1      50.215   7.096  15.721  0.00  0.00    +0.000 C 
ATOM      2  C   UNL     1      50.005   8.597  15.477  0.00  0.00    +0.000 C 
ATOM      3  C   UNL     1      49.457   8.872  14.078  0.00  0.00    +0.000 C 
ATOM      4  C   UNL     1      48.131   8.136  13.828  0.00  0.00    +0.000 C 
ATOM      5  C   UNL     1      48.317   6.630  14.079  0.00  0.00    +0.000 C 
ATOM      6  C   UNL     1      48.902   6.337  15.463  0.00  0.00    +0.000 C 
ENDROOT
BRANCH   1   7
ATOM      7  C   UNL     1      50.724   6.814  17.145  0.00  0.00    +0.000 C 
BRANCH   7  10
ATOM      8  C   UNL     1      50.763   4.483  18.055  0.00  0.00    +0.000 C 
ATOM      9  O   UNL     1      49.726   4.636  18.693  0.00  0.00    +0.000 OA
ATOM     10  N   UNL     1      51.308   5.493  17.290  0.00  0.00    +0.000 N 
ATOM     11  H   UNL     1      52.141   5.303  16.757  0.00  0.00    +0.000 HD
BRANCH   8  17
ATOM     12  C   UNL     1      53.441   3.934  19.547  0.00  0.00    +0.000 C 
ATOM     13  N   UNL     1      52.696   3.015  18.715  0.00  0.00    +0.000 N 
ATOM     14  N   UNL     1      53.192   1.770  18.541  0.00  0.00    +0.000 NA
ATOM     15  C   UNL     1      52.318   1.186  17.729  0.00  0.00    +0.000 A 
ATOM     16  C   UNL     1      51.265   2.045  17.382  0.00  0.00    +0.000 A 
ATOM     17  C   UNL     1      51.515   3.242  18.039  0.00  0.00    +0.000 A 
ENDBRANCH   8  17
ENDBRANCH   7  10
ENDBRANCH   1   7
BRANCH   4  18
ATOM     18  C   UNL     1      47.600   8.380  12.405  0.00  0.00    +0.000 C 
BRANCH  18  19
ATOM     19  N   UNL     1      47.097   7.172  11.780  0.00  0.00    +0.000 N 
ATOM     20  C   UNL     1      45.788   7.042  11.393  0.00  0.00    +0.000 C 
ATOM     21  O   UNL     1      44.982   7.958  11.541  0.00  0.00    +0.000 OA
ATOM     22  H   UNL     1      47.743   6.401  11.639  0.00  0.00    +0.000 HD
BRANCH  20  23
ATOM     23  C   UNL     1      45.382   5.755  10.801  0.00  0.00    +0.000 A 
ATOM     24  C   UNL     1      45.674   5.508   9.464  0.00  0.00    +0.000 A 
ATOM     25  S   UNL     1      45.135   3.994   8.903  0.00  0.00    +0.000 S 
ATOM     26  C   UNL     1      44.483   3.604  10.424  0.00  0.00    +0.000 A 
ATOM     27  N   UNL     1      43.846   2.418  10.619  0.00  0.00    +0.000 NA
ATOM     28  C   UNL     1      43.400   2.240  11.816  0.00  0.00    +0.000 A 
ATOM     29  N   UNL     1      43.538   3.140  12.838  0.00  0.00    +0.000 N 
ATOM     30  C   UNL     1      44.181   4.347  12.691  0.00  0.00    +0.000 A 
ATOM     31  O   UNL     1      44.300   5.114  13.640  0.00  0.00    +0.000 OA
ATOM     32  C   UNL     1      44.688   4.609  11.356  0.00  0.00    +0.000 A 
ATOM     33  H   UNL     1      43.175   2.935  13.757  0.00  0.00    +0.000 HD
ENDBRANCH  20  23
ENDBRANCH  18  19
ENDBRANCH   4  18
TORSDOF 6
ENDMDL
