MODEL 1
REMARK VINA RESULT:    -8.128      0.000      0.000
REMARK INTER + INTRA:         -11.140
REMARK INTER:                 -10.504
REMARK INTRA:                  -0.636
REMARK UNBOUND:                -0.636
REMARK  Name = 
REMARK  5 active torsions:
REMARK  status: ('A' for Active; 'I' for Inactive)
REMARK    1  A    between atoms: C_2  and  C_18
REMARK    2  A    between atoms: N_3  and  C_4
REMARK    3  A    between atoms: C_4  and  C_5
REMARK    4  A    between atoms: C_8  and  C_9
REMARK    5  A    between atoms: C_9  and  C_10
REMARK                            x       y       z     vdW  Elec       q    Type
REMARK                         _______ _______ _______ _____ _____    ______ ____
ROOT
ATOM      1  O   UNL     1      48.392   7.050  12.648  0.00  0.00    +0.000 OA
ATOM      2  C   UNL     1      47.723   6.807  13.648  0.00  0.00    +0.000 C 
ATOM      3  N   UNL     1      46.354   6.816  13.635  0.00  0.00    +0.000 N 
ATOM      4  H   UNL     1      45.847   6.767  14.512  0.00  0.00    +0.000 HD
ENDROOT
BRANCH   2   5
ATOM      5  C   UNL     1      48.358   6.434  14.919  0.00  0.00    +0.000 A 
ATOM      6  C   UNL     1      49.351   7.240  15.456  0.00  0.00    +0.000 A 
ATOM      7  S   UNL     1      49.972   6.665  16.937  0.00  0.00    +0.000 S 
ATOM      8  C   UNL     1      48.906   5.338  16.930  0.00  0.00    +0.000 A 
ATOM      9  N   UNL     1      48.887   4.449  17.959  0.00  0.00    +0.000 NA
ATOM     10  C   UNL     1      48.000   3.518  17.846  0.00  0.00    +0.000 A 
ATOM     11  N   UNL     1      47.144   3.381  16.784  0.00  0.00    +0.000 N 
ATOM     12  C   UNL     1      47.185   4.204  15.684  0.00  0.00    +0.000 A 
ATOM     13  O   UNL     1      46.514   3.965  14.689  0.00  0.00    +0.000 OA
ATOM     14  C   UNL     1      48.118   5.310  15.794  0.00  0.00    +0.000 A 
ATOM     15  H   UNL     1      46.498   2.606  16.738  0.00  0.00    +0.000 HD
ENDBRANCH   2   5
BRANCH   3  16
ATOM     16  C   UNL     1      45.591   7.179  12.469  0.00  0.00    +0.000 C 
BRANCH  16  17
ATOM     17  C   UNL     1      45.361   6.006  11.564  0.00  0.00    +0.000 A 
ATOM     18  C   UNL     1      44.646   4.887  11.992  0.00  0.00    +0.000 A 
ATOM     19  C   UNL     1      44.398   3.841  11.106  0.00  0.00    +0.000 A 
ATOM     20  C   UNL     1      44.891   3.929   9.808  0.00  0.00    +0.000 A 
ATOM     21  N   UNL     1      45.626   4.987   9.378  0.00  0.00    +0.000 NA
ATOM     22  C   UNL     1      45.849   5.989  10.262  0.00  0.00    +0.000 A 
BRANCH  20  23
ATOM     23  C   UNL     1      44.550   2.872   8.786  0.00  0.00    +0.000 C 
BRANCH  23  24
ATOM     24  C   UNL     1      45.695   2.584   7.849  0.00  0.00    +0.000 A 
ATOM     25  C   UNL     1      46.460   1.427   7.993  0.00  0.00    +0.000 A 
ATOM     26  N   UNL     1      47.521   1.140   7.199  0.00  0.00    +0.000 NA
ATOM     27  C   UNL     1      47.790   2.058   6.247  0.00  0.00    +0.000 A 
ATOM     28  C   UNL     1      47.028   3.202   6.082  0.00  0.00    +0.000 A 
ATOM     29  N   UNL     1      45.968   3.491   6.873  0.00  0.00    +0.000 NA
ENDBRANCH  23  24
ENDBRANCH  20  23
ENDBRANCH  16  17
ENDBRANCH   3  16
TORSDOF 5
ENDMDL
MODEL 2
REMARK VINA RESULT:    -7.967      1.175      1.574
REMARK INTER + INTRA:         -10.932
REMARK INTER:                 -10.149
REMARK INTRA:                  -0.783
REMARK UNBOUND:                -0.636
REMARK  Name = 
REMARK  5 active torsions:
REMARK  status: ('A' for Active; 'I' for Inactive)
REMARK    1  A    between atoms: C_2  and  C_18
REMARK    2  A    between atoms: N_3  and  C_4
REMARK    3  A    between atoms: C_4  and  C_5
REMARK    4  A    between atoms: C_8  and  C_9
REMARK    5  A    between atoms: C_9  and  C_10
REMARK                            x       y       z     vdW  Elec       q    Type
REMARK                         _______ _______ _______ _____ _____    ______ ____
ROOT
ATOM      1  O   UNL     1      49.444   6.849  13.596  0.00  0.00    +0.000 OA
ATOM      2  C   UNL     1      48.655   6.829  14.536  0.00  0.00    +0.000 C 
ATOM      3  N   UNL     1      47.374   7.304  14.431  0.00  0.00    +0.000 N 
ATOM      4  H   UNL     1      46.813   7.413  15.268  0.00  0.00    +0.000 HD
ENDROOT
BRANCH   2   5
ATOM      5  C   UNL     1      49.023   6.239  15.829  0.00  0.00    +0.000 A 
ATOM      6  C   UNL     1      50.024   6.822  16.593  0.00  0.00    +0.000 A 
ATOM      7  S   UNL     1      50.317   6.014  18.067  0.00  0.00    +0.000 S 
ATOM      8  C   UNL     1      49.089   4.879  17.752  0.00  0.00    +0.000 A 
ATOM      9  N   UNL     1      48.784   3.909  18.654  0.00  0.00    +0.000 NA
ATOM     10  C   UNL     1      47.803   3.144  18.307  0.00  0.00    +0.000 A 
ATOM     11  N   UNL     1      47.112   3.249  17.127  0.00  0.00    +0.000 N 
ATOM     12  C   UNL     1      47.442   4.158  16.150  0.00  0.00    +0.000 A 
ATOM     13  O   UNL     1      46.907   4.126  15.049  0.00  0.00    +0.000 OA
ATOM     14  C   UNL     1      48.492   5.087  16.521  0.00  0.00    +0.000 A 
ATOM     15  H   UNL     1      46.379   2.594  16.898  0.00  0.00    +0.000 HD
ENDBRANCH   2   5
BRANCH   3  16
ATOM     16  C   UNL     1      46.873   7.926  13.233  0.00  0.00    +0.000 C 
BRANCH  16  17
ATOM     17  C   UNL     1      46.032   6.986  12.423  0.00  0.00    +0.000 A 
ATOM     18  C   UNL     1      44.881   7.424  11.765  0.00  0.00    +0.000 A 
ATOM     19  C   UNL     1      44.156   6.538  10.972  0.00  0.00    +0.000 A 
ATOM     20  C   UNL     1      44.590   5.219  10.869  0.00  0.00    +0.000 A 
ATOM     21  N   UNL     1      45.681   4.757  11.532  0.00  0.00    +0.000 NA
ATOM     22  C   UNL     1      46.366   5.643  12.294  0.00  0.00    +0.000 A 
BRANCH  20  23
ATOM     23  C   UNL     1      43.899   4.258   9.932  0.00  0.00    +0.000 C 
BRANCH  23  24
ATOM     24  C   UNL     1      44.868   3.527   9.038  0.00  0.00    +0.000 A 
ATOM     25  C   UNL     1      45.101   2.162   9.205  0.00  0.00    +0.000 A 
ATOM     26  N   UNL     1      45.988   1.467   8.451  0.00  0.00    +0.000 NA
ATOM     27  C   UNL     1      46.637   2.192   7.515  0.00  0.00    +0.000 A 
ATOM     28  C   UNL     1      46.403   3.542   7.327  0.00  0.00    +0.000 A 
ATOM     29  N   UNL     1      45.517   4.239   8.078  0.00  0.00    +0.000 NA
ENDBRANCH  23  24
ENDBRANCH  20  23
ENDBRANCH  16  17
ENDBRANCH   3  16
TORSDOF 5
ENDMDL
MODEL 3
REMARK VINA RESULT:    -7.753      1.855      2.569
REMARK INTER + INTRA:         -10.655
REMARK INTER:                 -10.266
REMARK INTRA:                  -0.389
REMARK UNBOUND:                -0.636
REMARK  Name = 
REMARK  5 active torsions:
REMARK  status: ('A' for Active; 'I' for Inactive)
REMARK    1  A    between atoms: C_2  and  C_18
REMARK    2  A    between atoms: N_3  and  C_4
REMARK    3  A    between atoms: C_4  and  C_5
REMARK    4  A    between atoms: C_8  and  C_9
REMARK    5  A    between atoms: C_9  and  C_10
REMARK                            x       y       z     vdW  Elec       q    Type
REMARK                         _______ _______ _______ _____ _____    ______ ____
ROOT
ATOM      1  O   UNL     1      48.831   6.191  14.345  0.00  0.00    +0.000 OA
ATOM      2  C   UNL     1      47.847   5.689  14.881  0.00  0.00    +0.000 C 
ATOM      3  N   UNL     1      46.602   5.727  14.312  0.00  0.00    +0.000 N 
ATOM      4  H   UNL     1      45.796   5.443  14.858  0.00  0.00    +0.000 HD
ENDROOT
BRANCH   2   5
ATOM      5  C   UNL     1      47.957   4.963  16.152  0.00  0.00    +0.000 A 
ATOM      6  C   UNL     1      47.673   3.606  16.198  0.00  0.00    +0.000 A 
ATOM      7  S   UNL     1      47.860   2.920  17.749  0.00  0.00    +0.000 S 
ATOM      8  C   UNL     1      48.365   4.407  18.404  0.00  0.00    +0.000 A 
ATOM      9  N   UNL     1      48.729   4.509  19.711  0.00  0.00    +0.000 NA
ATOM     10  C   UNL     1      49.133   5.683  20.064  0.00  0.00    +0.000 A 
ATOM     11  N   UNL     1      49.187   6.773  19.233  0.00  0.00    +0.000 N 
ATOM     12  C   UNL     1      48.749   6.737  17.930  0.00  0.00    +0.000 A 
ATOM     13  O   UNL     1      48.667   7.759  17.261  0.00  0.00    +0.000 OA
ATOM     14  C   UNL     1      48.351   5.422  17.464  0.00  0.00    +0.000 A 
ATOM     15  H   UNL     1      49.477   7.674  19.582  0.00  0.00    +0.000 HD
ENDBRANCH   2   5
BRANCH   3  16
ATOM     16  C   UNL     1      46.333   6.416  13.076  0.00  0.00    +0.000 C 
BRANCH  16  17
ATOM     17  C   UNL     1      45.785   5.494  12.029  0.00  0.00    +0.000 A 
ATOM     18  C   UNL     1      45.627   5.910  10.705  0.00  0.00    +0.000 A 
ATOM     19  C   UNL     1      45.173   5.010   9.745  0.00  0.00    +0.000 A 
ATOM     20  C   UNL     1      44.864   3.710  10.135  0.00  0.00    +0.000 A 
ATOM     21  N   UNL     1      44.968   3.292  11.423  0.00  0.00    +0.000 NA
ATOM     22  C   UNL     1      45.414   4.190  12.333  0.00  0.00    +0.000 A 
BRANCH  20  23
ATOM     23  C   UNL     1      44.477   2.674   9.107  0.00  0.00    +0.000 C 
BRANCH  23  24
ATOM     24  C   UNL     1      45.596   2.371   8.143  0.00  0.00    +0.000 A 
ATOM     25  C   UNL     1      45.923   3.268   7.127  0.00  0.00    +0.000 A 
ATOM     26  N   UNL     1      46.896   3.025   6.213  0.00  0.00    +0.000 NA
ATOM     27  C   UNL     1      47.535   1.845   6.355  0.00  0.00    +0.000 A 
ATOM     28  C   UNL     1      47.232   0.954   7.370  0.00  0.00    +0.000 A 
ATOM     29  N   UNL     1      46.261   1.193   8.283  0.00  0.00    +0.000 NA
ENDBRANCH  23  24
ENDBRANCH  20  23
ENDBRANCH  16  17
ENDBRANCH   3  16
TORSDOF 5
ENDMDL
MODEL 4
REMARK VINA RESULT:    -7.527      2.215      3.645
REMARK INTER + INTRA:         -10.364
REMARK INTER:                  -9.516
REMARK INTRA:                  -0.848
REMARK UNBOUND:                -0.636
REMARK  Name = 
REMARK  5 active torsions:
REMARK  status: ('A' for Active; 'I' for Inactive)
REMARK    1  A    between atoms: C_2  and  C_18
REMARK    2  A    between atoms: N_3  and  C_4
REMARK    3  A    between atoms: C_4  and  C_5
REMARK    4  A    between atoms: C_8  and  C_9
REMARK    5  A    between atoms: C_9  and  C_10
REMARK                            x       y       z     vdW  Elec       q    Type
REMARK                         _______ _______ _______ _____ _____    ______ ____
ROOT
ATOM      1  O   UNL     1      48.636   5.263  15.977  0.00  0.00    +0.000 OA
ATOM      2  C   UNL     1      48.272   6.178  15.244  0.00  0.00    +0.000 C 
ATOM      3  N   UNL     1      47.207   6.056  14.392  0.00  0.00    +0.000 N 
ATOM      4  H   UNL     1      47.042   6.775  13.696  0.00  0.00    +0.000 HD
ENDROOT
BRANCH   2   5
ATOM      5  C   UNL     1      48.930   7.490  15.276  0.00  0.00    +0.000 A 
ATOM      6  C   UNL     1      49.004   8.195  16.469  0.00  0.00    +0.000 A 
ATOM      7  S   UNL     1      49.807   9.694  16.329  0.00  0.00    +0.000 S 
ATOM      8  C   UNL     1      50.119   9.433  14.676  0.00  0.00    +0.000 A 
ATOM      9  N   UNL     1      50.825  10.337  13.946  0.00  0.00    +0.000 NA
ATOM     10  C   UNL     1      51.026   9.993  12.717  0.00  0.00    +0.000 A 
ATOM     11  N   UNL     1      50.565   8.834  12.146  0.00  0.00    +0.000 N 
ATOM     12  C   UNL     1      49.776   7.934  12.823  0.00  0.00    +0.000 A 
ATOM     13  O   UNL     1      49.256   6.989  12.245  0.00  0.00    +0.000 OA
ATOM     14  C   UNL     1      49.580   8.241  14.227  0.00  0.00    +0.000 A 
ATOM     15  H   UNL     1      50.724   8.642  11.168  0.00  0.00    +0.000 HD
ENDBRANCH   2   5
BRANCH   3  16
ATOM     16  C   UNL     1      46.473   4.827  14.237  0.00  0.00    +0.000 C 
BRANCH  16  17
ATOM     17  C   UNL     1      45.922   4.675  12.850  0.00  0.00    +0.000 A 
ATOM     18  C   UNL     1      46.029   5.701  11.910  0.00  0.00    +0.000 A 
ATOM     19  C   UNL     1      45.561   5.505  10.613  0.00  0.00    +0.000 A 
ATOM     20  C   UNL     1      44.975   4.285  10.288  0.00  0.00    +0.000 A 
ATOM     21  N   UNL     1      44.821   3.286  11.195  0.00  0.00    +0.000 NA
ATOM     22  C   UNL     1      45.287   3.506  12.447  0.00  0.00    +0.000 A 
BRANCH  20  23
ATOM     23  C   UNL     1      44.558   3.991   8.867  0.00  0.00    +0.000 C 
BRANCH  23  24
ATOM     24  C   UNL     1      45.591   3.189   8.117  0.00  0.00    +0.000 A 
ATOM     25  C   UNL     1      45.782   1.836   8.394  0.00  0.00    +0.000 A 
ATOM     26  N   UNL     1      46.721   1.081   7.772  0.00  0.00    +0.000 NA
ATOM     27  C   UNL     1      47.467   1.733   6.855  0.00  0.00    +0.000 A 
ATOM     28  C   UNL     1      47.276   3.071   6.558  0.00  0.00    +0.000 A 
ATOM     29  N   UNL     1      46.339   3.827   7.177  0.00  0.00    +0.000 NA
ENDBRANCH  23  24
ENDBRANCH  20  23
ENDBRANCH  16  17
ENDBRANCH   3  16
TORSDOF 5
ENDMDL
MODEL 5
REMARK VINA RESULT:    -7.453      1.790      3.240
REMARK INTER + INTRA:         -10.268
REMARK INTER:                  -9.594
REMARK INTRA:                  -0.674
REMARK UNBOUND:                -0.636
REMARK  Name = 
REMARK  5 active torsions:
REMARK  status: ('A' for Active; 'I' for Inactive)
REMARK    1  A    between atoms: C_2  and  C_18
REMARK    2  A    between atoms: N_3  and  C_4
REMARK    3  A    between atoms: C_4  and  C_5
REMARK    4  A    between atoms: C_8  and  C_9
REMARK    5  A    between atoms: C_9  and  C_10
REMARK                            x       y       z     vdW  Elec       q    Type
REMARK                         _______ _______ _______ _____ _____    ______ ____
ROOT
ATOM      1  O   UNL     1      47.126   3.759  14.683  0.00  0.00    +0.000 OA
ATOM      2  C   UNL     1      47.028   4.964  14.470  0.00  0.00    +0.000 C 
ATOM      3  N   UNL     1      45.881   5.533  13.983  0.00  0.00    +0.000 N 
ATOM      4  H   UNL     1      45.896   6.499  13.674  0.00  0.00    +0.000 HD
ENDROOT
BRANCH   2   5
ATOM      5  C   UNL     1      48.128   5.886  14.778  0.00  0.00    +0.000 A 
ATOM      6  C   UNL     1      48.670   5.909  16.055  0.00  0.00    +0.000 A 
ATOM      7  S   UNL     1      49.943   7.030  16.237  0.00  0.00    +0.000 S 
ATOM      8  C   UNL     1      49.839   7.496  14.603  0.00  0.00    +0.000 A 
ATOM      9  N   UNL     1      50.695   8.414  14.081  0.00  0.00    +0.000 NA
ATOM     10  C   UNL     1      50.532   8.641  12.820  0.00  0.00    +0.000 A 
ATOM     11  N   UNL     1      49.575   8.047  12.038  0.00  0.00    +0.000 N 
ATOM     12  C   UNL     1      48.636   7.178  12.541  0.00  0.00    +0.000 A 
ATOM     13  O   UNL     1      47.704   6.785  11.852  0.00  0.00    +0.000 OA
ATOM     14  C   UNL     1      48.819   6.837  13.939  0.00  0.00    +0.000 A 
ATOM     15  H   UNL     1      49.475   8.297  11.065  0.00  0.00    +0.000 HD
ENDBRANCH   2   5
BRANCH   3  16
ATOM     16  C   UNL     1      44.724   4.757  13.618  0.00  0.00    +0.000 C 
BRANCH  16  17
ATOM     17  C   UNL     1      44.643   4.536  12.137  0.00  0.00    +0.000 A 
ATOM     18  C   UNL     1      45.341   5.349  11.242  0.00  0.00    +0.000 A 
ATOM     19  C   UNL     1      45.292   5.079   9.877  0.00  0.00    +0.000 A 
ATOM     20  C   UNL     1      44.525   4.006   9.431  0.00  0.00    +0.000 A 
ATOM     21  N   UNL     1      43.803   3.226  10.276  0.00  0.00    +0.000 NA
ATOM     22  C   UNL     1      43.872   3.513  11.598  0.00  0.00    +0.000 A 
BRANCH  20  23
ATOM     23  C   UNL     1      44.536   3.611   7.974  0.00  0.00    +0.000 C 
BRANCH  23  24
ATOM     24  C   UNL     1      45.782   2.854   7.590  0.00  0.00    +0.000 A 
ATOM     25  C   UNL     1      46.748   3.439   6.774  0.00  0.00    +0.000 A 
ATOM     26  N   UNL     1      47.868   2.788   6.371  0.00  0.00    +0.000 NA
ATOM     27  C   UNL     1      47.987   1.520   6.820  0.00  0.00    +0.000 A 
ATOM     28  C   UNL     1      47.043   0.933   7.645  0.00  0.00    +0.000 A 
ATOM     29  N   UNL     1      45.925   1.581   8.048  0.00  0.00    +0.000 NA
ENDBRANCH  23  24
ENDBRANCH  20  23
ENDBRANCH  16  17
ENDBRANCH   3  16
TORSDOF 5
ENDMDL
MODEL 6
REMARK VINA RESULT:    -7.199      2.422      3.130
REMARK INTER + INTRA:          -9.939
REMARK INTER:                  -9.166
REMARK INTRA:                  -0.773
REMARK UNBOUND:                -0.636
REMARK  Name = 
REMARK  5 active torsions:
REMARK  status: ('A' for Active; 'I' for Inactive)
REMARK    1  A    between atoms: C_2  and  C_18
REMARK    2  A    between atoms: N_3  and  C_4
REMARK    3  A    between atoms: C_4  and  C_5
REMARK    4  A    between atoms: C_8  and  C_9
REMARK    5  A    between atoms: C_9  and  C_10
REMARK                            x       y       z     vdW  Elec       q    Type
REMARK                         _______ _______ _______ _____ _____    ______ ____
ROOT
ATOM      1  O   UNL     1      45.945   8.458  12.642  0.00  0.00    +0.000 OA
ATOM      2  C   UNL     1      46.862   7.679  12.884  0.00  0.00    +0.000 C 
ATOM      3  N   UNL     1      46.646   6.356  13.165  0.00  0.00    +0.000 N 
ATOM      4  H   UNL     1      47.412   5.790  13.513  0.00  0.00    +0.000 HD
ENDROOT
BRANCH   2   5
ATOM      5  C   UNL     1      48.264   8.112  12.835  0.00  0.00    +0.000 A 
ATOM      6  C   UNL     1      48.702   8.912  11.790  0.00  0.00    +0.000 A 
ATOM      7  S   UNL     1      50.353   9.328  11.892  0.00  0.00    +0.000 S 
ATOM      8  C   UNL     1      50.530   8.484  13.359  0.00  0.00    +0.000 A 
ATOM      9  N   UNL     1      51.717   8.473  14.022  0.00  0.00    +0.000 NA
ATOM     10  C   UNL     1      51.699   7.831  15.143  0.00  0.00    +0.000 A 
ATOM     11  N   UNL     1      50.604   7.181  15.652  0.00  0.00    +0.000 N 
ATOM     12  C   UNL     1      49.409   7.094  14.976  0.00  0.00    +0.000 A 
ATOM     13  O   UNL     1      48.502   6.381  15.384  0.00  0.00    +0.000 OA
ATOM     14  C   UNL     1      49.358   7.858  13.743  0.00  0.00    +0.000 A 
ATOM     15  H   UNL     1      50.666   6.664  16.517  0.00  0.00    +0.000 HD
ENDBRANCH   2   5
BRANCH   3  16
ATOM     16  C   UNL     1      45.327   5.788  13.266  0.00  0.00    +0.000 C 
BRANCH  16  17
ATOM     17  C   UNL     1      45.023   4.871  12.120  0.00  0.00    +0.000 A 
ATOM     18  C   UNL     1      44.459   5.350  10.936  0.00  0.00    +0.000 A 
ATOM     19  C   UNL     1      44.246   4.481   9.868  0.00  0.00    +0.000 A 
ATOM     20  C   UNL     1      44.586   3.140  10.016  0.00  0.00    +0.000 A 
ATOM     21  N   UNL     1      45.096   2.639  11.170  0.00  0.00    +0.000 NA
ATOM     22  C   UNL     1      45.293   3.509  12.190  0.00  0.00    +0.000 A 
BRANCH  20  23
ATOM     23  C   UNL     1      44.477   2.190   8.847  0.00  0.00    +0.000 C 
BRANCH  23  24
ATOM     24  C   UNL     1      45.699   2.217   7.965  0.00  0.00    +0.000 A 
ATOM     25  C   UNL     1      46.557   1.120   7.902  0.00  0.00    +0.000 A 
ATOM     26  N   UNL     1      47.687   1.109   7.152  0.00  0.00    +0.000 NA
ATOM     27  C   UNL     1      47.928   2.243   6.460  0.00  0.00    +0.000 A 
ATOM     28  C   UNL     1      47.075   3.332   6.500  0.00  0.00    +0.000 A 
ATOM     29  N   UNL     1      45.946   3.346   7.248  0.00  0.00    +0.000 NA
ENDBRANCH  23  24
ENDBRANCH  20  23
ENDBRANCH  16  17
ENDBRANCH   3  16
TORSDOF 5
ENDMDL
MODEL 7
REMARK VINA RESULT:    -6.988      3.250      7.961
REMARK INTER + INTRA:          -9.666
REMARK INTER:                  -8.940
REMARK INTRA:                  -0.726
REMARK UNBOUND:                -0.636
REMARK  Name = 
REMARK  5 active torsions:
REMARK  status: ('A' for Active; 'I' for Inactive)
REMARK    1  A    between atoms: C_2  and  C_18
REMARK    2  A    between atoms: N_3  and  C_4
REMARK    3  A    between atoms: C_4  and  C_5
REMARK    4  A    between atoms: C_8  and  C_9
REMARK    5  A    between atoms: C_9  and  C_10
REMARK                            x       y       z     vdW  Elec       q    Type
REMARK                         _______ _______ _______ _____ _____    ______ ____
ROOT
ATOM      1  O   UNL     1      46.150   7.870  11.500  0.00  0.00    +0.000 OA
ATOM      2  C   UNL     1      46.429   6.687  11.673  0.00  0.00    +0.000 C 
ATOM      3  N   UNL     1      47.383   6.282  12.568  0.00  0.00    +0.000 N 
ATOM      4  H   UNL     1      47.691   5.315  12.565  0.00  0.00    +0.000 HD
ENDROOT
BRANCH   2   5
ATOM      5  C   UNL     1      45.711   5.621  10.963  0.00  0.00    +0.000 A 
ATOM      6  C   UNL     1      45.829   5.510   9.585  0.00  0.00    +0.000 A 
ATOM      7  S   UNL     1      44.937   4.215   8.925  0.00  0.00    +0.000 S 
ATOM      8  C   UNL     1      44.393   3.734  10.464  0.00  0.00    +0.000 A 
ATOM      9  N   UNL     1      43.604   2.637  10.617  0.00  0.00    +0.000 NA
ATOM     10  C   UNL     1      43.301   2.362  11.842  0.00  0.00    +0.000 A 
ATOM     11  N   UNL     1      43.699   3.098  12.928  0.00  0.00    +0.000 N 
ATOM     12  C   UNL     1      44.425   4.260  12.814  0.00  0.00    +0.000 A 
ATOM     13  O   UNL     1      44.634   4.973  13.786  0.00  0.00    +0.000 OA
ATOM     14  C   UNL     1      44.850   4.575  11.463  0.00  0.00    +0.000 A 
ATOM     15  H   UNL     1      43.396   2.850  13.858  0.00  0.00    +0.000 HD
ENDBRANCH   2   5
BRANCH   3  16
ATOM     16  C   UNL     1      48.182   7.210  13.326  0.00  0.00    +0.000 C 
BRANCH  16  17
ATOM     17  C   UNL     1      48.593   6.643  14.652  0.00  0.00    +0.000 A 
ATOM     18  C   UNL     1      47.805   5.700  15.314  0.00  0.00    +0.000 A 
ATOM     19  C   UNL     1      48.245   5.148  16.514  0.00  0.00    +0.000 A 
ATOM     20  C   UNL     1      49.463   5.568  17.040  0.00  0.00    +0.000 A 
ATOM     21  N   UNL     1      50.229   6.515  16.438  0.00  0.00    +0.000 NA
ATOM     22  C   UNL     1      49.774   7.031  15.271  0.00  0.00    +0.000 A 
BRANCH  20  23
ATOM     23  C   UNL     1      50.029   4.914  18.277  0.00  0.00    +0.000 C 
BRANCH  23  24
ATOM     24  C   UNL     1      50.785   3.647  17.966  0.00  0.00    +0.000 A 
ATOM     25  C   UNL     1      50.155   2.579  17.329  0.00  0.00    +0.000 A 
ATOM     26  N   UNL     1      50.781   1.407  17.060  0.00  0.00    +0.000 NA
ATOM     27  C   UNL     1      52.070   1.341  17.454  0.00  0.00    +0.000 A 
ATOM     28  C   UNL     1      52.713   2.400  18.072  0.00  0.00    +0.000 A 
ATOM     29  N   UNL     1      52.091   3.572  18.341  0.00  0.00    +0.000 NA
ENDBRANCH  23  24
ENDBRANCH  20  23
ENDBRANCH  16  17
ENDBRANCH   3  16
TORSDOF 5
ENDMDL
MODEL 8
REMARK VINA RESULT:    -6.634      3.972      8.726
REMARK INTER + INTRA:          -9.209
REMARK INTER:                  -8.415
REMARK INTRA:                  -0.794
REMARK UNBOUND:                -0.636
REMARK  Name = 
REMARK  5 active torsions:
REMARK  status: ('A' for Active; 'I' for Inactive)
REMARK    1  A    between atoms: C_2  and  C_18
REMARK    2  A    between atoms: N_3  and  C_4
REMARK    3  A    between atoms: C_4  and  C_5
REMARK    4  A    between atoms: C_8  and  C_9
REMARK    5  A    between atoms: C_9  and  C_10
REMARK                            x       y       z     vdW  Elec       q    Type
REMARK                         _______ _______ _______ _____ _____    ______ ____
ROOT
ATOM      1  O   UNL     1      47.419   3.228  13.994  0.00  0.00    +0.000 OA
ATOM      2  C   UNL     1      46.866   4.212  14.476  0.00  0.00    +0.000 C 
ATOM      3  N   UNL     1      46.720   4.384  15.827  0.00  0.00    +0.000 N 
ATOM      4  H   UNL     1      46.122   5.126  16.173  0.00  0.00    +0.000 HD
ENDROOT
BRANCH   2   5
ATOM      5  C   UNL     1      46.369   5.302  13.626  0.00  0.00    +0.000 A 
ATOM      6  C   UNL     1      47.166   6.413  13.394  0.00  0.00    +0.000 A 
ATOM      7  S   UNL     1      46.439   7.576  12.380  0.00  0.00    +0.000 S 
ATOM      8  C   UNL     1      45.048   6.616  12.186  0.00  0.00    +0.000 A 
ATOM      9  N   UNL     1      44.025   7.019  11.385  0.00  0.00    +0.000 NA
ATOM     10  C   UNL     1      43.053   6.174  11.293  0.00  0.00    +0.000 A 
ATOM     11  N   UNL     1      43.000   4.970  11.948  0.00  0.00    +0.000 N 
ATOM     12  C   UNL     1      43.970   4.562  12.833  0.00  0.00    +0.000 A 
ATOM     13  O   UNL     1      43.821   3.557  13.515  0.00  0.00    +0.000 OA
ATOM     14  C   UNL     1      45.118   5.444  12.918  0.00  0.00    +0.000 A 
ATOM     15  H   UNL     1      42.192   4.371  11.864  0.00  0.00    +0.000 HD
ENDBRANCH   2   5
BRANCH   3  16
ATOM     16  C   UNL     1      47.142   3.396  16.786  0.00  0.00    +0.000 C 
BRANCH  16  17
ATOM     17  C   UNL     1      48.518   3.677  17.312  0.00  0.00    +0.000 A 
ATOM     18  C   UNL     1      48.818   4.880  17.952  0.00  0.00    +0.000 A 
ATOM     19  C   UNL     1      50.089   5.085  18.483  0.00  0.00    +0.000 A 
ATOM     20  C   UNL     1      51.044   4.082  18.344  0.00  0.00    +0.000 A 
ATOM     21  N   UNL     1      50.791   2.920  17.689  0.00  0.00    +0.000 NA
ATOM     22  C   UNL     1      49.545   2.750  17.186  0.00  0.00    +0.000 A 
BRANCH  20  23
ATOM     23  C   UNL     1      52.396   4.217  19.002  0.00  0.00    +0.000 C 
BRANCH  23  24
ATOM     24  C   UNL     1      53.507   4.420  18.004  0.00  0.00    +0.000 A 
ATOM     25  C   UNL     1      53.557   5.570  17.217  0.00  0.00    +0.000 A 
ATOM     26  N   UNL     1      54.514   5.784  16.281  0.00  0.00    +0.000 NA
ATOM     27  C   UNL     1      55.428   4.798  16.159  0.00  0.00    +0.000 A 
ATOM     28  C   UNL     1      55.400   3.659  16.945  0.00  0.00    +0.000 A 
ATOM     29  N   UNL     1      54.446   3.443  17.881  0.00  0.00    +0.000 NA
ENDBRANCH  23  24
ENDBRANCH  20  23
ENDBRANCH  16  17
ENDBRANCH   3  16
TORSDOF 5
ENDMDL
MODEL 9
REMARK VINA RESULT:    -6.509      2.456      3.256
REMARK INTER + INTRA:          -9.048
REMARK INTER:                  -8.454
REMARK INTRA:                  -0.594
REMARK UNBOUND:                -0.636
REMARK  Name = 
REMARK  5 active torsions:
REMARK  status: ('A' for Active; 'I' for Inactive)
REMARK    1  A    between atoms: C_2  and  C_18
REMARK    2  A    between atoms: N_3  and  C_4
REMARK    3  A    between atoms: C_4  and  C_5
REMARK    4  A    between atoms: C_8  and  C_9
REMARK    5  A    between atoms: C_9  and  C_10
REMARK                            x       y       z     vdW  Elec       q    Type
REMARK                         _______ _______ _______ _____ _____    ______ ____
ROOT
ATOM      1  O   UNL     1      49.613   8.215  15.592  0.00  0.00    +0.000 OA
ATOM      2  C   UNL     1      48.875   7.262  15.827  0.00  0.00    +0.000 C 
ATOM      3  N   UNL     1      47.899   6.858  14.956  0.00  0.00    +0.000 N 
ATOM      4  H   UNL     1      47.215   6.173  15.258  0.00  0.00    +0.000 HD
ENDROOT
BRANCH   2   5
ATOM      5  C   UNL     1      49.032   6.457  17.045  0.00  0.00    +0.000 A 
ATOM      6  C   UNL     1      49.184   5.082  16.947  0.00  0.00    +0.000 A 
ATOM      7  S   UNL     1      49.362   4.305  18.455  0.00  0.00    +0.000 S 
ATOM      8  C   UNL     1      49.280   5.786  19.289  0.00  0.00    +0.000 A 
ATOM      9  N   UNL     1      49.410   5.836  20.642  0.00  0.00    +0.000 NA
ATOM     10  C   UNL     1      49.373   7.028  21.139  0.00  0.00    +0.000 A 
ATOM     11  N   UNL     1      49.195   8.174  20.407  0.00  0.00    +0.000 N 
ATOM     12  C   UNL     1      48.975   8.163  19.050  0.00  0.00    +0.000 A 
ATOM     13  O   UNL     1      48.669   9.185  18.451  0.00  0.00    +0.000 OA
ATOM     14  C   UNL     1      49.077   6.854  18.433  0.00  0.00    +0.000 A 
ATOM     15  H   UNL     1      49.137   9.073  20.862  0.00  0.00    +0.000 HD
ENDBRANCH   2   5
BRANCH   3  16
ATOM     16  C   UNL     1      47.614   7.557  13.729  0.00  0.00    +0.000 C 
BRANCH  16  17
ATOM     17  C   UNL     1      46.626   6.815  12.879  0.00  0.00    +0.000 A 
ATOM     18  C   UNL     1      45.759   7.490  12.019  0.00  0.00    +0.000 A 
ATOM     19  C   UNL     1      44.896   6.768  11.198  0.00  0.00    +0.000 A 
ATOM     20  C   UNL     1      44.906   5.379  11.270  0.00  0.00    +0.000 A 
ATOM     21  N   UNL     1      45.709   4.699  12.128  0.00  0.00    +0.000 NA
ATOM     22  C   UNL     1      46.538   5.429  12.912  0.00  0.00    +0.000 A 
BRANCH  20  23
ATOM     23  C   UNL     1      44.069   4.557  10.319  0.00  0.00    +0.000 C 
BRANCH  23  24
ATOM     24  C   UNL     1      44.906   3.787   9.330  0.00  0.00    +0.000 A 
ATOM     25  C   UNL     1      44.899   2.393   9.323  0.00  0.00    +0.000 A 
ATOM     26  N   UNL     1      45.661   1.655   8.479  0.00  0.00    +0.000 NA
ATOM     27  C   UNL     1      46.435   2.367   7.633  0.00  0.00    +0.000 A 
ATOM     28  C   UNL     1      46.440   3.751   7.618  0.00  0.00    +0.000 A 
ATOM     29  N   UNL     1      45.680   4.491   8.461  0.00  0.00    +0.000 NA
ENDBRANCH  23  24
ENDBRANCH  20  23
ENDBRANCH  16  17
ENDBRANCH   3  16
TORSDOF 5
ENDMDL
