MODEL 1
REMARK VINA RESULT:    -7.570      0.000      0.000
REMARK INTER + INTRA:         -11.790
REMARK INTER:                 -10.668
REMARK INTRA:                  -1.123
REMARK UNBOUND:                -1.123
REMARK  Name = 
REMARK  9 active torsions:
REMARK  status: ('A' for Active; 'I' for Inactive)
REMARK    1  A    between atoms: C_1  and  C_2
REMARK    2  A    between atoms: C_7  and  C_8
REMARK    3  A    between atoms: N_10  and  C_11
REMARK    4  A    between atoms: C_11  and  C_12
REMARK    5  A    between atoms: C_15  and  C_16
REMARK    6  A    between atoms: C_16  and  N_17
REMARK    7  A    between atoms: N_17  and  C_18
REMARK    8  A    between atoms: C_18  and  C_19
REMARK    9  A    between atoms: C_18  and  C_20
REMARK                            x       y       z     vdW  Elec       q    Type
REMARK                         _______ _______ _______ _____ _____    ______ ____
ROOT
ATOM      1  C   UNL     1      48.470   6.624  13.836  0.00  0.00    +0.000 C 
ENDROOT
BRANCH   1   2
ATOM      2  C   UNL     1      47.294   6.173  13.004  0.00  0.00    +0.000 A 
ATOM      3  C   UNL     1      46.430   5.167  13.461  0.00  0.00    +0.000 A 
ATOM      4  C   UNL     1      45.335   4.763  12.687  0.00  0.00    +0.000 A 
ATOM      5  C   UNL     1      45.084   5.352  11.439  0.00  0.00    +0.000 A 
ATOM      6  C   UNL     1      45.960   6.341  10.977  0.00  0.00    +0.000 A 
ATOM      7  C   UNL     1      47.055   6.742  11.747  0.00  0.00    +0.000 A 
BRANCH   5   8
ATOM      8  C   UNL     1      43.928   4.906  10.574  0.00  0.00    +0.000 C 
BRANCH   8   9
ATOM      9  N   UNL     1      44.383   4.397   9.281  0.00  0.00    +0.000 NA
ATOM     10  H   UNL     1      45.026   5.089   8.887  0.00  0.00    +0.000 HD
BRANCH   9  11
ATOM     11  C   UNL     1      45.120   3.122   9.394  0.00  0.00    +0.000 C 
ATOM     12  C   UNL     1      44.208   1.931   9.721  0.00  0.00    +0.000 C 
BRANCH  11  13
ATOM     13  C   UNL     1      45.896   2.830   8.117  0.00  0.00    +0.000 A 
ATOM     14  C   UNL     1      46.477   1.581   7.897  0.00  0.00    +0.000 A 
ATOM     15  N   UNL     1      47.188   1.279   6.783  0.00  0.00    +0.000 NA
ATOM     16  C   UNL     1      47.289   2.278   5.881  0.00  0.00    +0.000 A 
ATOM     17  C   UNL     1      46.712   3.520   6.081  0.00  0.00    +0.000 A 
ATOM     18  N   UNL     1      46.007   3.825   7.196  0.00  0.00    +0.000 NA
ENDBRANCH  11  13
ENDBRANCH   9  11
ENDBRANCH   8   9
ENDBRANCH   5   8
ENDBRANCH   1   2
BRANCH   1  21
ATOM     19  C   UNL     1      49.043   6.475  16.226  0.00  0.00    +0.000 C 
ATOM     20  O   UNL     1      50.192   6.128  15.962  0.00  0.00    +0.000 OA
ATOM     21  N   UNL     1      48.131   6.739  15.236  0.00  0.00    +0.000 N 
ATOM     22  H   UNL     1      47.181   7.018  15.460  0.00  0.00    +0.000 HD
BRANCH  19  29
ATOM     23  C   UNL     1      46.590  10.616  21.119  0.00  0.00    +0.000 C 
ATOM     24  C   UNL     1      47.120   9.548  20.208  0.00  0.00    +0.000 A 
ATOM     25  N   UNL     1      47.301   8.334  20.620  0.00  0.00    +0.000 NA
ATOM     26  C   UNL     1      47.787   7.478  19.678  0.00  0.00    +0.000 A 
ATOM     27  S   UNL     1      48.084   5.847  20.056  0.00  0.00    +0.000 S 
ATOM     28  C   UNL     1      48.624   5.521  18.471  0.00  0.00    +0.000 A 
ATOM     29  C   UNL     1      48.596   6.625  17.625  0.00  0.00    +0.000 A 
ATOM     30  C   UNL     1      48.095   7.769  18.359  0.00  0.00    +0.000 A 
ATOM     31  C   UNL     1      47.868   9.140  17.945  0.00  0.00    +0.000 A 
ATOM     32  O   UNL     1      48.074   9.568  16.812  0.00  0.00    +0.000 OA
ATOM     33  N   UNL     1      47.387   9.968  18.929  0.00  0.00    +0.000 N 
ATOM     34  H   UNL     1      47.225  10.927  18.650  0.00  0.00    +0.000 HD
ENDBRANCH  19  29
ENDBRANCH   1  21
TORSDOF 7
ENDMDL
MODEL 2
REMARK VINA RESULT:    -7.173      2.123      3.042
REMARK INTER + INTRA:         -11.232
REMARK INTER:                 -10.568
REMARK INTRA:                  -0.663
REMARK UNBOUND:                -1.123
REMARK  Name = 
REMARK  9 active torsions:
REMARK  status: ('A' for Active; 'I' for Inactive)
REMARK    1  A    between atoms: C_1  and  C_2
REMARK    2  A    between atoms: C_7  and  C_8
REMARK    3  A    between atoms: N_10  and  C_11
REMARK    4  A    between atoms: C_11  and  C_12
REMARK    5  A    between atoms: C_15  and  C_16
REMARK    6  A    between atoms: C_16  and  N_17
REMARK    7  A    between atoms: N_17  and  C_18
REMARK    8  A    between atoms: C_18  and  C_19
REMARK    9  A    between atoms: C_18  and  C_20
REMARK                            x       y       z     vdW  Elec       q    Type
REMARK                         _______ _______ _______ _____ _____    ______ ____
ROOT
ATOM      1  C   UNL     1      46.378   8.743  12.813  0.00  0.00    +0.000 C 
ENDROOT
BRANCH   1   2
ATOM      2  C   UNL     1      45.760   7.413  12.456  0.00  0.00    +0.000 A 
ATOM      3  C   UNL     1      44.439   7.332  11.989  0.00  0.00    +0.000 A 
ATOM      4  C   UNL     1      43.878   6.095  11.649  0.00  0.00    +0.000 A 
ATOM      5  C   UNL     1      44.623   4.913  11.774  0.00  0.00    +0.000 A 
ATOM      6  C   UNL     1      45.933   4.995  12.260  0.00  0.00    +0.000 A 
ATOM      7  C   UNL     1      46.492   6.229  12.602  0.00  0.00    +0.000 A 
BRANCH   5   8
ATOM      8  C   UNL     1      44.024   3.564  11.446  0.00  0.00    +0.000 C 
BRANCH   8   9
ATOM      9  N   UNL     1      44.924   2.757  10.624  0.00  0.00    +0.000 NA
ATOM     10  H   UNL     1      44.833   1.785  10.931  0.00  0.00    +0.000 HD
BRANCH   9  11
ATOM     11  C   UNL     1      44.584   2.802   9.187  0.00  0.00    +0.000 C 
ATOM     12  C   UNL     1      44.163   4.200   8.716  0.00  0.00    +0.000 C 
BRANCH  11  13
ATOM     13  C   UNL     1      45.749   2.310   8.339  0.00  0.00    +0.000 A 
ATOM     14  C   UNL     1      46.509   3.196   7.577  0.00  0.00    +0.000 A 
ATOM     15  N   UNL     1      47.546   2.803   6.796  0.00  0.00    +0.000 NA
ATOM     16  C   UNL     1      47.805   1.479   6.814  0.00  0.00    +0.000 A 
ATOM     17  C   UNL     1      47.064   0.588   7.571  0.00  0.00    +0.000 A 
ATOM     18  N   UNL     1      46.025   0.978   8.345  0.00  0.00    +0.000 NA
ENDBRANCH  11  13
ENDBRANCH   9  11
ENDBRANCH   8   9
ENDBRANCH   5   8
ENDBRANCH   1   2
BRANCH   1  21
ATOM     19  C   UNL     1      48.189   8.615  14.476  0.00  0.00    +0.000 C 
ATOM     20  O   UNL     1      49.030   8.451  13.595  0.00  0.00    +0.000 OA
ATOM     21  N   UNL     1      46.860   8.768  14.175  0.00  0.00    +0.000 N 
ATOM     22  H   UNL     1      46.169   8.897  14.907  0.00  0.00    +0.000 HD
BRANCH  19  29
ATOM     23  C   UNL     1      49.957   5.128  20.117  0.00  0.00    +0.000 C 
ATOM     24  C   UNL     1      49.594   6.076  19.012  0.00  0.00    +0.000 A 
ATOM     25  N   UNL     1      49.561   7.357  19.202  0.00  0.00    +0.000 NA
ATOM     26  C   UNL     1      49.215   8.087  18.105  0.00  0.00    +0.000 A 
ATOM     27  S   UNL     1      49.122   9.783  18.184  0.00  0.00    +0.000 S 
ATOM     28  C   UNL     1      48.670   9.889  16.543  0.00  0.00    +0.000 A 
ATOM     29  C   UNL     1      48.577   8.659  15.900  0.00  0.00    +0.000 A 
ATOM     30  C   UNL     1      48.906   7.608  16.842  0.00  0.00    +0.000 A 
ATOM     31  C   UNL     1      48.964   6.169  16.680  0.00  0.00    +0.000 A 
ATOM     32  O   UNL     1      48.734   5.578  15.628  0.00  0.00    +0.000 OA
ATOM     33  N   UNL     1      49.308   5.474  17.813  0.00  0.00    +0.000 N 
ATOM     34  H   UNL     1      49.352   4.468  17.710  0.00  0.00    +0.000 HD
ENDBRANCH  19  29
ENDBRANCH   1  21
TORSDOF 7
ENDMDL
MODEL 3
REMARK VINA RESULT:    -7.103      2.102      3.320
REMARK INTER + INTRA:         -11.132
REMARK INTER:                 -10.038
REMARK INTRA:                  -1.094
REMARK UNBOUND:                -1.123
REMARK  Name = 
REMARK  9 active torsions:
REMARK  status: ('A' for Active; 'I' for Inactive)
REMARK    1  A    between atoms: C_1  and  C_2
REMARK    2  A    between atoms: C_7  and  C_8
REMARK    3  A    between atoms: N_10  and  C_11
REMARK    4  A    between atoms: C_11  and  C_12
REMARK    5  A    between atoms: C_15  and  C_16
REMARK    6  A    between atoms: C_16  and  N_17
REMARK    7  A    between atoms: N_17  and  C_18
REMARK    8  A    between atoms: C_18  and  C_19
REMARK    9  A    between atoms: C_18  and  C_20
REMARK                            x       y       z     vdW  Elec       q    Type
REMARK                         _______ _______ _______ _____ _____    ______ ____
ROOT
ATOM      1  C   UNL     1      48.827   7.171  14.056  0.00  0.00    +0.000 C 
ENDROOT
BRANCH   1   2
ATOM      2  C   UNL     1      47.725   6.375  13.400  0.00  0.00    +0.000 A 
ATOM      3  C   UNL     1      47.142   6.802  12.198  0.00  0.00    +0.000 A 
ATOM      4  C   UNL     1      46.128   6.050  11.591  0.00  0.00    +0.000 A 
ATOM      5  C   UNL     1      45.672   4.859  12.177  0.00  0.00    +0.000 A 
ATOM      6  C   UNL     1      46.242   4.447  13.387  0.00  0.00    +0.000 A 
ATOM      7  C   UNL     1      47.250   5.199  13.995  0.00  0.00    +0.000 A 
BRANCH   5   8
ATOM      8  C   UNL     1      44.555   4.052  11.556  0.00  0.00    +0.000 C 
BRANCH   8   9
ATOM      9  N   UNL     1      45.067   2.908  10.803  0.00  0.00    +0.000 NA
ATOM     10  H   UNL     1      44.718   2.059  11.257  0.00  0.00    +0.000 HD
BRANCH   9  11
ATOM     11  C   UNL     1      44.595   2.886   9.403  0.00  0.00    +0.000 C 
ATOM     12  C   UNL     1      44.097   4.254   8.919  0.00  0.00    +0.000 C 
BRANCH  11  13
ATOM     13  C   UNL     1      45.690   2.385   8.471  0.00  0.00    +0.000 A 
ATOM     14  C   UNL     1      46.402   3.267   7.657  0.00  0.00    +0.000 A 
ATOM     15  N   UNL     1      47.374   2.866   6.802  0.00  0.00    +0.000 NA
ATOM     16  C   UNL     1      47.620   1.539   6.797  0.00  0.00    +0.000 A 
ATOM     17  C   UNL     1      46.928   0.653   7.604  0.00  0.00    +0.000 A 
ATOM     18  N   UNL     1      45.952   1.050   8.453  0.00  0.00    +0.000 NA
ENDBRANCH  11  13
ENDBRANCH   9  11
ENDBRANCH   8   9
ENDBRANCH   5   8
ENDBRANCH   1   2
BRANCH   1  21
ATOM     19  C   UNL     1      48.791   7.618  16.477  0.00  0.00    +0.000 C 
ATOM     20  O   UNL     1      48.369   8.757  16.293  0.00  0.00    +0.000 OA
ATOM     21  N   UNL     1      49.042   6.771  15.428  0.00  0.00    +0.000 N 
ATOM     22  H   UNL     1      49.397   5.833  15.585  0.00  0.00    +0.000 HD
BRANCH  19  29
ATOM     23  C   UNL     1      52.939   4.142  20.699  0.00  0.00    +0.000 C 
ATOM     24  C   UNL     1      51.898   4.929  19.958  0.00  0.00    +0.000 A 
ATOM     25  N   UNL     1      50.831   5.367  20.548  0.00  0.00    +0.000 NA
ATOM     26  C   UNL     1      49.981   6.064  19.744  0.00  0.00    +0.000 A 
ATOM     27  S   UNL     1      48.533   6.706  20.361  0.00  0.00    +0.000 S 
ATOM     28  C   UNL     1      48.111   7.358  18.843  0.00  0.00    +0.000 A 
ATOM     29  C   UNL     1      49.042   7.109  17.841  0.00  0.00    +0.000 A 
ATOM     30  C   UNL     1      50.141   6.345  18.397  0.00  0.00    +0.000 A 
ATOM     31  C   UNL     1      51.353   5.838  17.785  0.00  0.00    +0.000 A 
ATOM     32  O   UNL     1      51.661   6.006  16.607  0.00  0.00    +0.000 OA
ATOM     33  N   UNL     1      52.176   5.135  18.630  0.00  0.00    +0.000 N 
ATOM     34  H   UNL     1      53.025   4.777  18.213  0.00  0.00    +0.000 HD
ENDBRANCH  19  29
ENDBRANCH   1  21
TORSDOF 7
ENDMDL
MODEL 4
REMARK VINA RESULT:    -7.059      1.701      2.107
REMARK INTER + INTRA:         -11.070
REMARK INTER:                 -10.206
REMARK INTRA:                  -0.864
REMARK UNBOUND:                -1.123
REMARK  Name = 
REMARK  9 active torsions:
REMARK  status: ('A' for Active; 'I' for Inactive)
REMARK    1  A    between atoms: C_1  and  C_2
REMARK    2  A    between atoms: C_7  and  C_8
REMARK    3  A    between atoms: N_10  and  C_11
REMARK    4  A    between atoms: C_11  and  C_12
REMARK    5  A    between atoms: C_15  and  C_16
REMARK    6  A    between atoms: C_16  and  N_17
REMARK    7  A    between atoms: N_17  and  C_18
REMARK    8  A    between atoms: C_18  and  C_19
REMARK    9  A    between atoms: C_18  and  C_20
REMARK                            x       y       z     vdW  Elec       q    Type
REMARK                         _______ _______ _______ _____ _____    ______ ____
ROOT
ATOM      1  C   UNL     1      47.855   5.268  14.394  0.00  0.00    +0.000 C 
ENDROOT
BRANCH   1   2
ATOM      2  C   UNL     1      46.856   5.095  13.276  0.00  0.00    +0.000 A 
ATOM      3  C   UNL     1      46.002   3.983  13.235  0.00  0.00    +0.000 A 
ATOM      4  C   UNL     1      45.071   3.837  12.200  0.00  0.00    +0.000 A 
ATOM      5  C   UNL     1      44.977   4.797  11.181  0.00  0.00    +0.000 A 
ATOM      6  C   UNL     1      45.844   5.895  11.214  0.00  0.00    +0.000 A 
ATOM      7  C   UNL     1      46.777   6.039  12.244  0.00  0.00    +0.000 A 
BRANCH   5   8
ATOM      8  C   UNL     1      44.003   4.641  10.036  0.00  0.00    +0.000 C 
BRANCH   8   9
ATOM      9  N   UNL     1      44.679   4.267   8.795  0.00  0.00    +0.000 NA
ATOM     10  H   UNL     1      45.402   4.969   8.615  0.00  0.00    +0.000 HD
BRANCH   9  11
ATOM     11  C   UNL     1      45.349   2.954   8.881  0.00  0.00    +0.000 C 
ATOM     12  C   UNL     1      44.363   1.789   9.046  0.00  0.00    +0.000 C 
BRANCH  11  13
ATOM     13  C   UNL     1      46.221   2.710   7.657  0.00  0.00    +0.000 A 
ATOM     14  C   UNL     1      47.066   1.602   7.584  0.00  0.00    +0.000 A 
ATOM     15  N   UNL     1      47.871   1.352   6.522  0.00  0.00    +0.000 NA
ATOM     16  C   UNL     1      47.791   2.251   5.519  0.00  0.00    +0.000 A 
ATOM     17  C   UNL     1      46.952   3.351   5.574  0.00  0.00    +0.000 A 
ATOM     18  N   UNL     1      46.154   3.606   6.636  0.00  0.00    +0.000 NA
ENDBRANCH  11  13
ENDBRANCH   9  11
ENDBRANCH   8   9
ENDBRANCH   5   8
ENDBRANCH   1   2
BRANCH   1  21
ATOM     19  C   UNL     1      48.946   7.186  15.487  0.00  0.00    +0.000 C 
ATOM     20  O   UNL     1      50.020   6.591  15.531  0.00  0.00    +0.000 OA
ATOM     21  N   UNL     1      47.829   6.605  14.942  0.00  0.00    +0.000 N 
ATOM     22  H   UNL     1      46.943   7.099  14.913  0.00  0.00    +0.000 HD
BRANCH  19  29
ATOM     23  C   UNL     1      46.967  11.242  20.658  0.00  0.00    +0.000 C 
ATOM     24  C   UNL     1      47.460  10.548  19.422  0.00  0.00    +0.000 A 
ATOM     25  N   UNL     1      47.944  11.210  18.420  0.00  0.00    +0.000 NA
ATOM     26  C   UNL     1      48.350  10.441  17.372  0.00  0.00    +0.000 A 
ATOM     27  S   UNL     1      49.009  11.153  15.976  0.00  0.00    +0.000 S 
ATOM     28  C   UNL     1      49.229   9.633  15.236  0.00  0.00    +0.000 A 
ATOM     29  C   UNL     1      48.813   8.558  16.016  0.00  0.00    +0.000 A 
ATOM     30  C   UNL     1      48.300   9.060  17.275  0.00  0.00    +0.000 A 
ATOM     31  C   UNL     1      47.755   8.365  18.425  0.00  0.00    +0.000 A 
ATOM     32  O   UNL     1      47.649   7.144  18.514  0.00  0.00    +0.000 OA
ATOM     33  N   UNL     1      47.351   9.180  19.454  0.00  0.00    +0.000 N 
ATOM     34  H   UNL     1      46.970   8.705  20.261  0.00  0.00    +0.000 HD
ENDBRANCH  19  29
ENDBRANCH   1  21
TORSDOF 7
ENDMDL
MODEL 5
REMARK VINA RESULT:    -6.788      3.722      5.634
REMARK INTER + INTRA:         -10.689
REMARK INTER:                  -9.624
REMARK INTRA:                  -1.064
REMARK UNBOUND:                -1.123
REMARK  Name = 
REMARK  9 active torsions:
REMARK  status: ('A' for Active; 'I' for Inactive)
REMARK    1  A    between atoms: C_1  and  C_2
REMARK    2  A    between atoms: C_7  and  C_8
REMARK    3  A    between atoms: N_10  and  C_11
REMARK    4  A    between atoms: C_11  and  C_12
REMARK    5  A    between atoms: C_15  and  C_16
REMARK    6  A    between atoms: C_16  and  N_17
REMARK    7  A    between atoms: N_17  and  C_18
REMARK    8  A    between atoms: C_18  and  C_19
REMARK    9  A    between atoms: C_18  and  C_20
REMARK                            x       y       z     vdW  Elec       q    Type
REMARK                         _______ _______ _______ _____ _____    ______ ____
ROOT
ATOM      1  C   UNL     1      49.573   6.981  16.709  0.00  0.00    +0.000 C 
ENDROOT
BRANCH   1   2
ATOM      2  C   UNL     1      48.635   6.258  15.772  0.00  0.00    +0.000 A 
ATOM      3  C   UNL     1      48.383   6.750  14.483  0.00  0.00    +0.000 A 
ATOM      4  C   UNL     1      47.521   6.066  13.616  0.00  0.00    +0.000 A 
ATOM      5  C   UNL     1      46.890   4.881  14.022  0.00  0.00    +0.000 A 
ATOM      6  C   UNL     1      47.129   4.405  15.316  0.00  0.00    +0.000 A 
ATOM      7  C   UNL     1      47.985   5.088  16.182  0.00  0.00    +0.000 A 
BRANCH   5   8
ATOM      8  C   UNL     1      45.930   4.147  13.114  0.00  0.00    +0.000 C 
BRANCH   8   9
ATOM      9  N   UNL     1      45.006   5.063  12.448  0.00  0.00    +0.000 NA
ATOM     10  H   UNL     1      45.554   5.637  11.801  0.00  0.00    +0.000 HD
BRANCH   9  11
ATOM     11  C   UNL     1      43.977   4.362  11.653  0.00  0.00    +0.000 C 
ATOM     12  C   UNL     1      42.720   5.212  11.418  0.00  0.00    +0.000 C 
BRANCH  11  13
ATOM     13  C   UNL     1      44.542   3.912  10.312  0.00  0.00    +0.000 A 
ATOM     14  C   UNL     1      45.178   4.814   9.459  0.00  0.00    +0.000 A 
ATOM     15  N   UNL     1      45.684   4.462   8.252  0.00  0.00    +0.000 NA
ATOM     16  C   UNL     1      45.540   3.160   7.928  0.00  0.00    +0.000 A 
ATOM     17  C   UNL     1      44.918   2.252   8.767  0.00  0.00    +0.000 A 
ATOM     18  N   UNL     1      44.407   2.602   9.970  0.00  0.00    +0.000 NA
ENDBRANCH  11  13
ENDBRANCH   9  11
ENDBRANCH   8   9
ENDBRANCH   5   8
ENDBRANCH   1   2
BRANCH   1  21
ATOM     19  C   UNL     1      50.721   5.763  18.516  0.00  0.00    +0.000 C 
ATOM     20  O   UNL     1      49.910   6.166  19.346  0.00  0.00    +0.000 OA
ATOM     21  N   UNL     1      50.626   6.118  17.194  0.00  0.00    +0.000 N 
ATOM     22  H   UNL     1      51.302   5.788  16.513  0.00  0.00    +0.000 HD
BRANCH  19  29
ATOM     23  C   UNL     1      53.762  -0.355  17.859  0.00  0.00    +0.000 C 
ATOM     24  C   UNL     1      53.266   1.032  18.147  0.00  0.00    +0.000 A 
ATOM     25  N   UNL     1      53.886   1.817  18.970  0.00  0.00    +0.000 NA
ATOM     26  C   UNL     1      53.315   3.043  19.128  0.00  0.00    +0.000 A 
ATOM     27  S   UNL     1      54.003   4.194  20.173  0.00  0.00    +0.000 S 
ATOM     28  C   UNL     1      52.783   5.330  19.815  0.00  0.00    +0.000 A 
ATOM     29  C   UNL     1      51.833   4.874  18.906  0.00  0.00    +0.000 A 
ATOM     30  C   UNL     1      52.169   3.521  18.511  0.00  0.00    +0.000 A 
ATOM     31  C   UNL     1      51.516   2.606  17.596  0.00  0.00    +0.000 A 
ATOM     32  O   UNL     1      50.501   2.870  16.956  0.00  0.00    +0.000 OA
ATOM     33  N   UNL     1      52.121   1.380  17.475  0.00  0.00    +0.000 N 
ATOM     34  H   UNL     1      51.673   0.735  16.837  0.00  0.00    +0.000 HD
ENDBRANCH  19  29
ENDBRANCH   1  21
TORSDOF 7
ENDMDL
MODEL 6
REMARK VINA RESULT:    -6.671      5.279      8.474
REMARK INTER + INTRA:         -10.524
REMARK INTER:                  -9.446
REMARK INTRA:                  -1.078
REMARK UNBOUND:                -1.123
REMARK  Name = 
REMARK  9 active torsions:
REMARK  status: ('A' for Active; 'I' for Inactive)
REMARK    1  A    between atoms: C_1  and  C_2
REMARK    2  A    between atoms: C_7  and  C_8
REMARK    3  A    between atoms: N_10  and  C_11
REMARK    4  A    between atoms: C_11  and  C_12
REMARK    5  A    between atoms: C_15  and  C_16
REMARK    6  A    between atoms: C_16  and  N_17
REMARK    7  A    between atoms: N_17  and  C_18
REMARK    8  A    between atoms: C_18  and  C_19
REMARK    9  A    between atoms: C_18  and  C_20
REMARK                            x       y       z     vdW  Elec       q    Type
REMARK                         _______ _______ _______ _____ _____    ______ ____
ROOT
ATOM      1  C   UNL     1      50.292   8.579  11.498  0.00  0.00    +0.000 C 
ENDROOT
BRANCH   1   2
ATOM      2  C   UNL     1      49.003   7.915  11.918  0.00  0.00    +0.000 A 
ATOM      3  C   UNL     1      47.769   8.559  11.746  0.00  0.00    +0.000 A 
ATOM      4  C   UNL     1      46.578   7.930  12.129  0.00  0.00    +0.000 A 
ATOM      5  C   UNL     1      46.596   6.646  12.696  0.00  0.00    +0.000 A 
ATOM      6  C   UNL     1      47.831   6.016  12.885  0.00  0.00    +0.000 A 
ATOM      7  C   UNL     1      49.020   6.644  12.507  0.00  0.00    +0.000 A 
BRANCH   5   8
ATOM      8  C   UNL     1      45.325   5.965  13.147  0.00  0.00    +0.000 C 
BRANCH   8   9
ATOM      9  N   UNL     1      45.288   4.561  12.740  0.00  0.00    +0.000 NA
ATOM     10  H   UNL     1      45.140   4.000  13.582  0.00  0.00    +0.000 HD
BRANCH   9  11
ATOM     11  C   UNL     1      44.180   4.263  11.809  0.00  0.00    +0.000 C 
ATOM     12  C   UNL     1      43.159   5.405  11.710  0.00  0.00    +0.000 C 
BRANCH  11  13
ATOM     13  C   UNL     1      44.713   3.938  10.420  0.00  0.00    +0.000 A 
ATOM     14  C   UNL     1      45.295   4.924   9.623  0.00  0.00    +0.000 A 
ATOM     15  N   UNL     1      45.770   4.685   8.376  0.00  0.00    +0.000 NA
ATOM     16  C   UNL     1      45.651   3.409   7.953  0.00  0.00    +0.000 A 
ATOM     17  C   UNL     1      45.083   2.418   8.735  0.00  0.00    +0.000 A 
ATOM     18  N   UNL     1      44.602   2.656   9.978  0.00  0.00    +0.000 NA
ENDBRANCH  11  13
ENDBRANCH   9  11
ENDBRANCH   8   9
ENDBRANCH   5   8
ENDBRANCH   1   2
BRANCH   1  21
ATOM     19  C   UNL     1      52.322   7.911  10.275  0.00  0.00    +0.000 C 
ATOM     20  O   UNL     1      52.404   9.016   9.744  0.00  0.00    +0.000 OA
ATOM     21  N   UNL     1      51.311   7.614  11.153  0.00  0.00    +0.000 N 
ATOM     22  H   UNL     1      51.244   6.697  11.583  0.00  0.00    +0.000 HD
BRANCH  19  29
ATOM     23  C   UNL     1      54.749   3.270   5.839  0.00  0.00    +0.000 C 
ATOM     24  C   UNL     1      54.382   4.212   6.948  0.00  0.00    +0.000 A 
ATOM     25  N   UNL     1      55.035   4.228   8.067  0.00  0.00    +0.000 NA
ATOM     26  C   UNL     1      54.585   5.138   8.976  0.00  0.00    +0.000 A 
ATOM     27  S   UNL     1      55.330   5.287  10.497  0.00  0.00    +0.000 S 
ATOM     28  C   UNL     1      54.255   6.527  10.963  0.00  0.00    +0.000 A 
ATOM     29  C   UNL     1      53.315   6.855   9.992  0.00  0.00    +0.000 A 
ATOM     30  C   UNL     1      53.530   6.024   8.825  0.00  0.00    +0.000 A 
ATOM     31  C   UNL     1      52.837   5.970   7.553  0.00  0.00    +0.000 A 
ATOM     32  O   UNL     1      51.890   6.690   7.246  0.00  0.00    +0.000 OA
ATOM     33  N   UNL     1      53.318   5.033   6.672  0.00  0.00    +0.000 N 
ATOM     34  H   UNL     1      52.841   4.988   5.781  0.00  0.00    +0.000 HD
ENDBRANCH  19  29
ENDBRANCH   1  21
TORSDOF 7
ENDMDL
MODEL 7
REMARK VINA RESULT:    -6.620      4.768      7.276
REMARK INTER + INTRA:         -10.452
REMARK INTER:                  -9.642
REMARK INTRA:                  -0.810
REMARK UNBOUND:                -1.123
REMARK  Name = 
REMARK  9 active torsions:
REMARK  status: ('A' for Active; 'I' for Inactive)
REMARK    1  A    between atoms: C_1  and  C_2
REMARK    2  A    between atoms: C_7  and  C_8
REMARK    3  A    between atoms: N_10  and  C_11
REMARK    4  A    between atoms: C_11  and  C_12
REMARK    5  A    between atoms: C_15  and  C_16
REMARK    6  A    between atoms: C_16  and  N_17
REMARK    7  A    between atoms: N_17  and  C_18
REMARK    8  A    between atoms: C_18  and  C_19
REMARK    9  A    between atoms: C_18  and  C_20
REMARK                            x       y       z     vdW  Elec       q    Type
REMARK                         _______ _______ _______ _____ _____    ______ ____
ROOT
ATOM      1  C   UNL     1      46.233   4.356  14.119  0.00  0.00    +0.000 C 
ENDROOT
BRANCH   1   2
ATOM      2  C   UNL     1      45.827   5.583  13.340  0.00  0.00    +0.000 A 
ATOM      3  C   UNL     1      46.744   6.614  13.087  0.00  0.00    +0.000 A 
ATOM      4  C   UNL     1      46.362   7.744  12.353  0.00  0.00    +0.000 A 
ATOM      5  C   UNL     1      45.053   7.869  11.862  0.00  0.00    +0.000 A 
ATOM      6  C   UNL     1      44.136   6.849  12.135  0.00  0.00    +0.000 A 
ATOM      7  C   UNL     1      44.515   5.723  12.870  0.00  0.00    +0.000 A 
BRANCH   5   8
ATOM      8  C   UNL     1      44.611   9.096  11.098  0.00  0.00    +0.000 C 
BRANCH   8   9
ATOM      9  N   UNL     1      43.906  10.045  11.958  0.00  0.00    +0.000 NA
ATOM     10  H   UNL     1      44.569  10.373  12.665  0.00  0.00    +0.000 HD
BRANCH   9  11
ATOM     11  C   UNL     1      43.420  11.232  11.224  0.00  0.00    +0.000 C 
ATOM     12  C   UNL     1      43.866  11.251   9.756  0.00  0.00    +0.000 C 
BRANCH  11  13
ATOM     13  C   UNL     1      41.902  11.328  11.294  0.00  0.00    +0.000 A 
ATOM     14  C   UNL     1      41.131  11.402  10.134  0.00  0.00    +0.000 A 
ATOM     15  N   UNL     1      39.779  11.503  10.147  0.00  0.00    +0.000 NA
ATOM     16  C   UNL     1      39.218  11.516  11.375  0.00  0.00    +0.000 A 
ATOM     17  C   UNL     1      39.969  11.436  12.534  0.00  0.00    +0.000 A 
ATOM     18  N   UNL     1      41.320  11.342  12.523  0.00  0.00    +0.000 NA
ENDBRANCH  11  13
ENDBRANCH   9  11
ENDBRANCH   8   9
ENDBRANCH   5   8
ENDBRANCH   1   2
BRANCH   1  21
ATOM     19  C   UNL     1      47.430   4.204  16.265  0.00  0.00    +0.000 C 
ATOM     20  O   UNL     1      46.484   3.621  16.789  0.00  0.00    +0.000 OA
ATOM     21  N   UNL     1      47.387   4.600  14.953  0.00  0.00    +0.000 N 
ATOM     22  H   UNL     1      48.170   5.088  14.527  0.00  0.00    +0.000 HD
BRANCH  19  29
ATOM     23  C   UNL     1      53.568   2.040  18.445  0.00  0.00    +0.000 C 
ATOM     24  C   UNL     1      52.274   2.706  18.080  0.00  0.00    +0.000 A 
ATOM     25  N   UNL     1      51.992   3.905  18.479  0.00  0.00    +0.000 NA
ATOM     26  C   UNL     1      50.781   4.374  18.066  0.00  0.00    +0.000 A 
ATOM     27  S   UNL     1      50.256   5.930  18.504  0.00  0.00    +0.000 S 
ATOM     28  C   UNL     1      48.789   5.734  17.657  0.00  0.00    +0.000 A 
ATOM     29  C   UNL     1      48.658   4.500  17.029  0.00  0.00    +0.000 A 
ATOM     30  C   UNL     1      49.849   3.713  17.282  0.00  0.00    +0.000 A 
ATOM     31  C   UNL     1      50.214   2.376  16.857  0.00  0.00    +0.000 A 
ATOM     32  O   UNL     1      49.514   1.656  16.149  0.00  0.00    +0.000 OA
ATOM     33  N   UNL     1      51.438   1.943  17.303  0.00  0.00    +0.000 N 
ATOM     34  H   UNL     1      51.703   1.011  17.010  0.00  0.00    +0.000 HD
ENDBRANCH  19  29
ENDBRANCH   1  21
TORSDOF 7
ENDMDL
MODEL 8
REMARK VINA RESULT:    -6.349      2.830      3.712
REMARK INTER + INTRA:         -10.070
REMARK INTER:                  -8.903
REMARK INTRA:                  -1.167
REMARK UNBOUND:                -1.123
REMARK  Name = 
REMARK  9 active torsions:
REMARK  status: ('A' for Active; 'I' for Inactive)
REMARK    1  A    between atoms: C_1  and  C_2
REMARK    2  A    between atoms: C_7  and  C_8
REMARK    3  A    between atoms: N_10  and  C_11
REMARK    4  A    between atoms: C_11  and  C_12
REMARK    5  A    between atoms: C_15  and  C_16
REMARK    6  A    between atoms: C_16  and  N_17
REMARK    7  A    between atoms: N_17  and  C_18
REMARK    8  A    between atoms: C_18  and  C_19
REMARK    9  A    between atoms: C_18  and  C_20
REMARK                            x       y       z     vdW  Elec       q    Type
REMARK                         _______ _______ _______ _____ _____    ______ ____
ROOT
ATOM      1  C   UNL     1      49.470   7.899  12.682  0.00  0.00    +0.000 C 
ENDROOT
BRANCH   1   2
ATOM      2  C   UNL     1      48.268   6.988  12.738  0.00  0.00    +0.000 A 
ATOM      3  C   UNL     1      47.120   7.259  11.979  0.00  0.00    +0.000 A 
ATOM      4  C   UNL     1      46.014   6.401  12.029  0.00  0.00    +0.000 A 
ATOM      5  C   UNL     1      46.031   5.258  12.842  0.00  0.00    +0.000 A 
ATOM      6  C   UNL     1      47.170   5.002  13.614  0.00  0.00    +0.000 A 
ATOM      7  C   UNL     1      48.272   5.859  13.568  0.00  0.00    +0.000 A 
BRANCH   5   8
ATOM      8  C   UNL     1      44.834   4.339  12.936  0.00  0.00    +0.000 C 
BRANCH   8   9
ATOM      9  N   UNL     1      45.012   3.134  12.128  0.00  0.00    +0.000 NA
ATOM     10  H   UNL     1      44.762   2.332  12.713  0.00  0.00    +0.000 HD
BRANCH   9  11
ATOM     11  C   UNL     1      44.133   3.106  10.941  0.00  0.00    +0.000 C 
ATOM     12  C   UNL     1      43.084   4.226  10.946  0.00  0.00    +0.000 C 
BRANCH  11  13
ATOM     13  C   UNL     1      44.953   3.184   9.660  0.00  0.00    +0.000 A 
ATOM     14  C   UNL     1      45.234   4.411   9.059  0.00  0.00    +0.000 A 
ATOM     15  N   UNL     1      45.947   4.530   7.912  0.00  0.00    +0.000 NA
ATOM     16  C   UNL     1      46.383   3.366   7.387  0.00  0.00    +0.000 A 
ATOM     17  C   UNL     1      46.119   2.141   7.975  0.00  0.00    +0.000 A 
ATOM     18  N   UNL     1      45.402   2.021   9.116  0.00  0.00    +0.000 NA
ENDBRANCH  11  13
ENDBRANCH   9  11
ENDBRANCH   8   9
ENDBRANCH   5   8
ENDBRANCH   1   2
BRANCH   1  21
ATOM     19  C   UNL     1      49.814   8.876  14.916  0.00  0.00    +0.000 C 
ATOM     20  O   UNL     1      48.898   9.676  14.742  0.00  0.00    +0.000 OA
ATOM     21  N   UNL     1      50.160   7.965  13.951  0.00  0.00    +0.000 N 
ATOM     22  H   UNL     1      50.921   7.310  14.097  0.00  0.00    +0.000 HD
BRANCH  19  29
ATOM     23  C   UNL     1      52.129   5.221  20.245  0.00  0.00    +0.000 C 
ATOM     24  C   UNL     1      51.727   6.196  19.178  0.00  0.00    +0.000 A 
ATOM     25  N   UNL     1      52.076   7.443  19.232  0.00  0.00    +0.000 NA
ATOM     26  C   UNL     1      51.637   8.203  18.191  0.00  0.00    +0.000 A 
ATOM     27  S   UNL     1      52.005   9.861  18.111  0.00  0.00    +0.000 S 
ATOM     28  C   UNL     1      51.158  10.035  16.641  0.00  0.00    +0.000 A 
ATOM     29  C   UNL     1      50.580   8.857  16.179  0.00  0.00    +0.000 A 
ATOM     30  C   UNL     1      50.878   7.787  17.109  0.00  0.00    +0.000 A 
ATOM     31  C   UNL     1      50.519   6.383  17.092  0.00  0.00    +0.000 A 
ATOM     32  O   UNL     1      49.863   5.844  16.204  0.00  0.00    +0.000 OA
ATOM     33  N   UNL     1      50.975   5.657  18.164  0.00  0.00    +0.000 N 
ATOM     34  H   UNL     1      50.731   4.675  18.161  0.00  0.00    +0.000 HD
ENDBRANCH  19  29
ENDBRANCH   1  21
TORSDOF 7
ENDMDL
MODEL 9
REMARK VINA RESULT:    -6.252      4.072      8.802
REMARK INTER + INTRA:          -9.933
REMARK INTER:                  -8.266
REMARK INTRA:                  -1.667
REMARK UNBOUND:                -1.123
REMARK  Name = 
REMARK  9 active torsions:
REMARK  status: ('A' for Active; 'I' for Inactive)
REMARK    1  A    between atoms: C_1  and  C_2
REMARK    2  A    between atoms: C_7  and  C_8
REMARK    3  A    between atoms: N_10  and  C_11
REMARK    4  A    between atoms: C_11  and  C_12
REMARK    5  A    between atoms: C_15  and  C_16
REMARK    6  A    between atoms: C_16  and  N_17
REMARK    7  A    between atoms: N_17  and  C_18
REMARK    8  A    between atoms: C_18  and  C_19
REMARK    9  A    between atoms: C_18  and  C_20
REMARK                            x       y       z     vdW  Elec       q    Type
REMARK                         _______ _______ _______ _____ _____    ______ ____
ROOT
ATOM      1  C   UNL     1      48.271   9.463  14.820  0.00  0.00    +0.000 C 
ENDROOT
BRANCH   1   2
ATOM      2  C   UNL     1      48.719   8.823  16.112  0.00  0.00    +0.000 A 
ATOM      3  C   UNL     1      49.745   7.867  16.126  0.00  0.00    +0.000 A 
ATOM      4  C   UNL     1      50.162   7.287  17.331  0.00  0.00    +0.000 A 
ATOM      5  C   UNL     1      49.558   7.647  18.545  0.00  0.00    +0.000 A 
ATOM      6  C   UNL     1      48.521   8.586  18.524  0.00  0.00    +0.000 A 
ATOM      7  C   UNL     1      48.102   9.162  17.322  0.00  0.00    +0.000 A 
BRANCH   5   8
ATOM      8  C   UNL     1      49.969   7.007  19.851  0.00  0.00    +0.000 C 
BRANCH   8   9
ATOM      9  N   UNL     1      50.496   5.658  19.653  0.00  0.00    +0.000 NA
ATOM     10  H   UNL     1      51.265   5.526  20.315  0.00  0.00    +0.000 HD
BRANCH   9  11
ATOM     11  C   UNL     1      49.494   4.606  19.923  0.00  0.00    +0.000 C 
ATOM     12  C   UNL     1      48.370   5.077  20.857  0.00  0.00    +0.000 C 
BRANCH  11  13
ATOM     13  C   UNL     1      48.890   4.087  18.626  0.00  0.00    +0.000 A 
ATOM     14  C   UNL     1      49.592   3.198  17.810  0.00  0.00    +0.000 A 
ATOM     15  N   UNL     1      49.101   2.720  16.640  0.00  0.00    +0.000 NA
ATOM     16  C   UNL     1      47.867   3.158  16.316  0.00  0.00    +0.000 A 
ATOM     17  C   UNL     1      47.155   4.033  17.118  0.00  0.00    +0.000 A 
ATOM     18  N   UNL     1      47.646   4.516  18.283  0.00  0.00    +0.000 NA
ENDBRANCH  11  13
ENDBRANCH   9  11
ENDBRANCH   8   9
ENDBRANCH   5   8
ENDBRANCH   1   2
BRANCH   1  21
ATOM     19  C   UNL     1      46.983   8.692  12.869  0.00  0.00    +0.000 C 
ATOM     20  O   UNL     1      47.777   9.222  12.095  0.00  0.00    +0.000 OA
ATOM     21  N   UNL     1      47.154   8.764  14.228  0.00  0.00    +0.000 N 
ATOM     22  H   UNL     1      46.492   8.329  14.863  0.00  0.00    +0.000 HD
BRANCH  19  29
ATOM     23  C   UNL     1      43.584   2.738  12.552  0.00  0.00    +0.000 C 
ATOM     24  C   UNL     1      44.159   4.123  12.492  0.00  0.00    +0.000 A 
ATOM     25  N   UNL     1      43.570   5.074  11.839  0.00  0.00    +0.000 NA
ATOM     26  C   UNL     1      44.213   6.274  11.878  0.00  0.00    +0.000 A 
ATOM     27  S   UNL     1      43.575   7.627  11.071  0.00  0.00    +0.000 S 
ATOM     28  C   UNL     1      44.870   8.612  11.582  0.00  0.00    +0.000 A 
ATOM     29  C   UNL     1      45.809   7.950  12.366  0.00  0.00    +0.000 A 
ATOM     30  C   UNL     1      45.399   6.570  12.530  0.00  0.00    +0.000 A 
ATOM     31  C   UNL     1      46.015   5.474  13.251  0.00  0.00    +0.000 A 
ATOM     32  O   UNL     1      47.058   5.563  13.894  0.00  0.00    +0.000 OA
ATOM     33  N   UNL     1      45.337   4.282  13.178  0.00  0.00    +0.000 N 
ATOM     34  H   UNL     1      45.758   3.510  13.678  0.00  0.00    +0.000 HD
ENDBRANCH  19  29
ENDBRANCH   1  21
TORSDOF 7
ENDMDL
