MODEL 1
REMARK VINA RESULT:    -7.231      0.000      0.000
REMARK INTER + INTRA:         -11.769
REMARK INTER:                 -10.190
REMARK INTRA:                  -1.579
REMARK UNBOUND:                -1.579
REMARK  Name = 
REMARK  10 active torsions:
REMARK  status: ('A' for Active; 'I' for Inactive)
REMARK    1  A    between atoms: C_1  and  O_2
REMARK    2  A    between atoms: O_2  and  C_3
REMARK    3  A    between atoms: C_10  and  C_11
REMARK    4  A    between atoms: N_13  and  C_14
REMARK    5  A    between atoms: C_14  and  C_15
REMARK    6  A    between atoms: C_18  and  N_19
REMARK    7  A    between atoms: N_19  and  C_20
REMARK    8  A    between atoms: C_20  and  C_21
REMARK    9  A    between atoms: C_20  and  C_22
REMARK   10  A    between atoms: C_20  and  C_23
REMARK                            x       y       z     vdW  Elec       q    Type
REMARK                         _______ _______ _______ _____ _____    ______ ____
ROOT
ATOM      1  C   UNL     1      47.990   8.298  13.432  0.00  0.00    +0.000 A 
ATOM      2  C   UNL     1      48.257   7.275  12.519  0.00  0.00    +0.000 A 
ATOM      3  C   UNL     1      47.238   6.758  11.711  0.00  0.00    +0.000 A 
ATOM      4  C   UNL     1      45.924   7.223  11.796  0.00  0.00    +0.000 A 
ATOM      5  C   UNL     1      45.689   8.313  12.645  0.00  0.00    +0.000 A 
ATOM      6  C   UNL     1      46.701   8.839  13.461  0.00  0.00    +0.000 A 
ENDROOT
BRANCH   4   7
ATOM      7  N   UNL     1      44.848   6.688  11.099  0.00  0.00    +0.000 N 
ATOM      8  H   UNL     1      44.857   6.941  10.113  0.00  0.00    +0.000 HD
BRANCH   7   9
ATOM      9  C   UNL     1      44.230   5.359  11.349  0.00  0.00    +0.000 C 
ATOM     10  C   UNL     1      44.700   4.814  12.713  0.00  0.00    +0.000 C 
ATOM     11  C   UNL     1      42.694   5.418  11.237  0.00  0.00    +0.000 C 
BRANCH   9  12
ATOM     12  C   UNL     1      44.683   4.350  10.252  0.00  0.00    +0.000 A 
ATOM     13  C   UNL     1      45.385   4.778   9.123  0.00  0.00    +0.000 A 
ATOM     14  C   UNL     1      45.715   3.849   8.133  0.00  0.00    +0.000 A 
ATOM     15  C   UNL     1      45.321   2.527   8.280  0.00  0.00    +0.000 A 
ATOM     16  C   UNL     1      44.611   2.181   9.411  0.00  0.00    +0.000 A 
ATOM     17  N   UNL     1      44.284   3.055  10.388  0.00  0.00    +0.000 NA
ENDBRANCH   9  12
ENDBRANCH   7   9
ENDBRANCH   4   7
BRANCH   1  18
ATOM     18  C   UNL     1      49.085   8.823  14.322  0.00  0.00    +0.000 C 
BRANCH  18  21
ATOM     19  C   UNL     1      48.617   8.313  16.683  0.00  0.00    +0.000 C 
ATOM     20  O   UNL     1      47.927   9.322  16.802  0.00  0.00    +0.000 OA
ATOM     21  N   UNL     1      49.225   8.005  15.498  0.00  0.00    +0.000 N 
ATOM     22  H   UNL     1      49.859   7.221  15.444  0.00  0.00    +0.000 HD
BRANCH  19  30
ATOM     23  C   UNL     1      48.401   4.889  16.980  0.00  0.00    +0.000 A 
ATOM     24  N   UNL     1      48.342   3.604  17.382  0.00  0.00    +0.000 NA
ATOM     25  C   UNL     1      48.571   3.339  18.671  0.00  0.00    +0.000 A 
ATOM     26  N   UNL     1      48.866   4.212  19.628  0.00  0.00    +0.000 NA
ATOM     27  C   UNL     1      48.918   5.480  19.186  0.00  0.00    +0.000 A 
ATOM     28  S   UNL     1      49.291   6.730  20.271  0.00  0.00    +0.000 S 
ATOM     29  C   UNL     1      49.147   7.902  19.049  0.00  0.00    +0.000 A 
ATOM     30  C   UNL     1      48.815   7.380  17.805  0.00  0.00    +0.000 A 
ATOM     31  C   UNL     1      48.697   5.925  17.886  0.00  0.00    +0.000 A 
BRANCH  23  33
ATOM     32  C   UNL     1      47.159   4.425  15.050  0.00  0.00    +0.000 C 
ATOM     33  O   UNL     1      48.232   5.155  15.637  0.00  0.00    +0.000 OA
ENDBRANCH  23  33
ENDBRANCH  19  30
ENDBRANCH  18  21
ENDBRANCH   1  18
TORSDOF 7
ENDMDL
MODEL 2
REMARK VINA RESULT:    -6.586      3.014      7.523
REMARK INTER + INTRA:         -10.860
REMARK INTER:                  -9.164
REMARK INTRA:                  -1.696
REMARK UNBOUND:                -1.579
REMARK  Name = 
REMARK  10 active torsions:
REMARK  status: ('A' for Active; 'I' for Inactive)
REMARK    1  A    between atoms: C_1  and  O_2
REMARK    2  A    between atoms: O_2  and  C_3
REMARK    3  A    between atoms: C_10  and  C_11
REMARK    4  A    between atoms: N_13  and  C_14
REMARK    5  A    between atoms: C_14  and  C_15
REMARK    6  A    between atoms: C_18  and  N_19
REMARK    7  A    between atoms: N_19  and  C_20
REMARK    8  A    between atoms: C_20  and  C_21
REMARK    9  A    between atoms: C_20  and  C_22
REMARK   10  A    between atoms: C_20  and  C_23
REMARK                            x       y       z     vdW  Elec       q    Type
REMARK                         _______ _______ _______ _____ _____    ______ ____
ROOT
ATOM      1  C   UNL     1      48.472   8.474  14.974  0.00  0.00    +0.000 A 
ATOM      2  C   UNL     1      48.162   9.076  16.196  0.00  0.00    +0.000 A 
ATOM      3  C   UNL     1      48.649   8.545  17.395  0.00  0.00    +0.000 A 
ATOM      4  C   UNL     1      49.439   7.393  17.423  0.00  0.00    +0.000 A 
ATOM      5  C   UNL     1      49.821   6.855  16.187  0.00  0.00    +0.000 A 
ATOM      6  C   UNL     1      49.339   7.378  14.978  0.00  0.00    +0.000 A 
ENDROOT
BRANCH   4   7
ATOM      7  N   UNL     1      49.871   6.757  18.581  0.00  0.00    +0.000 N 
ATOM      8  H   UNL     1      50.204   7.413  19.284  0.00  0.00    +0.000 HD
BRANCH   7   9
ATOM      9  C   UNL     1      49.269   5.532  19.169  0.00  0.00    +0.000 C 
ATOM     10  C   UNL     1      49.793   5.332  20.605  0.00  0.00    +0.000 C 
ATOM     11  C   UNL     1      47.730   5.570  19.105  0.00  0.00    +0.000 C 
BRANCH   9  12
ATOM     12  C   UNL     1      49.684   4.285  18.333  0.00  0.00    +0.000 A 
ATOM     13  C   UNL     1      48.726   3.485  17.707  0.00  0.00    +0.000 A 
ATOM     14  C   UNL     1      49.138   2.340  17.020  0.00  0.00    +0.000 A 
ATOM     15  C   UNL     1      50.485   2.009  16.992  0.00  0.00    +0.000 A 
ATOM     16  C   UNL     1      51.372   2.834  17.651  0.00  0.00    +0.000 A 
ATOM     17  N   UNL     1      51.004   3.952  18.317  0.00  0.00    +0.000 NA
ENDBRANCH   9  12
ENDBRANCH   7   9
ENDBRANCH   4   7
BRANCH   1  18
ATOM     18  C   UNL     1      47.915   9.032  13.691  0.00  0.00    +0.000 C 
BRANCH  18  21
ATOM     19  C   UNL     1      46.752   7.328  12.352  0.00  0.00    +0.000 C 
ATOM     20  O   UNL     1      47.794   7.011  11.784  0.00  0.00    +0.000 OA
ATOM     21  N   UNL     1      46.730   8.318  13.295  0.00  0.00    +0.000 N 
ATOM     22  H   UNL     1      45.851   8.624  13.685  0.00  0.00    +0.000 HD
BRANCH  19  30
ATOM     23  C   UNL     1      45.653   4.085  12.715  0.00  0.00    +0.000 A 
ATOM     24  N   UNL     1      44.993   2.909  12.702  0.00  0.00    +0.000 NA
ATOM     25  C   UNL     1      43.757   2.889  12.196  0.00  0.00    +0.000 A 
ATOM     26  N   UNL     1      43.078   3.917  11.699  0.00  0.00    +0.000 NA
ATOM     27  C   UNL     1      43.769   5.069  11.733  0.00  0.00    +0.000 A 
ATOM     28  S   UNL     1      43.053   6.492  11.145  0.00  0.00    +0.000 S 
ATOM     29  C   UNL     1      44.448   7.397  11.493  0.00  0.00    +0.000 A 
ATOM     30  C   UNL     1      45.478   6.652  12.054  0.00  0.00    +0.000 A 
ATOM     31  C   UNL     1      45.060   5.260  12.215  0.00  0.00    +0.000 A 
BRANCH  23  33
ATOM     32  C   UNL     1      46.866   4.471  14.680  0.00  0.00    +0.000 C 
ATOM     33  O   UNL     1      46.901   4.120  13.299  0.00  0.00    +0.000 OA
ENDBRANCH  23  33
ENDBRANCH  19  30
ENDBRANCH  18  21
ENDBRANCH   1  18
TORSDOF 7
ENDMDL
MODEL 3
REMARK VINA RESULT:    -5.232      4.705      7.269
REMARK INTER + INTRA:          -8.952
REMARK INTER:                  -7.901
REMARK INTRA:                  -1.051
REMARK UNBOUND:                -1.579
REMARK  Name = 
REMARK  10 active torsions:
REMARK  status: ('A' for Active; 'I' for Inactive)
REMARK    1  A    between atoms: C_1  and  O_2
REMARK    2  A    between atoms: O_2  and  C_3
REMARK    3  A    between atoms: C_10  and  C_11
REMARK    4  A    between atoms: N_13  and  C_14
REMARK    5  A    between atoms: C_14  and  C_15
REMARK    6  A    between atoms: C_18  and  N_19
REMARK    7  A    between atoms: N_19  and  C_20
REMARK    8  A    between atoms: C_20  and  C_21
REMARK    9  A    between atoms: C_20  and  C_22
REMARK   10  A    between atoms: C_20  and  C_23
REMARK                            x       y       z     vdW  Elec       q    Type
REMARK                         _______ _______ _______ _____ _____    ______ ____
ROOT
ATOM      1  C   UNL     1      49.265   8.627  13.178  0.00  0.00    +0.000 A 
ATOM      2  C   UNL     1      49.569   7.588  12.295  0.00  0.00    +0.000 A 
ATOM      3  C   UNL     1      50.584   7.737  11.343  0.00  0.00    +0.000 A 
ATOM      4  C   UNL     1      51.311   8.923  11.222  0.00  0.00    +0.000 A 
ATOM      5  C   UNL     1      51.063   9.921  12.174  0.00  0.00    +0.000 A 
ATOM      6  C   UNL     1      50.049   9.783  13.133  0.00  0.00    +0.000 A 
ENDROOT
BRANCH   4   7
ATOM      7  N   UNL     1      52.259   9.174  10.237  0.00  0.00    +0.000 N 
ATOM      8  H   UNL     1      52.226  10.134   9.900  0.00  0.00    +0.000 HD
BRANCH   7   9
ATOM      9  C   UNL     1      53.623   8.586  10.180  0.00  0.00    +0.000 C 
ATOM     10  C   UNL     1      54.619   9.632   9.641  0.00  0.00    +0.000 C 
ATOM     11  C   UNL     1      54.050   8.016  11.547  0.00  0.00    +0.000 C 
BRANCH   9  12
ATOM     12  C   UNL     1      53.635   7.370   9.207  0.00  0.00    +0.000 A 
ATOM     13  C   UNL     1      52.759   7.306   8.121  0.00  0.00    +0.000 A 
ATOM     14  C   UNL     1      52.760   6.168   7.310  0.00  0.00    +0.000 A 
ATOM     15  C   UNL     1      53.613   5.117   7.613  0.00  0.00    +0.000 A 
ATOM     16  C   UNL     1      54.435   5.241   8.714  0.00  0.00    +0.000 A 
ATOM     17  N   UNL     1      54.462   6.332   9.511  0.00  0.00    +0.000 NA
ENDBRANCH   9  12
ENDBRANCH   7   9
ENDBRANCH   4   7
BRANCH   1  18
ATOM     18  C   UNL     1      48.149   8.470  14.177  0.00  0.00    +0.000 C 
BRANCH  18  21
ATOM     19  C   UNL     1      46.118   8.000  12.871  0.00  0.00    +0.000 C 
ATOM     20  O   UNL     1      46.010   9.179  12.545  0.00  0.00    +0.000 OA
ATOM     21  N   UNL     1      47.138   7.576  13.677  0.00  0.00    +0.000 N 
ATOM     22  H   UNL     1      47.159   6.622  14.005  0.00  0.00    +0.000 HD
BRANCH  19  30
ATOM     23  C   UNL     1      46.022   4.564  13.086  0.00  0.00    +0.000 A 
ATOM     24  N   UNL     1      45.761   3.245  12.985  0.00  0.00    +0.000 NA
ATOM     25  C   UNL     1      44.669   2.872  12.312  0.00  0.00    +0.000 A 
ATOM     26  N   UNL     1      43.781   3.666  11.722  0.00  0.00    +0.000 NA
ATOM     27  C   UNL     1      44.077   4.971  11.849  0.00  0.00    +0.000 A 
ATOM     28  S   UNL     1      43.046   6.133  11.164  0.00  0.00    +0.000 S 
ATOM     29  C   UNL     1      44.039   7.403  11.700  0.00  0.00    +0.000 A 
ATOM     30  C   UNL     1      45.162   6.982  12.401  0.00  0.00    +0.000 A 
ATOM     31  C   UNL     1      45.172   5.524  12.506  0.00  0.00    +0.000 A 
BRANCH  23  33
ATOM     32  C   UNL     1      47.125   4.378  15.143  0.00  0.00    +0.000 C 
ATOM     33  O   UNL     1      47.111   4.951  13.839  0.00  0.00    +0.000 OA
ENDBRANCH  23  33
ENDBRANCH  19  30
ENDBRANCH  18  21
ENDBRANCH   1  18
TORSDOF 7
ENDMDL
MODEL 4
REMARK VINA RESULT:    -4.858      2.893      8.103
REMARK INTER + INTRA:          -8.425
REMARK INTER:                  -7.939
REMARK INTRA:                  -0.486
REMARK UNBOUND:                -1.579
REMARK  Name = 
REMARK  10 active torsions:
REMARK  status: ('A' for Active; 'I' for Inactive)
REMARK    1  A    between atoms: C_1  and  O_2
REMARK    2  A    between atoms: O_2  and  C_3
REMARK    3  A    between atoms: C_10  and  C_11
REMARK    4  A    between atoms: N_13  and  C_14
REMARK    5  A    between atoms: C_14  and  C_15
REMARK    6  A    between atoms: C_18  and  N_19
REMARK    7  A    between atoms: N_19  and  C_20
REMARK    8  A    between atoms: C_20  and  C_21
REMARK    9  A    between atoms: C_20  and  C_22
REMARK   10  A    between atoms: C_20  and  C_23
REMARK                            x       y       z     vdW  Elec       q    Type
REMARK                         _______ _______ _______ _____ _____    ______ ____
ROOT
ATOM      1  C   UNL     1      48.383   8.098  12.949  0.00  0.00    +0.000 A 
ATOM      2  C   UNL     1      48.084   9.200  13.753  0.00  0.00    +0.000 A 
ATOM      3  C   UNL     1      48.729   9.381  14.981  0.00  0.00    +0.000 A 
ATOM      4  C   UNL     1      49.672   8.467  15.459  0.00  0.00    +0.000 A 
ATOM      5  C   UNL     1      50.033   7.419  14.602  0.00  0.00    +0.000 A 
ATOM      6  C   UNL     1      49.393   7.228  13.368  0.00  0.00    +0.000 A 
ENDROOT
BRANCH   4   7
ATOM      7  N   UNL     1      50.274   8.532  16.710  0.00  0.00    +0.000 N 
ATOM      8  H   UNL     1      49.761   9.125  17.359  0.00  0.00    +0.000 HD
BRANCH   7   9
ATOM      9  C   UNL     1      50.987   7.416  17.385  0.00  0.00    +0.000 C 
ATOM     10  C   UNL     1      52.111   6.887  16.470  0.00  0.00    +0.000 C 
ATOM     11  C   UNL     1      51.508   7.835  18.773  0.00  0.00    +0.000 C 
BRANCH   9  12
ATOM     12  C   UNL     1      50.000   6.243  17.653  0.00  0.00    +0.000 A 
ATOM     13  C   UNL     1      50.322   4.932  17.298  0.00  0.00    +0.000 A 
ATOM     14  C   UNL     1      49.380   3.919  17.499  0.00  0.00    +0.000 A 
ATOM     15  C   UNL     1      48.138   4.239  18.026  0.00  0.00    +0.000 A 
ATOM     16  C   UNL     1      47.881   5.559  18.334  0.00  0.00    +0.000 A 
ATOM     17  N   UNL     1      48.774   6.558  18.158  0.00  0.00    +0.000 NA
ENDBRANCH   9  12
ENDBRANCH   7   9
ENDBRANCH   4   7
BRANCH   1  18
ATOM     18  C   UNL     1      47.659   7.893  11.644  0.00  0.00    +0.000 C 
BRANCH  18  21
ATOM     19  C   UNL     1      45.570   6.594  11.675  0.00  0.00    +0.000 C 
ATOM     20  O   UNL     1      44.891   7.617  11.705  0.00  0.00    +0.000 OA
ATOM     21  N   UNL     1      46.936   6.649  11.651  0.00  0.00    +0.000 N 
ATOM     22  H   UNL     1      47.476   5.799  11.716  0.00  0.00    +0.000 HD
BRANCH  19  30
ATOM     23  C   UNL     1      45.309   4.149   9.264  0.00  0.00    +0.000 A 
ATOM     24  N   UNL     1      45.022   3.068   8.511  0.00  0.00    +0.000 NA
ATOM     25  C   UNL     1      44.286   2.099   9.059  0.00  0.00    +0.000 A 
ATOM     26  N   UNL     1      43.795   2.066  10.294  0.00  0.00    +0.000 NA
ATOM     27  C   UNL     1      44.105   3.159  11.012  0.00  0.00    +0.000 A 
ATOM     28  S   UNL     1      43.569   3.286  12.617  0.00  0.00    +0.000 S 
ATOM     29  C   UNL     1      44.292   4.813  12.791  0.00  0.00    +0.000 A 
ATOM     30  C   UNL     1      44.948   5.260  11.650  0.00  0.00    +0.000 A 
ATOM     31  C   UNL     1      44.851   4.256  10.590  0.00  0.00    +0.000 A 
BRANCH  23  33
ATOM     32  C   UNL     1      46.871   4.658   7.596  0.00  0.00    +0.000 C 
ATOM     33  O   UNL     1      46.126   5.117   8.721  0.00  0.00    +0.000 OA
ENDBRANCH  23  33
ENDBRANCH  19  30
ENDBRANCH  18  21
ENDBRANCH   1  18
TORSDOF 7
ENDMDL
MODEL 5
REMARK VINA RESULT:    -4.829     10.368     12.878
REMARK INTER + INTRA:          -8.384
REMARK INTER:                  -6.916
REMARK INTRA:                  -1.467
REMARK UNBOUND:                -1.579
REMARK  Name = 
REMARK  10 active torsions:
REMARK  status: ('A' for Active; 'I' for Inactive)
REMARK    1  A    between atoms: C_1  and  O_2
REMARK    2  A    between atoms: O_2  and  C_3
REMARK    3  A    between atoms: C_10  and  C_11
REMARK    4  A    between atoms: N_13  and  C_14
REMARK    5  A    between atoms: C_14  and  C_15
REMARK    6  A    between atoms: C_18  and  N_19
REMARK    7  A    between atoms: N_19  and  C_20
REMARK    8  A    between atoms: C_20  and  C_21
REMARK    9  A    between atoms: C_20  and  C_22
REMARK   10  A    between atoms: C_20  and  C_23
REMARK                            x       y       z     vdW  Elec       q    Type
REMARK                         _______ _______ _______ _____ _____    ______ ____
ROOT
ATOM      1  C   UNL     1      39.254  -2.902  14.848  0.00  0.00    +0.000 A 
ATOM      2  C   UNL     1      40.416  -2.647  15.581  0.00  0.00    +0.000 A 
ATOM      3  C   UNL     1      41.444  -3.595  15.637  0.00  0.00    +0.000 A 
ATOM      4  C   UNL     1      41.345  -4.828  14.989  0.00  0.00    +0.000 A 
ATOM      5  C   UNL     1      40.219  -5.033  14.181  0.00  0.00    +0.000 A 
ATOM      6  C   UNL     1      39.181  -4.091  14.116  0.00  0.00    +0.000 A 
ENDROOT
BRANCH   4   7
ATOM      7  N   UNL     1      42.281  -5.851  15.086  0.00  0.00    +0.000 N 
ATOM      8  H   UNL     1      43.157  -5.623  14.621  0.00  0.00    +0.000 HD
BRANCH   7   9
ATOM      9  C   UNL     1      42.462  -6.749  16.257  0.00  0.00    +0.000 C 
ATOM     10  C   UNL     1      41.252  -6.621  17.204  0.00  0.00    +0.000 C 
ATOM     11  C   UNL     1      42.716  -8.205  15.820  0.00  0.00    +0.000 C 
BRANCH   9  12
ATOM     12  C   UNL     1      43.735  -6.331  17.050  0.00  0.00    +0.000 A 
ATOM     13  C   UNL     1      43.713  -5.250  17.934  0.00  0.00    +0.000 A 
ATOM     14  C   UNL     1      44.894  -4.871  18.577  0.00  0.00    +0.000 A 
ATOM     15  C   UNL     1      46.068  -5.560  18.309  0.00  0.00    +0.000 A 
ATOM     16  C   UNL     1      46.019  -6.603  17.408  0.00  0.00    +0.000 A 
ATOM     17  N   UNL     1      44.891  -6.998  16.777  0.00  0.00    +0.000 NA
ENDBRANCH   9  12
ENDBRANCH   7   9
ENDBRANCH   4   7
BRANCH   1  18
ATOM     18  C   UNL     1      38.139  -1.891  14.822  0.00  0.00    +0.000 C 
BRANCH  18  21
ATOM     19  C   UNL     1      37.692  -0.842  17.002  0.00  0.00    +0.000 C 
ATOM     20  O   UNL     1      36.861  -1.700  17.286  0.00  0.00    +0.000 OA
ATOM     21  N   UNL     1      38.356  -0.864  15.807  0.00  0.00    +0.000 N 
ATOM     22  H   UNL     1      38.969  -0.103  15.555  0.00  0.00    +0.000 HD
BRANCH  19  30
ATOM     23  C   UNL     1      37.902   2.580  16.675  0.00  0.00    +0.000 A 
ATOM     24  N   UNL     1      38.101   3.906  16.815  0.00  0.00    +0.000 NA
ATOM     25  C   UNL     1      38.509   4.357  18.004  0.00  0.00    +0.000 A 
ATOM     26  N   UNL     1      38.742   3.638  19.097  0.00  0.00    +0.000 NA
ATOM     27  C   UNL     1      38.530   2.323  18.916  0.00  0.00    +0.000 A 
ATOM     28  S   UNL     1      38.769   1.252  20.211  0.00  0.00    +0.000 S 
ATOM     29  C   UNL     1      38.350  -0.084  19.247  0.00  0.00    +0.000 A 
ATOM     30  C   UNL     1      38.025   0.246  17.937  0.00  0.00    +0.000 A 
ATOM     31  C   UNL     1      38.114   1.693  17.747  0.00  0.00    +0.000 A 
BRANCH  23  33
ATOM     32  C   UNL     1      35.993   2.155  15.389  0.00  0.00    +0.000 C 
ATOM     33  O   UNL     1      37.415   2.123  15.469  0.00  0.00    +0.000 OA
ENDBRANCH  23  33
ENDBRANCH  19  30
ENDBRANCH  18  21
ENDBRANCH   1  18
TORSDOF 7
ENDMDL
MODEL 6
REMARK VINA RESULT:    -4.820      4.000      6.166
REMARK INTER + INTRA:          -8.372
REMARK INTER:                  -6.575
REMARK INTRA:                  -1.797
REMARK UNBOUND:                -1.579
REMARK  Name = 
REMARK  10 active torsions:
REMARK  status: ('A' for Active; 'I' for Inactive)
REMARK    1  A    between atoms: C_1  and  O_2
REMARK    2  A    between atoms: O_2  and  C_3
REMARK    3  A    between atoms: C_10  and  C_11
REMARK    4  A    between atoms: N_13  and  C_14
REMARK    5  A    between atoms: C_14  and  C_15
REMARK    6  A    between atoms: C_18  and  N_19
REMARK    7  A    between atoms: N_19  and  C_20
REMARK    8  A    between atoms: C_20  and  C_21
REMARK    9  A    between atoms: C_20  and  C_22
REMARK   10  A    between atoms: C_20  and  C_23
REMARK                            x       y       z     vdW  Elec       q    Type
REMARK                         _______ _______ _______ _____ _____    ______ ____
ROOT
ATOM      1  C   UNL     1      48.523   8.190  12.634  0.00  0.00    +0.000 A 
ATOM      2  C   UNL     1      49.237   7.351  11.774  0.00  0.00    +0.000 A 
ATOM      3  C   UNL     1      50.426   7.787  11.180  0.00  0.00    +0.000 A 
ATOM      4  C   UNL     1      50.932   9.070  11.400  0.00  0.00    +0.000 A 
ATOM      5  C   UNL     1      50.260   9.866  12.337  0.00  0.00    +0.000 A 
ATOM      6  C   UNL     1      49.067   9.441  12.939  0.00  0.00    +0.000 A 
ENDROOT
BRANCH   4   7
ATOM      7  N   UNL     1      52.049   9.601  10.765  0.00  0.00    +0.000 N 
ATOM      8  H   UNL     1      52.025  10.617  10.719  0.00  0.00    +0.000 HD
BRANCH   7   9
ATOM      9  C   UNL     1      53.430   9.057  10.848  0.00  0.00    +0.000 C 
ATOM     10  C   UNL     1      54.433  10.100  10.315  0.00  0.00    +0.000 C 
ATOM     11  C   UNL     1      53.769   8.591  12.277  0.00  0.00    +0.000 C 
BRANCH   9  12
ATOM     12  C   UNL     1      53.551   7.783   9.961  0.00  0.00    +0.000 A 
ATOM     13  C   UNL     1      53.119   7.784   8.633  0.00  0.00    +0.000 A 
ATOM     14  C   UNL     1      53.188   6.601   7.893  0.00  0.00    +0.000 A 
ATOM     15  C   UNL     1      53.661   5.445   8.497  0.00  0.00    +0.000 A 
ATOM     16  C   UNL     1      54.049   5.514   9.819  0.00  0.00    +0.000 A 
ATOM     17  N   UNL     1      54.002   6.645  10.557  0.00  0.00    +0.000 NA
ENDBRANCH   9  12
ENDBRANCH   7   9
ENDBRANCH   4   7
BRANCH   1  18
ATOM     18  C   UNL     1      47.226   7.725  13.242  0.00  0.00    +0.000 C 
BRANCH  18  21
ATOM     19  C   UNL     1      47.597   5.655  14.519  0.00  0.00    +0.000 C 
ATOM     20  O   UNL     1      47.504   4.969  13.505  0.00  0.00    +0.000 OA
ATOM     21  N   UNL     1      47.464   7.015  14.471  0.00  0.00    +0.000 N 
ATOM     22  H   UNL     1      47.455   7.552  15.326  0.00  0.00    +0.000 HD
BRANCH  19  30
ATOM     23  C   UNL     1      49.735   6.453  17.098  0.00  0.00    +0.000 A 
ATOM     24  N   UNL     1      50.490   6.506  18.214  0.00  0.00    +0.000 NA
ATOM     25  C   UNL     1      50.328   5.545  19.126  0.00  0.00    +0.000 A 
ATOM     26  N   UNL     1      49.485   4.520  19.070  0.00  0.00    +0.000 NA
ATOM     27  C   UNL     1      48.750   4.505  17.944  0.00  0.00    +0.000 A 
ATOM     28  S   UNL     1      47.611   3.270  17.705  0.00  0.00    +0.000 S 
ATOM     29  C   UNL     1      47.169   3.903  16.191  0.00  0.00    +0.000 A 
ATOM     30  C   UNL     1      47.867   5.050  15.834  0.00  0.00    +0.000 A 
ATOM     31  C   UNL     1      48.801   5.420  16.897  0.00  0.00    +0.000 A 
BRANCH  23  33
ATOM     32  C   UNL     1      51.013   7.378  15.368  0.00  0.00    +0.000 C 
ATOM     33  O   UNL     1      49.853   7.483  16.188  0.00  0.00    +0.000 OA
ENDBRANCH  23  33
ENDBRANCH  19  30
ENDBRANCH  18  21
ENDBRANCH   1  18
TORSDOF 7
ENDMDL
MODEL 7
REMARK VINA RESULT:    -4.720     10.351     13.054
REMARK INTER + INTRA:          -8.231
REMARK INTER:                  -6.956
REMARK INTRA:                  -1.274
REMARK UNBOUND:                -1.579
REMARK  Name = 
REMARK  10 active torsions:
REMARK  status: ('A' for Active; 'I' for Inactive)
REMARK    1  A    between atoms: C_1  and  O_2
REMARK    2  A    between atoms: O_2  and  C_3
REMARK    3  A    between atoms: C_10  and  C_11
REMARK    4  A    between atoms: N_13  and  C_14
REMARK    5  A    between atoms: C_14  and  C_15
REMARK    6  A    between atoms: C_18  and  N_19
REMARK    7  A    between atoms: N_19  and  C_20
REMARK    8  A    between atoms: C_20  and  C_21
REMARK    9  A    between atoms: C_20  and  C_22
REMARK   10  A    between atoms: C_20  and  C_23
REMARK                            x       y       z     vdW  Elec       q    Type
REMARK                         _______ _______ _______ _____ _____    ______ ____
ROOT
ATOM      1  C   UNL     1      40.122  -3.713  16.777  0.00  0.00    +0.000 A 
ATOM      2  C   UNL     1      40.404  -4.290  18.018  0.00  0.00    +0.000 A 
ATOM      3  C   UNL     1      41.569  -5.043  18.204  0.00  0.00    +0.000 A 
ATOM      4  C   UNL     1      42.476  -5.265  17.165  0.00  0.00    +0.000 A 
ATOM      5  C   UNL     1      42.230  -4.604  15.955  0.00  0.00    +0.000 A 
ATOM      6  C   UNL     1      41.067  -3.846  15.756  0.00  0.00    +0.000 A 
ENDROOT
BRANCH   4   7
ATOM      7  N   UNL     1      43.596  -6.084  17.253  0.00  0.00    +0.000 N 
ATOM      8  H   UNL     1      43.910  -6.413  16.343  0.00  0.00    +0.000 HD
BRANCH   7   9
ATOM      9  C   UNL     1      44.706  -5.926  18.229  0.00  0.00    +0.000 C 
ATOM     10  C   UNL     1      44.970  -4.428  18.480  0.00  0.00    +0.000 C 
ATOM     11  C   UNL     1      44.429  -6.702  19.531  0.00  0.00    +0.000 C 
BRANCH   9  12
ATOM     12  C   UNL     1      46.011  -6.550  17.650  0.00  0.00    +0.000 A 
ATOM     13  C   UNL     1      47.268  -6.092  18.048  0.00  0.00    +0.000 A 
ATOM     14  C   UNL     1      48.411  -6.635  17.455  0.00  0.00    +0.000 A 
ATOM     15  C   UNL     1      48.274  -7.601  16.470  0.00  0.00    +0.000 A 
ATOM     16  C   UNL     1      47.000  -7.990  16.111  0.00  0.00    +0.000 A 
ATOM     17  N   UNL     1      45.877  -7.488  16.672  0.00  0.00    +0.000 NA
ENDBRANCH   9  12
ENDBRANCH   7   9
ENDBRANCH   4   7
BRANCH   1  18
ATOM     18  C   UNL     1      38.849  -2.933  16.577  0.00  0.00    +0.000 C 
BRANCH  18  21
ATOM     19  C   UNL     1      38.228  -1.283  18.291  0.00  0.00    +0.000 C 
ATOM     20  O   UNL     1      37.446  -2.071  18.819  0.00  0.00    +0.000 OA
ATOM     21  N   UNL     1      38.947  -1.632  17.182  0.00  0.00    +0.000 N 
ATOM     22  H   UNL     1      39.515  -0.943  16.712  0.00  0.00    +0.000 HD
BRANCH  19  30
ATOM     23  C   UNL     1      38.127   1.866  16.901  0.00  0.00    +0.000 A 
ATOM     24  N   UNL     1      38.200   3.181  16.614  0.00  0.00    +0.000 NA
ATOM     25  C   UNL     1      38.538   4.020  17.597  0.00  0.00    +0.000 A 
ATOM     26  N   UNL     1      38.813   3.707  18.859  0.00  0.00    +0.000 NA
ATOM     27  C   UNL     1      38.727   2.388  19.104  0.00  0.00    +0.000 A 
ATOM     28  S   UNL     1      39.036   1.805  20.668  0.00  0.00    +0.000 S 
ATOM     29  C   UNL     1      38.764   0.201  20.178  0.00  0.00    +0.000 A 
ATOM     30  C   UNL     1      38.438   0.070  18.834  0.00  0.00    +0.000 A 
ATOM     31  C   UNL     1      38.397   1.385  18.196  0.00  0.00    +0.000 A 
BRANCH  23  33
ATOM     32  C   UNL     1      36.859   1.632  14.947  0.00  0.00    +0.000 C 
ATOM     33  O   UNL     1      37.711   1.009  15.905  0.00  0.00    +0.000 OA
ENDBRANCH  23  33
ENDBRANCH  19  30
ENDBRANCH  18  21
ENDBRANCH   1  18
TORSDOF 7
ENDMDL
MODEL 8
REMARK VINA RESULT:    -4.598      2.207      2.836
REMARK INTER + INTRA:          -8.059
REMARK INTER:                  -6.608
REMARK INTRA:                  -1.451
REMARK UNBOUND:                -1.579
REMARK  Name = 
REMARK  10 active torsions:
REMARK  status: ('A' for Active; 'I' for Inactive)
REMARK    1  A    between atoms: C_1  and  O_2
REMARK    2  A    between atoms: O_2  and  C_3
REMARK    3  A    between atoms: C_10  and  C_11
REMARK    4  A    between atoms: N_13  and  C_14
REMARK    5  A    between atoms: C_14  and  C_15
REMARK    6  A    between atoms: C_18  and  N_19
REMARK    7  A    between atoms: N_19  and  C_20
REMARK    8  A    between atoms: C_20  and  C_21
REMARK    9  A    between atoms: C_20  and  C_22
REMARK   10  A    between atoms: C_20  and  C_23
REMARK                            x       y       z     vdW  Elec       q    Type
REMARK                         _______ _______ _______ _____ _____    ______ ____
ROOT
ATOM      1  C   UNL     1      49.595   8.397  13.724  0.00  0.00    +0.000 A 
ATOM      2  C   UNL     1      49.463   7.112  13.192  0.00  0.00    +0.000 A 
ATOM      3  C   UNL     1      48.199   6.595  12.890  0.00  0.00    +0.000 A 
ATOM      4  C   UNL     1      47.030   7.323  13.124  0.00  0.00    +0.000 A 
ATOM      5  C   UNL     1      47.181   8.643  13.567  0.00  0.00    +0.000 A 
ATOM      6  C   UNL     1      48.443   9.174  13.874  0.00  0.00    +0.000 A 
ENDROOT
BRANCH   4   7
ATOM      7  N   UNL     1      45.742   6.832  12.942  0.00  0.00    +0.000 N 
ATOM      8  H   UNL     1      45.083   7.204  13.624  0.00  0.00    +0.000 HD
BRANCH   7   9
ATOM      9  C   UNL     1      45.110   6.528  11.632  0.00  0.00    +0.000 C 
ATOM     10  C   UNL     1      44.006   7.562  11.333  0.00  0.00    +0.000 C 
ATOM     11  C   UNL     1      46.158   6.443  10.505  0.00  0.00    +0.000 C 
BRANCH   9  12
ATOM     12  C   UNL     1      44.444   5.121  11.680  0.00  0.00    +0.000 A 
ATOM     13  C   UNL     1      43.985   4.580  12.882  0.00  0.00    +0.000 A 
ATOM     14  C   UNL     1      43.452   3.288  12.890  0.00  0.00    +0.000 A 
ATOM     15  C   UNL     1      43.410   2.562  11.709  0.00  0.00    +0.000 A 
ATOM     16  C   UNL     1      43.901   3.152  10.563  0.00  0.00    +0.000 A 
ATOM     17  N   UNL     1      44.414   4.402  10.524  0.00  0.00    +0.000 NA
ENDBRANCH   9  12
ENDBRANCH   7   9
ENDBRANCH   4   7
BRANCH   1  18
ATOM     18  C   UNL     1      50.958   8.933  14.079  0.00  0.00    +0.000 C 
BRANCH  18  21
ATOM     19  C   UNL     1      51.258   8.981  16.520  0.00  0.00    +0.000 C 
ATOM     20  O   UNL     1      50.703  10.074  16.603  0.00  0.00    +0.000 OA
ATOM     21  N   UNL     1      51.426   8.361  15.313  0.00  0.00    +0.000 N 
ATOM     22  H   UNL     1      51.962   7.508  15.255  0.00  0.00    +0.000 HD
BRANCH  19  30
ATOM     23  C   UNL     1      50.872   5.774  17.714  0.00  0.00    +0.000 A 
ATOM     24  N   UNL     1      50.850   4.627  18.422  0.00  0.00    +0.000 NA
ATOM     25  C   UNL     1      51.493   4.598  19.591  0.00  0.00    +0.000 A 
ATOM     26  N   UNL     1      52.177   5.589  20.154  0.00  0.00    +0.000 NA
ATOM     27  C   UNL     1      52.177   6.713  19.417  0.00  0.00    +0.000 A 
ATOM     28  S   UNL     1      53.010   8.081  19.978  0.00  0.00    +0.000 S 
ATOM     29  C   UNL     1      52.546   8.984  18.615  0.00  0.00    +0.000 A 
ATOM     30  C   UNL     1      51.756   8.279  17.714  0.00  0.00    +0.000 A 
ATOM     31  C   UNL     1      51.553   6.911  18.189  0.00  0.00    +0.000 A 
BRANCH  23  33
ATOM     32  C   UNL     1      48.843   5.777  16.545  0.00  0.00    +0.000 C 
ATOM     33  O   UNL     1      50.266   5.783  16.476  0.00  0.00    +0.000 OA
ENDBRANCH  23  33
ENDBRANCH  19  30
ENDBRANCH  18  21
ENDBRANCH   1  18
TORSDOF 7
ENDMDL
MODEL 9
REMARK VINA RESULT:    -4.522     10.628     13.835
REMARK INTER + INTRA:          -7.952
REMARK INTER:                  -6.304
REMARK INTRA:                  -1.648
REMARK UNBOUND:                -1.579
REMARK  Name = 
REMARK  10 active torsions:
REMARK  status: ('A' for Active; 'I' for Inactive)
REMARK    1  A    between atoms: C_1  and  O_2
REMARK    2  A    between atoms: O_2  and  C_3
REMARK    3  A    between atoms: C_10  and  C_11
REMARK    4  A    between atoms: N_13  and  C_14
REMARK    5  A    between atoms: C_14  and  C_15
REMARK    6  A    between atoms: C_18  and  N_19
REMARK    7  A    between atoms: N_19  and  C_20
REMARK    8  A    between atoms: C_20  and  C_21
REMARK    9  A    between atoms: C_20  and  C_22
REMARK   10  A    between atoms: C_20  and  C_23
REMARK                            x       y       z     vdW  Elec       q    Type
REMARK                         _______ _______ _______ _____ _____    ______ ____
ROOT
ATOM      1  C   UNL     1      40.034  -3.156  15.141  0.00  0.00    +0.000 A 
ATOM      2  C   UNL     1      40.437  -1.839  15.376  0.00  0.00    +0.000 A 
ATOM      3  C   UNL     1      39.891  -1.106  16.435  0.00  0.00    +0.000 A 
ATOM      4  C   UNL     1      38.916  -1.645  17.278  0.00  0.00    +0.000 A 
ATOM      5  C   UNL     1      38.590  -2.995  17.092  0.00  0.00    +0.000 A 
ATOM      6  C   UNL     1      39.131  -3.740  16.034  0.00  0.00    +0.000 A 
ENDROOT
BRANCH   4   7
ATOM      7  N   UNL     1      38.260  -0.942  18.282  0.00  0.00    +0.000 N 
ATOM      8  H   UNL     1      38.895  -0.613  19.006  0.00  0.00    +0.000 HD
BRANCH   7   9
ATOM      9  C   UNL     1      37.090  -0.046  18.086  0.00  0.00    +0.000 C 
ATOM     10  C   UNL     1      36.363  -0.417  16.778  0.00  0.00    +0.000 C 
ATOM     11  C   UNL     1      36.151  -0.067  19.308  0.00  0.00    +0.000 C 
BRANCH   9  12
ATOM     12  C   UNL     1      37.569   1.431  17.963  0.00  0.00    +0.000 A 
ATOM     13  C   UNL     1      37.170   2.232  16.892  0.00  0.00    +0.000 A 
ATOM     14  C   UNL     1      37.674   3.531  16.787  0.00  0.00    +0.000 A 
ATOM     15  C   UNL     1      38.578   3.990  17.733  0.00  0.00    +0.000 A 
ATOM     16  C   UNL     1      38.945   3.135  18.752  0.00  0.00    +0.000 A 
ATOM     17  N   UNL     1      38.467   1.877  18.884  0.00  0.00    +0.000 NA
ENDBRANCH   9  12
ENDBRANCH   7   9
ENDBRANCH   4   7
BRANCH   1  18
ATOM     18  C   UNL     1      40.602  -3.926  13.978  0.00  0.00    +0.000 C 
BRANCH  18  21
ATOM     19  C   UNL     1      40.135  -2.870  11.806  0.00  0.00    +0.000 C 
ATOM     20  O   UNL     1      41.150  -2.183  11.880  0.00  0.00    +0.000 OA
ATOM     21  N   UNL     1      39.794  -3.744  12.801  0.00  0.00    +0.000 N 
ATOM     22  H   UNL     1      38.912  -4.232  12.764  0.00  0.00    +0.000 HD
BRANCH  19  30
ATOM     23  C   UNL     1      37.545  -0.772  10.939  0.00  0.00    +0.000 A 
ATOM     24  N   UNL     1      36.488  -0.145  10.384  0.00  0.00    +0.000 NA
ATOM     25  C   UNL     1      36.016  -0.615   9.227  0.00  0.00    +0.000 A 
ATOM     26  N   UNL     1      36.479  -1.650   8.534  0.00  0.00    +0.000 NA
ATOM     27  C   UNL     1      37.533  -2.245   9.119  0.00  0.00    +0.000 A 
ATOM     28  S   UNL     1      38.261  -3.582   8.368  0.00  0.00    +0.000 S 
ATOM     29  C   UNL     1      39.388  -3.740   9.630  0.00  0.00    +0.000 A 
ATOM     30  C   UNL     1      39.240  -2.796  10.639  0.00  0.00    +0.000 A 
ATOM     31  C   UNL     1      38.138  -1.889  10.320  0.00  0.00    +0.000 A 
BRANCH  23  33
ATOM     32  C   UNL     1      37.447  -0.737  13.278  0.00  0.00    +0.000 C 
ATOM     33  O   UNL     1      38.075  -0.245  12.097  0.00  0.00    +0.000 OA
ENDBRANCH  23  33
ENDBRANCH  19  30
ENDBRANCH  18  21
ENDBRANCH   1  18
TORSDOF 7
ENDMDL
