MODEL 1
REMARK VINA RESULT:    -7.483      0.000      0.000
REMARK INTER + INTRA:         -11.012
REMARK INTER:                 -10.108
REMARK INTRA:                  -0.904
REMARK UNBOUND:                -0.904
REMARK  Name = 
REMARK  8 active torsions:
REMARK  status: ('A' for Active; 'I' for Inactive)
REMARK    1  A    between atoms: C_1  and  O_2
REMARK    2  A    between atoms: O_2  and  C_3
REMARK    3  A    between atoms: C_7  and  N_8
REMARK    4  A    between atoms: N_8  and  C_9
REMARK    5  A    between atoms: C_9  and  C_10
REMARK    6  A    between atoms: C_15  and  C_16
REMARK    7  A    between atoms: C_19  and  O_20
REMARK    8  A    between atoms: O_20  and  C_21
REMARK                            x       y       z     vdW  Elec       q    Type
REMARK                         _______ _______ _______ _____ _____    ______ ____
ROOT
ATOM      1  C   UNL     1      44.661   5.467  11.724  0.00  0.00    +0.000 A 
ATOM      2  C   UNL     1      45.022   6.769  11.373  0.00  0.00    +0.000 A 
ATOM      3  C   UNL     1      46.046   7.406  12.061  0.00  0.00    +0.000 A 
ATOM      4  F   UNL     1      46.380   8.659  11.734  0.00  0.00    +0.000 F 
ATOM      5  C   UNL     1      46.728   6.766  13.097  0.00  0.00    +0.000 A 
ATOM      6  C   UNL     1      46.406   5.452  13.464  0.00  0.00    +0.000 A 
ATOM      7  C   UNL     1      45.372   4.815  12.747  0.00  0.00    +0.000 A 
ENDROOT
BRANCH   6   8
ATOM      8  C   UNL     1      47.102   4.760  14.571  0.00  0.00    +0.000 A 
ATOM      9  C   UNL     1      47.611   5.435  15.688  0.00  0.00    +0.000 A 
ATOM     10  C   UNL     1      48.260   4.734  16.707  0.00  0.00    +0.000 A 
ATOM     11  C   UNL     1      48.396   3.363  16.581  0.00  0.00    +0.000 A 
ATOM     12  N   UNL     1      47.925   2.666  15.530  0.00  0.00    +0.000 NA
ATOM     13  C   UNL     1      47.292   3.374  14.568  0.00  0.00    +0.000 A 
BRANCH  11  14
ATOM     14  O   UNL     1      49.051   2.705  17.600  0.00  0.00    +0.000 OA
ATOM     15  C   UNL     1      50.467   2.710  17.430  0.00  0.00    +0.000 C 
ENDBRANCH  11  14
ENDBRANCH   6   8
BRANCH   1  16
ATOM     16  C   UNL     1      43.542   4.755  11.008  0.00  0.00    +0.000 C 
BRANCH  16  17
ATOM     17  N   UNL     1      43.788   4.773   9.579  0.00  0.00    +0.000 N 
ATOM     18  H   UNL     1      43.944   5.702   9.194  0.00  0.00    +0.000 HD
BRANCH  17  23
ATOM     19  C   UNL     1      46.451   3.063   7.601  0.00  0.00    +0.000 A 
ATOM     20  C   UNL     1      46.230   1.776   8.071  0.00  0.00    +0.000 A 
ATOM     21  N   UNL     1      45.266   1.444   8.958  0.00  0.00    +0.000 NA
ATOM     22  C   UNL     1      44.487   2.460   9.398  0.00  0.00    +0.000 A 
ATOM     23  C   UNL     1      44.590   3.794   8.987  0.00  0.00    +0.000 A 
ATOM     24  C   UNL     1      45.622   4.075   8.084  0.00  0.00    +0.000 A 
BRANCH  19  26
ATOM     25  C   UNL     1      47.959   2.034   6.083  0.00  0.00    +0.000 C 
ATOM     26  O   UNL     1      47.474   3.217   6.708  0.00  0.00    +0.000 OA
ENDBRANCH  19  26
ENDBRANCH  17  23
ENDBRANCH  16  17
ENDBRANCH   1  16
TORSDOF 6
ENDMDL
MODEL 2
REMARK VINA RESULT:    -7.424      2.042      7.495
REMARK INTER + INTRA:         -10.932
REMARK INTER:                 -10.070
REMARK INTRA:                  -0.862
REMARK UNBOUND:                -0.904
REMARK  Name = 
REMARK  8 active torsions:
REMARK  status: ('A' for Active; 'I' for Inactive)
REMARK    1  A    between atoms: C_1  and  O_2
REMARK    2  A    between atoms: O_2  and  C_3
REMARK    3  A    between atoms: C_7  and  N_8
REMARK    4  A    between atoms: N_8  and  C_9
REMARK    5  A    between atoms: C_9  and  C_10
REMARK    6  A    between atoms: C_15  and  C_16
REMARK    7  A    between atoms: C_19  and  O_20
REMARK    8  A    between atoms: O_20  and  C_21
REMARK                            x       y       z     vdW  Elec       q    Type
REMARK                         _______ _______ _______ _____ _____    ______ ____
ROOT
ATOM      1  C   UNL     1      45.108   6.507  11.962  0.00  0.00    +0.000 A 
ATOM      2  C   UNL     1      43.737   6.440  12.217  0.00  0.00    +0.000 A 
ATOM      3  C   UNL     1      42.947   5.555  11.496  0.00  0.00    +0.000 A 
ATOM      4  F   UNL     1      41.632   5.502  11.732  0.00  0.00    +0.000 F 
ATOM      5  C   UNL     1      43.499   4.724  10.520  0.00  0.00    +0.000 A 
ATOM      6  C   UNL     1      44.875   4.750  10.249  0.00  0.00    +0.000 A 
ATOM      7  C   UNL     1      45.665   5.645  11.000  0.00  0.00    +0.000 A 
ENDROOT
BRANCH   6   8
ATOM      8  C   UNL     1      45.480   3.892   9.208  0.00  0.00    +0.000 A 
ATOM      9  C   UNL     1      46.108   4.410   8.067  0.00  0.00    +0.000 A 
ATOM     10  C   UNL     1      46.665   3.556   7.113  0.00  0.00    +0.000 A 
ATOM     11  C   UNL     1      46.571   2.190   7.316  0.00  0.00    +0.000 A 
ATOM     12  N   UNL     1      45.981   1.641   8.393  0.00  0.00    +0.000 NA
ATOM     13  C   UNL     1      45.463   2.497   9.303  0.00  0.00    +0.000 A 
BRANCH  11  14
ATOM     14  O   UNL     1      47.123   1.377   6.348  0.00  0.00    +0.000 OA
ATOM     15  C   UNL     1      47.907   2.106   5.406  0.00  0.00    +0.000 C 
ENDBRANCH  11  14
ENDBRANCH   6   8
BRANCH   1  16
ATOM     16  C   UNL     1      45.989   7.470  12.715  0.00  0.00    +0.000 C 
BRANCH  16  17
ATOM     17  N   UNL     1      47.303   6.885  12.904  0.00  0.00    +0.000 N 
ATOM     18  H   UNL     1      48.065   7.438  12.516  0.00  0.00    +0.000 HD
BRANCH  17  23
ATOM     19  C   UNL     1      47.507   4.451  15.726  0.00  0.00    +0.000 A 
ATOM     20  C   UNL     1      48.551   5.056  16.414  0.00  0.00    +0.000 A 
ATOM     21  N   UNL     1      49.156   6.201  16.026  0.00  0.00    +0.000 NA
ATOM     22  C   UNL     1      48.692   6.763  14.885  0.00  0.00    +0.000 A 
ATOM     23  C   UNL     1      47.635   6.267  14.112  0.00  0.00    +0.000 A 
ATOM     24  C   UNL     1      47.065   5.069  14.556  0.00  0.00    +0.000 A 
BRANCH  19  26
ATOM     25  C   UNL     1      47.365   3.018  17.613  0.00  0.00    +0.000 C 
ATOM     26  O   UNL     1      47.017   3.294  16.261  0.00  0.00    +0.000 OA
ENDBRANCH  19  26
ENDBRANCH  17  23
ENDBRANCH  16  17
ENDBRANCH   1  16
TORSDOF 6
ENDMDL
MODEL 3
REMARK VINA RESULT:    -7.265      1.370      1.597
REMARK INTER + INTRA:         -10.718
REMARK INTER:                  -9.907
REMARK INTRA:                  -0.811
REMARK UNBOUND:                -0.904
REMARK  Name = 
REMARK  8 active torsions:
REMARK  status: ('A' for Active; 'I' for Inactive)
REMARK    1  A    between atoms: C_1  and  O_2
REMARK    2  A    between atoms: O_2  and  C_3
REMARK    3  A    between atoms: C_7  and  N_8
REMARK    4  A    between atoms: N_8  and  C_9
REMARK    5  A    between atoms: C_9  and  C_10
REMARK    6  A    between atoms: C_15  and  C_16
REMARK    7  A    between atoms: C_19  and  O_20
REMARK    8  A    between atoms: O_20  and  C_21
REMARK                            x       y       z     vdW  Elec       q    Type
REMARK                         _______ _______ _______ _____ _____    ______ ____
ROOT
ATOM      1  C   UNL     1      45.460   5.684  12.209  0.00  0.00    +0.000 A 
ATOM      2  C   UNL     1      46.302   6.546  11.504  0.00  0.00    +0.000 A 
ATOM      3  C   UNL     1      47.537   6.888  12.040  0.00  0.00    +0.000 A 
ATOM      4  F   UNL     1      48.336   7.725  11.371  0.00  0.00    +0.000 F 
ATOM      5  C   UNL     1      47.956   6.382  13.271  0.00  0.00    +0.000 A 
ATOM      6  C   UNL     1      47.144   5.499  13.998  0.00  0.00    +0.000 A 
ATOM      7  C   UNL     1      45.900   5.152  13.434  0.00  0.00    +0.000 A 
ENDROOT
BRANCH   6   8
ATOM      8  C   UNL     1      47.559   4.964  15.313  0.00  0.00    +0.000 A 
ATOM      9  C   UNL     1      47.179   3.696  15.772  0.00  0.00    +0.000 A 
ATOM     10  C   UNL     1      47.599   3.237  17.022  0.00  0.00    +0.000 A 
ATOM     11  C   UNL     1      48.388   4.068  17.799  0.00  0.00    +0.000 A 
ATOM     12  N   UNL     1      48.782   5.294  17.406  0.00  0.00    +0.000 NA
ATOM     13  C   UNL     1      48.367   5.701  16.185  0.00  0.00    +0.000 A 
BRANCH  11  14
ATOM     14  O   UNL     1      48.775   3.587  19.032  0.00  0.00    +0.000 OA
ATOM     15  C   UNL     1      48.849   4.614  20.018  0.00  0.00    +0.000 C 
ENDBRANCH  11  14
ENDBRANCH   6   8
BRANCH   1  16
ATOM     16  C   UNL     1      44.107   5.308  11.662  0.00  0.00    +0.000 C 
BRANCH  16  17
ATOM     17  N   UNL     1      44.137   5.351  10.212  0.00  0.00    +0.000 N 
ATOM     18  H   UNL     1      44.445   6.242   9.828  0.00  0.00    +0.000 HD
BRANCH  17  23
ATOM     19  C   UNL     1      45.970   3.211   7.765  0.00  0.00    +0.000 A 
ATOM     20  C   UNL     1      45.585   1.979   8.275  0.00  0.00    +0.000 A 
ATOM     21  N   UNL     1      44.760   1.817   9.333  0.00  0.00    +0.000 NA
ATOM     22  C   UNL     1      44.302   2.953   9.911  0.00  0.00    +0.000 A 
ATOM     23  C   UNL     1      44.595   4.253   9.482  0.00  0.00    +0.000 A 
ATOM     24  C   UNL     1      45.472   4.352   8.395  0.00  0.00    +0.000 A 
BRANCH  19  26
ATOM     25  C   UNL     1      47.941   2.324   6.785  0.00  0.00    +0.000 C 
ATOM     26  O   UNL     1      46.814   3.188   6.692  0.00  0.00    +0.000 OA
ENDBRANCH  19  26
ENDBRANCH  17  23
ENDBRANCH  16  17
ENDBRANCH   1  16
TORSDOF 6
ENDMDL
MODEL 4
REMARK VINA RESULT:    -6.576      2.908      7.483
REMARK INTER + INTRA:          -9.787
REMARK INTER:                  -9.058
REMARK INTRA:                  -0.729
REMARK UNBOUND:                -0.904
REMARK  Name = 
REMARK  8 active torsions:
REMARK  status: ('A' for Active; 'I' for Inactive)
REMARK    1  A    between atoms: C_1  and  O_2
REMARK    2  A    between atoms: O_2  and  C_3
REMARK    3  A    between atoms: C_7  and  N_8
REMARK    4  A    between atoms: N_8  and  C_9
REMARK    5  A    between atoms: C_9  and  C_10
REMARK    6  A    between atoms: C_15  and  C_16
REMARK    7  A    between atoms: C_19  and  O_20
REMARK    8  A    between atoms: O_20  and  C_21
REMARK                            x       y       z     vdW  Elec       q    Type
REMARK                         _______ _______ _______ _____ _____    ______ ____
ROOT
ATOM      1  C   UNL     1      45.090   6.756  11.693  0.00  0.00    +0.000 A 
ATOM      2  C   UNL     1      43.741   6.616  12.028  0.00  0.00    +0.000 A 
ATOM      3  C   UNL     1      42.986   5.617  11.430  0.00  0.00    +0.000 A 
ATOM      4  F   UNL     1      41.691   5.494  11.742  0.00  0.00    +0.000 F 
ATOM      5  C   UNL     1      43.550   4.743  10.500  0.00  0.00    +0.000 A 
ATOM      6  C   UNL     1      44.905   4.841  10.152  0.00  0.00    +0.000 A 
ATOM      7  C   UNL     1      45.661   5.853  10.779  0.00  0.00    +0.000 A 
ENDROOT
BRANCH   6   8
ATOM      8  C   UNL     1      45.520   3.938   9.156  0.00  0.00    +0.000 A 
ATOM      9  C   UNL     1      46.221   4.407   8.037  0.00  0.00    +0.000 A 
ATOM     10  C   UNL     1      46.786   3.511   7.125  0.00  0.00    +0.000 A 
ATOM     11  C   UNL     1      46.625   2.155   7.349  0.00  0.00    +0.000 A 
ATOM     12  N   UNL     1      45.962   1.652   8.407  0.00  0.00    +0.000 NA
ATOM     13  C   UNL     1      45.440   2.547   9.275  0.00  0.00    +0.000 A 
BRANCH  11  14
ATOM     14  O   UNL     1      47.185   1.300   6.423  0.00  0.00    +0.000 OA
ATOM     15  C   UNL     1      47.900   1.994   5.403  0.00  0.00    +0.000 C 
ENDBRANCH  11  14
ENDBRANCH   6   8
BRANCH   1  16
ATOM     16  C   UNL     1      45.932   7.842  12.311  0.00  0.00    +0.000 C 
BRANCH  16  17
ATOM     17  N   UNL     1      47.330   7.613  11.999  0.00  0.00    +0.000 N 
ATOM     18  H   UNL     1      47.693   8.206  11.255  0.00  0.00    +0.000 HD
BRANCH  17  23
ATOM     19  C   UNL     1      50.279   7.910  14.266  0.00  0.00    +0.000 A 
ATOM     20  C   UNL     1      49.877   6.977  15.212  0.00  0.00    +0.000 A 
ATOM     21  N   UNL     1      48.734   6.259  15.136  0.00  0.00    +0.000 NA
ATOM     22  C   UNL     1      47.955   6.494  14.054  0.00  0.00    +0.000 A 
ATOM     23  C   UNL     1      48.255   7.388  13.020  0.00  0.00    +0.000 A 
ATOM     24  C   UNL     1      49.441   8.116  13.170  0.00  0.00    +0.000 A 
BRANCH  19  26
ATOM     25  C   UNL     1      52.356   8.672  13.405  0.00  0.00    +0.000 C 
ATOM     26  O   UNL     1      51.463   8.547  14.506  0.00  0.00    +0.000 OA
ENDBRANCH  19  26
ENDBRANCH  17  23
ENDBRANCH  16  17
ENDBRANCH   1  16
TORSDOF 6
ENDMDL
MODEL 5
REMARK VINA RESULT:    -6.505      3.349      7.164
REMARK INTER + INTRA:          -9.690
REMARK INTER:                  -8.755
REMARK INTRA:                  -0.935
REMARK UNBOUND:                -0.904
REMARK  Name = 
REMARK  8 active torsions:
REMARK  status: ('A' for Active; 'I' for Inactive)
REMARK    1  A    between atoms: C_1  and  O_2
REMARK    2  A    between atoms: O_2  and  C_3
REMARK    3  A    between atoms: C_7  and  N_8
REMARK    4  A    between atoms: N_8  and  C_9
REMARK    5  A    between atoms: C_9  and  C_10
REMARK    6  A    between atoms: C_15  and  C_16
REMARK    7  A    between atoms: C_19  and  O_20
REMARK    8  A    between atoms: O_20  and  C_21
REMARK                            x       y       z     vdW  Elec       q    Type
REMARK                         _______ _______ _______ _____ _____    ______ ____
ROOT
ATOM      1  C   UNL     1      44.808   6.612  11.975  0.00  0.00    +0.000 A 
ATOM      2  C   UNL     1      44.044   5.946  12.936  0.00  0.00    +0.000 A 
ATOM      3  C   UNL     1      43.732   4.605  12.755  0.00  0.00    +0.000 A 
ATOM      4  F   UNL     1      42.988   3.973  13.668  0.00  0.00    +0.000 F 
ATOM      5  C   UNL     1      44.172   3.906  11.630  0.00  0.00    +0.000 A 
ATOM      6  C   UNL     1      44.957   4.537  10.654  0.00  0.00    +0.000 A 
ATOM      7  C   UNL     1      45.276   5.895  10.860  0.00  0.00    +0.000 A 
ENDROOT
BRANCH   6   8
ATOM      8  C   UNL     1      45.420   3.822   9.445  0.00  0.00    +0.000 A 
ATOM      9  C   UNL     1      45.418   2.424   9.342  0.00  0.00    +0.000 A 
ATOM     10  C   UNL     1      45.864   1.797   8.176  0.00  0.00    +0.000 A 
ATOM     11  C   UNL     1      46.317   2.588   7.135  0.00  0.00    +0.000 A 
ATOM     12  N   UNL     1      46.338   3.932   7.181  0.00  0.00    +0.000 NA
ATOM     13  C   UNL     1      45.888   4.507   8.319  0.00  0.00    +0.000 A 
BRANCH  11  14
ATOM     14  O   UNL     1      46.760   1.935   6.004  0.00  0.00    +0.000 OA
ATOM     15  C   UNL     1      47.824   2.629   5.355  0.00  0.00    +0.000 C 
ENDBRANCH  11  14
ENDBRANCH   6   8
BRANCH   1  16
ATOM     16  C   UNL     1      45.148   8.071  12.134  0.00  0.00    +0.000 C 
BRANCH  16  17
ATOM     17  N   UNL     1      46.027   8.246  13.275  0.00  0.00    +0.000 N 
ATOM     18  H   UNL     1      45.622   7.952  14.162  0.00  0.00    +0.000 HD
BRANCH  17  23
ATOM     19  C   UNL     1      49.593   8.217  12.177  0.00  0.00    +0.000 A 
ATOM     20  C   UNL     1      50.100   7.456  13.223  0.00  0.00    +0.000 A 
ATOM     21  N   UNL     1      49.352   6.946  14.226  0.00  0.00    +0.000 NA
ATOM     22  C   UNL     1      48.026   7.219  14.178  0.00  0.00    +0.000 A 
ATOM     23  C   UNL     1      47.388   7.953  13.171  0.00  0.00    +0.000 A 
ATOM     24  C   UNL     1      48.222   8.470  12.173  0.00  0.00    +0.000 A 
BRANCH  19  26
ATOM     25  C   UNL     1      51.400   7.685  10.734  0.00  0.00    +0.000 C 
ATOM     26  O   UNL     1      50.497   8.654  11.251  0.00  0.00    +0.000 OA
ENDBRANCH  19  26
ENDBRANCH  17  23
ENDBRANCH  16  17
ENDBRANCH   1  16
TORSDOF 6
ENDMDL
MODEL 6
REMARK VINA RESULT:    -6.462      2.149      7.618
REMARK INTER + INTRA:          -9.632
REMARK INTER:                  -8.916
REMARK INTRA:                  -0.717
REMARK UNBOUND:                -0.904
REMARK  Name = 
REMARK  8 active torsions:
REMARK  status: ('A' for Active; 'I' for Inactive)
REMARK    1  A    between atoms: C_1  and  O_2
REMARK    2  A    between atoms: O_2  and  C_3
REMARK    3  A    between atoms: C_7  and  N_8
REMARK    4  A    between atoms: N_8  and  C_9
REMARK    5  A    between atoms: C_9  and  C_10
REMARK    6  A    between atoms: C_15  and  C_16
REMARK    7  A    between atoms: C_19  and  O_20
REMARK    8  A    between atoms: O_20  and  C_21
REMARK                            x       y       z     vdW  Elec       q    Type
REMARK                         _______ _______ _______ _____ _____    ______ ____
ROOT
ATOM      1  C   UNL     1      47.341   7.821  13.305  0.00  0.00    +0.000 A 
ATOM      2  C   UNL     1      46.491   8.929  13.283  0.00  0.00    +0.000 A 
ATOM      3  C   UNL     1      45.337   8.894  12.512  0.00  0.00    +0.000 A 
ATOM      4  F   UNL     1      44.533   9.961  12.481  0.00  0.00    +0.000 F 
ATOM      5  C   UNL     1      45.006   7.767  11.758  0.00  0.00    +0.000 A 
ATOM      6  C   UNL     1      45.825   6.628  11.770  0.00  0.00    +0.000 A 
ATOM      7  C   UNL     1      46.986   6.676  12.569  0.00  0.00    +0.000 A 
ENDROOT
BRANCH   6   8
ATOM      8  C   UNL     1      45.504   5.430  10.966  0.00  0.00    +0.000 A 
ATOM      9  C   UNL     1      45.647   5.389   9.573  0.00  0.00    +0.000 A 
ATOM     10  C   UNL     1      45.331   4.230   8.859  0.00  0.00    +0.000 A 
ATOM     11  C   UNL     1      44.864   3.132   9.559  0.00  0.00    +0.000 A 
ATOM     12  N   UNL     1      44.709   3.117  10.896  0.00  0.00    +0.000 NA
ATOM     13  C   UNL     1      45.036   4.252  11.556  0.00  0.00    +0.000 A 
BRANCH  11  14
ATOM     14  O   UNL     1      44.551   2.009   8.822  0.00  0.00    +0.000 OA
ATOM     15  C   UNL     1      45.711   1.316   8.367  0.00  0.00    +0.000 C 
ENDBRANCH  11  14
ENDBRANCH   6   8
BRANCH   1  16
ATOM     16  C   UNL     1      48.609   7.835  14.118  0.00  0.00    +0.000 C 
BRANCH  16  17
ATOM     17  N   UNL     1      48.301   7.562  15.509  0.00  0.00    +0.000 N 
ATOM     18  H   UNL     1      47.307   7.592  15.729  0.00  0.00    +0.000 HD
BRANCH  17  23
ATOM     19  C   UNL     1      49.121   4.401  17.314  0.00  0.00    +0.000 A 
ATOM     20  C   UNL     1      50.499   4.564  17.353  0.00  0.00    +0.000 A 
ATOM     21  N   UNL     1      51.153   5.637  16.854  0.00  0.00    +0.000 NA
ATOM     22  C   UNL     1      50.381   6.593  16.284  0.00  0.00    +0.000 A 
ATOM     23  C   UNL     1      48.984   6.560  16.201  0.00  0.00    +0.000 A 
ATOM     24  C   UNL     1      48.370   5.412  16.716  0.00  0.00    +0.000 A 
BRANCH  19  26
ATOM     25  C   UNL     1      47.275   2.932  17.573  0.00  0.00    +0.000 C 
ATOM     26  O   UNL     1      48.631   3.250  17.863  0.00  0.00    +0.000 OA
ENDBRANCH  19  26
ENDBRANCH  17  23
ENDBRANCH  16  17
ENDBRANCH   1  16
TORSDOF 6
ENDMDL
MODEL 7
REMARK VINA RESULT:    -6.296      3.896      4.922
REMARK INTER + INTRA:          -9.408
REMARK INTER:                  -8.574
REMARK INTRA:                  -0.835
REMARK UNBOUND:                -0.904
REMARK  Name = 
REMARK  8 active torsions:
REMARK  status: ('A' for Active; 'I' for Inactive)
REMARK    1  A    between atoms: C_1  and  O_2
REMARK    2  A    between atoms: O_2  and  C_3
REMARK    3  A    between atoms: C_7  and  N_8
REMARK    4  A    between atoms: N_8  and  C_9
REMARK    5  A    between atoms: C_9  and  C_10
REMARK    6  A    between atoms: C_15  and  C_16
REMARK    7  A    between atoms: C_19  and  O_20
REMARK    8  A    between atoms: O_20  and  C_21
REMARK                            x       y       z     vdW  Elec       q    Type
REMARK                         _______ _______ _______ _____ _____    ______ ____
ROOT
ATOM      1  C   UNL     1      46.189   6.697  12.214  0.00  0.00    +0.000 A 
ATOM      2  C   UNL     1      45.254   7.709  12.436  0.00  0.00    +0.000 A 
ATOM      3  C   UNL     1      45.655   9.037  12.380  0.00  0.00    +0.000 A 
ATOM      4  F   UNL     1      44.761  10.005  12.607  0.00  0.00    +0.000 F 
ATOM      5  C   UNL     1      46.978   9.382  12.100  0.00  0.00    +0.000 A 
ATOM      6  C   UNL     1      47.941   8.392  11.854  0.00  0.00    +0.000 A 
ATOM      7  C   UNL     1      47.514   7.049  11.901  0.00  0.00    +0.000 A 
ENDROOT
BRANCH   6   8
ATOM      8  C   UNL     1      49.353   8.732  11.574  0.00  0.00    +0.000 A 
ATOM      9  C   UNL     1      49.808  10.052  11.459  0.00  0.00    +0.000 A 
ATOM     10  C   UNL     1      51.153  10.320  11.195  0.00  0.00    +0.000 A 
ATOM     11  C   UNL     1      52.019   9.252  11.039  0.00  0.00    +0.000 A 
ATOM     12  N   UNL     1      51.635   7.966  11.141  0.00  0.00    +0.000 NA
ATOM     13  C   UNL     1      50.328   7.743  11.409  0.00  0.00    +0.000 A 
BRANCH  11  14
ATOM     14  O   UNL     1      53.338   9.553  10.768  0.00  0.00    +0.000 OA
ATOM     15  C   UNL     1      53.965   8.567   9.951  0.00  0.00    +0.000 C 
ENDBRANCH  11  14
ENDBRANCH   6   8
BRANCH   1  16
ATOM     16  C   UNL     1      45.789   5.246  12.285  0.00  0.00    +0.000 C 
BRANCH  16  17
ATOM     17  N   UNL     1      44.664   5.005  11.401  0.00  0.00    +0.000 N 
ATOM     18  H   UNL     1      44.061   5.814  11.264  0.00  0.00    +0.000 HD
BRANCH  17  23
ATOM     19  C   UNL     1      45.740   3.834   8.025  0.00  0.00    +0.000 A 
ATOM     20  C   UNL     1      45.246   2.540   8.114  0.00  0.00    +0.000 A 
ATOM     21  N   UNL     1      44.577   2.052   9.182  0.00  0.00    +0.000 NA
ATOM     22  C   UNL     1      44.398   2.910  10.215  0.00  0.00    +0.000 A 
ATOM     23  C   UNL     1      44.826   4.242  10.242  0.00  0.00    +0.000 A 
ATOM     24  C   UNL     1      45.531   4.679   9.115  0.00  0.00    +0.000 A 
BRANCH  19  26
ATOM     25  C   UNL     1      46.782   3.073   6.033  0.00  0.00    +0.000 C 
ATOM     26  O   UNL     1      46.396   4.156   6.871  0.00  0.00    +0.000 OA
ENDBRANCH  19  26
ENDBRANCH  17  23
ENDBRANCH  16  17
ENDBRANCH   1  16
TORSDOF 6
ENDMDL
MODEL 8
REMARK VINA RESULT:    -6.256      1.971      7.374
REMARK INTER + INTRA:          -9.355
REMARK INTER:                  -8.582
REMARK INTRA:                  -0.773
REMARK UNBOUND:                -0.904
REMARK  Name = 
REMARK  8 active torsions:
REMARK  status: ('A' for Active; 'I' for Inactive)
REMARK    1  A    between atoms: C_1  and  O_2
REMARK    2  A    between atoms: O_2  and  C_3
REMARK    3  A    between atoms: C_7  and  N_8
REMARK    4  A    between atoms: N_8  and  C_9
REMARK    5  A    between atoms: C_9  and  C_10
REMARK    6  A    between atoms: C_15  and  C_16
REMARK    7  A    between atoms: C_19  and  O_20
REMARK    8  A    between atoms: O_20  and  C_21
REMARK                            x       y       z     vdW  Elec       q    Type
REMARK                         _______ _______ _______ _____ _____    ______ ____
ROOT
ATOM      1  C   UNL     1      48.060   7.378  14.213  0.00  0.00    +0.000 A 
ATOM      2  C   UNL     1      47.779   8.706  13.886  0.00  0.00    +0.000 A 
ATOM      3  C   UNL     1      46.905   8.985  12.844  0.00  0.00    +0.000 A 
ATOM      4  F   UNL     1      46.648  10.257  12.522  0.00  0.00    +0.000 F 
ATOM      5  C   UNL     1      46.297   7.961  12.117  0.00  0.00    +0.000 A 
ATOM      6  C   UNL     1      46.541   6.615  12.429  0.00  0.00    +0.000 A 
ATOM      7  C   UNL     1      47.421   6.350  13.499  0.00  0.00    +0.000 A 
ENDROOT
BRANCH   6   8
ATOM      8  C   UNL     1      45.923   5.513  11.662  0.00  0.00    +0.000 A 
ATOM      9  C   UNL     1      45.507   4.314  12.255  0.00  0.00    +0.000 A 
ATOM     10  C   UNL     1      44.926   3.304  11.484  0.00  0.00    +0.000 A 
ATOM     11  C   UNL     1      44.783   3.512  10.124  0.00  0.00    +0.000 A 
ATOM     12  N   UNL     1      45.163   4.645   9.504  0.00  0.00    +0.000 NA
ATOM     13  C   UNL     1      45.711   5.606  10.282  0.00  0.00    +0.000 A 
BRANCH  11  14
ATOM     14  O   UNL     1      44.216   2.490   9.392  0.00  0.00    +0.000 OA
ATOM     15  C   UNL     1      45.193   1.654   8.776  0.00  0.00    +0.000 C 
ENDBRANCH  11  14
ENDBRANCH   6   8
BRANCH   1  16
ATOM     16  C   UNL     1      49.018   7.043  15.328  0.00  0.00    +0.000 C 
BRANCH  16  17
ATOM     17  N   UNL     1      48.280   6.541  16.471  0.00  0.00    +0.000 N 
ATOM     18  H   UNL     1      47.382   6.995  16.620  0.00  0.00    +0.000 HD
BRANCH  17  23
ATOM     19  C   UNL     1      49.304   3.059  17.342  0.00  0.00    +0.000 A 
ATOM     20  C   UNL     1      48.031   2.529  17.503  0.00  0.00    +0.000 A 
ATOM     21  N   UNL     1      46.887   3.227  17.322  0.00  0.00    +0.000 NA
ATOM     22  C   UNL     1      47.032   4.525  16.965  0.00  0.00    +0.000 A 
ATOM     23  C   UNL     1      48.253   5.172  16.749  0.00  0.00    +0.000 A 
ATOM     24  C   UNL     1      49.400   4.401  16.974  0.00  0.00    +0.000 A 
BRANCH  19  26
ATOM     25  C   UNL     1      51.635   2.802  17.709  0.00  0.00    +0.000 C 
ATOM     26  O   UNL     1      50.349   2.210  17.571  0.00  0.00    +0.000 OA
ENDBRANCH  19  26
ENDBRANCH  17  23
ENDBRANCH  16  17
ENDBRANCH   1  16
TORSDOF 6
ENDMDL
MODEL 9
REMARK VINA RESULT:    -6.247      2.254      3.090
REMARK INTER + INTRA:          -9.343
REMARK INTER:                  -8.586
REMARK INTRA:                  -0.756
REMARK UNBOUND:                -0.904
REMARK  Name = 
REMARK  8 active torsions:
REMARK  status: ('A' for Active; 'I' for Inactive)
REMARK    1  A    between atoms: C_1  and  O_2
REMARK    2  A    between atoms: O_2  and  C_3
REMARK    3  A    between atoms: C_7  and  N_8
REMARK    4  A    between atoms: N_8  and  C_9
REMARK    5  A    between atoms: C_9  and  C_10
REMARK    6  A    between atoms: C_15  and  C_16
REMARK    7  A    between atoms: C_19  and  O_20
REMARK    8  A    between atoms: O_20  and  C_21
REMARK                            x       y       z     vdW  Elec       q    Type
REMARK                         _______ _______ _______ _____ _____    ______ ____
ROOT
ATOM      1  C   UNL     1      46.623   7.301  12.253  0.00  0.00    +0.000 A 
ATOM      2  C   UNL     1      47.777   7.718  11.587  0.00  0.00    +0.000 A 
ATOM      3  C   UNL     1      49.020   7.502  12.166  0.00  0.00    +0.000 A 
ATOM      4  F   UNL     1      50.123   7.914  11.533  0.00  0.00    +0.000 F 
ATOM      5  C   UNL     1      49.139   6.869  13.404  0.00  0.00    +0.000 A 
ATOM      6  C   UNL     1      48.004   6.421  14.095  0.00  0.00    +0.000 A 
ATOM      7  C   UNL     1      46.751   6.637  13.486  0.00  0.00    +0.000 A 
ENDROOT
BRANCH   6   8
ATOM      8  C   UNL     1      48.105   5.765  15.416  0.00  0.00    +0.000 A 
ATOM      9  C   UNL     1      48.909   6.260  16.451  0.00  0.00    +0.000 A 
ATOM     10  C   UNL     1      48.968   5.603  17.682  0.00  0.00    +0.000 A 
ATOM     11  C   UNL     1      48.224   4.448  17.849  0.00  0.00    +0.000 A 
ATOM     12  N   UNL     1      47.434   3.931  16.890  0.00  0.00    +0.000 NA
ATOM     13  C   UNL     1      47.392   4.599  15.715  0.00  0.00    +0.000 A 
BRANCH  11  14
ATOM     14  O   UNL     1      48.314   3.820  19.074  0.00  0.00    +0.000 OA
ATOM     15  C   UNL     1      48.929   4.642  20.064  0.00  0.00    +0.000 C 
ENDBRANCH  11  14
ENDBRANCH   6   8
BRANCH   1  16
ATOM     16  C   UNL     1      45.259   7.538  11.659  0.00  0.00    +0.000 C 
BRANCH  16  17
ATOM     17  N   UNL     1      44.271   6.752  12.374  0.00  0.00    +0.000 N 
ATOM     18  H   UNL     1      43.428   7.266  12.619  0.00  0.00    +0.000 HD
BRANCH  17  23
ATOM     19  C   UNL     1      44.028   3.580  10.423  0.00  0.00    +0.000 A 
ATOM     20  C   UNL     1      43.682   2.743  11.476  0.00  0.00    +0.000 A 
ATOM     21  N   UNL     1      43.506   3.157  12.751  0.00  0.00    +0.000 NA
ATOM     22  C   UNL     1      43.690   4.479  12.979  0.00  0.00    +0.000 A 
ATOM     23  C   UNL     1      44.017   5.429  12.004  0.00  0.00    +0.000 A 
ATOM     24  C   UNL     1      44.207   4.933  10.709  0.00  0.00    +0.000 A 
BRANCH  19  26
ATOM     25  C   UNL     1      45.231   2.053   9.061  0.00  0.00    +0.000 C 
ATOM     26  O   UNL     1      44.169   2.989   9.200  0.00  0.00    +0.000 OA
ENDBRANCH  19  26
ENDBRANCH  17  23
ENDBRANCH  16  17
ENDBRANCH   1  16
TORSDOF 6
ENDMDL
