MODEL 1
REMARK VINA RESULT:    -8.840      0.000      0.000
REMARK INTER + INTRA:         -14.008
REMARK INTER:                 -12.715
REMARK INTRA:                  -1.292
REMARK UNBOUND:                -1.292
REMARK  Name = 
REMARK  8 active torsions:
REMARK  status: ('A' for Active; 'I' for Inactive)
REMARK    1  A    between atoms: C_2  and  C_21
REMARK    2  A    between atoms: N_3  and  C_4
REMARK    3  A    between atoms: C_4  and  C_5
REMARK    4  A    between atoms: C_8  and  C_9
REMARK    5  A    between atoms: C_9  and  C_10
REMARK    6  A    between atoms: C_10  and  O_11
REMARK    7  A    between atoms: C_10  and  C_12
REMARK    8  A    between atoms: C_12  and  C_13
REMARK                            x       y       z     vdW  Elec       q    Type
REMARK                         _______ _______ _______ _____ _____    ______ ____
ROOT
ATOM      1  C   UNL     1      46.141   7.085  12.441  0.00  0.00    +0.000 A 
ATOM      2  C   UNL     1      46.607   6.653  11.192  0.00  0.00    +0.000 A 
ATOM      3  C   UNL     1      45.863   5.751  10.426  0.00  0.00    +0.000 A 
ATOM      4  C   UNL     1      44.634   5.263  10.889  0.00  0.00    +0.000 A 
ATOM      5  C   UNL     1      44.149   5.730  12.119  0.00  0.00    +0.000 A 
ATOM      6  C   UNL     1      44.891   6.637  12.883  0.00  0.00    +0.000 A 
ENDROOT
BRANCH   1   7
ATOM      7  C   UNL     1      46.957   8.041  13.273  0.00  0.00    +0.000 C 
BRANCH   7  10
ATOM      8  O   UNL     1      49.376   6.669  13.546  0.00  0.00    +0.000 OA
ATOM      9  C   UNL     1      48.664   6.818  14.534  0.00  0.00    +0.000 C 
ATOM     10  N   UNL     1      47.427   7.405  14.475  0.00  0.00    +0.000 N 
ATOM     11  H   UNL     1      46.975   7.694  15.334  0.00  0.00    +0.000 HD
BRANCH   9  12
ATOM     12  C   UNL     1      49.069   6.330  15.856  0.00  0.00    +0.000 A 
ATOM     13  C   UNL     1      50.046   6.993  16.584  0.00  0.00    +0.000 A 
ATOM     14  S   UNL     1      50.391   6.254  18.085  0.00  0.00    +0.000 S 
ATOM     15  C   UNL     1      49.217   5.049  17.827  0.00  0.00    +0.000 A 
ATOM     16  N   UNL     1      48.978   4.086  18.757  0.00  0.00    +0.000 NA
ATOM     17  C   UNL     1      48.033   3.261  18.442  0.00  0.00    +0.000 A 
ATOM     18  N   UNL     1      47.309   3.315  17.279  0.00  0.00    +0.000 N 
ATOM     19  C   UNL     1      47.544   4.240  16.296  0.00  0.00    +0.000 A 
ATOM     20  O   UNL     1      46.922   4.209  15.239  0.00  0.00    +0.000 OA
ATOM     21  C   UNL     1      48.580   5.202  16.609  0.00  0.00    +0.000 A 
ATOM     22  H   UNL     1      46.593   2.627  17.082  0.00  0.00    +0.000 HD
ENDBRANCH   9  12
ENDBRANCH   7  10
ENDBRANCH   1   7
BRANCH   4  23
ATOM     23  C   UNL     1      43.849   4.245  10.087  0.00  0.00    +0.000 C 
BRANCH  23  24
ATOM     24  C   UNL     1      44.296   2.790  10.345  0.00  0.00    +0.000 C 
BRANCH  24  25
ATOM     25  O   UNL     1      43.411   2.192  11.301  0.00  0.00    +0.000 OA
ATOM     26  H   UNL     1      43.877   1.456  11.726  0.00  0.00    +0.000 HD
ENDBRANCH  24  25
BRANCH  24  27
ATOM     27  C   UNL     1      44.290   1.964   9.047  0.00  0.00    +0.000 C 
BRANCH  27  28
ATOM     28  C   UNL     1      45.524   2.185   8.197  0.00  0.00    +0.000 A 
ATOM     29  C   UNL     1      46.442   1.142   7.999  0.00  0.00    +0.000 A 
ATOM     30  C   UNL     1      47.565   1.327   7.190  0.00  0.00    +0.000 A 
ATOM     31  C   UNL     1      47.787   2.557   6.577  0.00  0.00    +0.000 A 
ATOM     32  C   UNL     1      46.900   3.610   6.794  0.00  0.00    +0.000 A 
ATOM     33  C   UNL     1      45.776   3.428   7.604  0.00  0.00    +0.000 A 
ENDBRANCH  27  28
ENDBRANCH  24  27
ENDBRANCH  23  24
ENDBRANCH   4  23
TORSDOF 8
ENDMDL
MODEL 2
REMARK VINA RESULT:    -8.307      1.757      2.167
REMARK INTER + INTRA:         -13.242
REMARK INTER:                 -12.290
REMARK INTRA:                  -0.952
REMARK UNBOUND:                -1.292
REMARK  Name = 
REMARK  8 active torsions:
REMARK  status: ('A' for Active; 'I' for Inactive)
REMARK    1  A    between atoms: C_2  and  C_21
REMARK    2  A    between atoms: N_3  and  C_4
REMARK    3  A    between atoms: C_4  and  C_5
REMARK    4  A    between atoms: C_8  and  C_9
REMARK    5  A    between atoms: C_9  and  C_10
REMARK    6  A    between atoms: C_10  and  O_11
REMARK    7  A    between atoms: C_10  and  C_12
REMARK    8  A    between atoms: C_12  and  C_13
REMARK                            x       y       z     vdW  Elec       q    Type
REMARK                         _______ _______ _______ _____ _____    ______ ____
ROOT
ATOM      1  C   UNL     1      47.389   6.364  13.209  0.00  0.00    +0.000 A 
ATOM      2  C   UNL     1      46.962   6.889  11.983  0.00  0.00    +0.000 A 
ATOM      3  C   UNL     1      45.890   6.314  11.294  0.00  0.00    +0.000 A 
ATOM      4  C   UNL     1      45.217   5.203  11.818  0.00  0.00    +0.000 A 
ATOM      5  C   UNL     1      45.617   4.705  13.067  0.00  0.00    +0.000 A 
ATOM      6  C   UNL     1      46.686   5.285  13.758  0.00  0.00    +0.000 A 
ENDROOT
BRANCH   1   7
ATOM      7  C   UNL     1      48.559   6.974  13.937  0.00  0.00    +0.000 C 
BRANCH   7  10
ATOM      8  O   UNL     1      50.361   6.209  15.930  0.00  0.00    +0.000 OA
ATOM      9  C   UNL     1      49.286   6.701  16.260  0.00  0.00    +0.000 C 
ATOM     10  N   UNL     1      48.312   7.029  15.353  0.00  0.00    +0.000 N 
ATOM     11  H   UNL     1      47.542   7.620  15.646  0.00  0.00    +0.000 HD
BRANCH   9  12
ATOM     12  C   UNL     1      48.943   6.933  17.667  0.00  0.00    +0.000 A 
ATOM     13  C   UNL     1      48.684   8.215  18.128  0.00  0.00    +0.000 A 
ATOM     14  S   UNL     1      48.329   8.275  19.798  0.00  0.00    +0.000 S 
ATOM     15  C   UNL     1      48.470   6.586  19.948  0.00  0.00    +0.000 A 
ATOM     16  N   UNL     1      48.264   5.963  21.139  0.00  0.00    +0.000 NA
ATOM     17  C   UNL     1      48.368   4.675  21.095  0.00  0.00    +0.000 A 
ATOM     18  N   UNL     1      48.662   3.957  19.964  0.00  0.00    +0.000 N 
ATOM     19  C   UNL     1      48.920   4.544  18.753  0.00  0.00    +0.000 A 
ATOM     20  O   UNL     1      49.250   3.869  17.782  0.00  0.00    +0.000 OA
ATOM     21  C   UNL     1      48.795   5.987  18.744  0.00  0.00    +0.000 A 
ATOM     22  H   UNL     1      48.750   2.949  19.998  0.00  0.00    +0.000 HD
ENDBRANCH   9  12
ENDBRANCH   7  10
ENDBRANCH   1   7
BRANCH   4  23
ATOM     23  C   UNL     1      44.089   4.543  11.052  0.00  0.00    +0.000 C 
BRANCH  23  24
ATOM     24  C   UNL     1      44.524   3.258  10.314  0.00  0.00    +0.000 C 
BRANCH  24  25
ATOM     25  O   UNL     1      43.673   2.177  10.717  0.00  0.00    +0.000 OA
ATOM     26  H   UNL     1      43.605   2.190  11.685  0.00  0.00    +0.000 HD
ENDBRANCH  24  25
BRANCH  24  27
ATOM     27  C   UNL     1      44.446   3.436   8.787  0.00  0.00    +0.000 C 
BRANCH  27  28
ATOM     28  C   UNL     1      45.608   2.797   8.055  0.00  0.00    +0.000 A 
ATOM     29  C   UNL     1      46.359   3.543   7.134  0.00  0.00    +0.000 A 
ATOM     30  C   UNL     1      47.452   2.974   6.479  0.00  0.00    +0.000 A 
ATOM     31  C   UNL     1      47.802   1.650   6.732  0.00  0.00    +0.000 A 
ATOM     32  C   UNL     1      47.044   0.889   7.619  0.00  0.00    +0.000 A 
ATOM     33  C   UNL     1      45.948   1.457   8.275  0.00  0.00    +0.000 A 
ENDBRANCH  27  28
ENDBRANCH  24  27
ENDBRANCH  23  24
ENDBRANCH   4  23
TORSDOF 8
ENDMDL
MODEL 3
REMARK VINA RESULT:    -7.843      2.596      3.460
REMARK INTER + INTRA:         -12.575
REMARK INTER:                 -11.407
REMARK INTRA:                  -1.167
REMARK UNBOUND:                -1.292
REMARK  Name = 
REMARK  8 active torsions:
REMARK  status: ('A' for Active; 'I' for Inactive)
REMARK    1  A    between atoms: C_2  and  C_21
REMARK    2  A    between atoms: N_3  and  C_4
REMARK    3  A    between atoms: C_4  and  C_5
REMARK    4  A    between atoms: C_8  and  C_9
REMARK    5  A    between atoms: C_9  and  C_10
REMARK    6  A    between atoms: C_10  and  O_11
REMARK    7  A    between atoms: C_10  and  C_12
REMARK    8  A    between atoms: C_12  and  C_13
REMARK                            x       y       z     vdW  Elec       q    Type
REMARK                         _______ _______ _______ _____ _____    ______ ____
ROOT
ATOM      1  C   UNL     1      46.856   4.763  14.716  0.00  0.00    +0.000 A 
ATOM      2  C   UNL     1      45.995   3.982  13.934  0.00  0.00    +0.000 A 
ATOM      3  C   UNL     1      45.712   4.336  12.612  0.00  0.00    +0.000 A 
ATOM      4  C   UNL     1      46.289   5.476  12.038  0.00  0.00    +0.000 A 
ATOM      5  C   UNL     1      47.185   6.233  12.807  0.00  0.00    +0.000 A 
ATOM      6  C   UNL     1      47.471   5.875  14.129  0.00  0.00    +0.000 A 
ENDROOT
BRANCH   1   7
ATOM      7  C   UNL     1      47.140   4.390  16.148  0.00  0.00    +0.000 C 
BRANCH   7  10
ATOM      8  O   UNL     1      48.370   4.885  18.607  0.00  0.00    +0.000 OA
ATOM      9  C   UNL     1      49.064   4.534  17.657  0.00  0.00    +0.000 C 
ATOM     10  N   UNL     1      48.556   4.348  16.398  0.00  0.00    +0.000 N 
ATOM     11  H   UNL     1      49.113   3.859  15.707  0.00  0.00    +0.000 HD
BRANCH   9  12
ATOM     12  C   UNL     1      50.509   4.330  17.793  0.00  0.00    +0.000 A 
ATOM     13  C   UNL     1      51.339   5.379  18.161  0.00  0.00    +0.000 A 
ATOM     14  S   UNL     1      52.988   4.943  18.240  0.00  0.00    +0.000 S 
ATOM     15  C   UNL     1      52.642   3.329  17.824  0.00  0.00    +0.000 A 
ATOM     16  N   UNL     1      53.626   2.396  17.735  0.00  0.00    +0.000 NA
ATOM     17  C   UNL     1      53.211   1.206  17.448  0.00  0.00    +0.000 A 
ATOM     18  N   UNL     1      51.898   0.869  17.241  0.00  0.00    +0.000 N 
ATOM     19  C   UNL     1      50.878   1.783  17.278  0.00  0.00    +0.000 A 
ATOM     20  O   UNL     1      49.725   1.453  17.016  0.00  0.00    +0.000 OA
ATOM     21  C   UNL     1      51.288   3.130  17.617  0.00  0.00    +0.000 A 
ATOM     22  H   UNL     1      51.638  -0.079  17.000  0.00  0.00    +0.000 HD
ENDBRANCH   9  12
ENDBRANCH   7  10
ENDBRANCH   1   7
BRANCH   4  23
ATOM     23  C   UNL     1      45.946   5.893  10.623  0.00  0.00    +0.000 C 
BRANCH  23  24
ATOM     24  C   UNL     1      45.176   4.809   9.837  0.00  0.00    +0.000 C 
BRANCH  24  25
ATOM     25  O   UNL     1      43.771   5.082   9.919  0.00  0.00    +0.000 OA
ATOM     26  H   UNL     1      43.594   5.506  10.773  0.00  0.00    +0.000 HD
ENDBRANCH  24  25
BRANCH  24  27
ATOM     27  C   UNL     1      45.611   4.772   8.362  0.00  0.00    +0.000 C 
BRANCH  27  28
ATOM     28  C   UNL     1      46.150   3.421   7.936  0.00  0.00    +0.000 A 
ATOM     29  C   UNL     1      45.711   2.252   8.577  0.00  0.00    +0.000 A 
ATOM     30  C   UNL     1      46.177   1.000   8.170  0.00  0.00    +0.000 A 
ATOM     31  C   UNL     1      47.091   0.904   7.125  0.00  0.00    +0.000 A 
ATOM     32  C   UNL     1      47.560   2.060   6.504  0.00  0.00    +0.000 A 
ATOM     33  C   UNL     1      47.096   3.314   6.910  0.00  0.00    +0.000 A 
ENDBRANCH  27  28
ENDBRANCH  24  27
ENDBRANCH  23  24
ENDBRANCH   4  23
TORSDOF 8
ENDMDL
MODEL 4
REMARK VINA RESULT:    -7.823      2.452      3.715
REMARK INTER + INTRA:         -12.546
REMARK INTER:                 -11.381
REMARK INTRA:                  -1.165
REMARK UNBOUND:                -1.292
REMARK  Name = 
REMARK  8 active torsions:
REMARK  status: ('A' for Active; 'I' for Inactive)
REMARK    1  A    between atoms: C_2  and  C_21
REMARK    2  A    between atoms: N_3  and  C_4
REMARK    3  A    between atoms: C_4  and  C_5
REMARK    4  A    between atoms: C_8  and  C_9
REMARK    5  A    between atoms: C_9  and  C_10
REMARK    6  A    between atoms: C_10  and  O_11
REMARK    7  A    between atoms: C_10  and  C_12
REMARK    8  A    between atoms: C_12  and  C_13
REMARK                            x       y       z     vdW  Elec       q    Type
REMARK                         _______ _______ _______ _____ _____    ______ ____
ROOT
ATOM      1  C   UNL     1      47.026   4.435  14.380  0.00  0.00    +0.000 A 
ATOM      2  C   UNL     1      46.295   3.551  13.576  0.00  0.00    +0.000 A 
ATOM      3  C   UNL     1      45.747   3.976  12.363  0.00  0.00    +0.000 A 
ATOM      4  C   UNL     1      45.922   5.294  11.922  0.00  0.00    +0.000 A 
ATOM      5  C   UNL     1      46.692   6.166  12.706  0.00  0.00    +0.000 A 
ATOM      6  C   UNL     1      47.245   5.738  13.918  0.00  0.00    +0.000 A 
ENDROOT
BRANCH   1   7
ATOM      7  C   UNL     1      47.596   3.977  15.698  0.00  0.00    +0.000 C 
BRANCH   7  10
ATOM      8  O   UNL     1      49.729   5.432  16.766  0.00  0.00    +0.000 OA
ATOM      9  C   UNL     1      48.585   5.723  17.103  0.00  0.00    +0.000 C 
ATOM     10  N   UNL     1      47.489   5.012  16.692  0.00  0.00    +0.000 N 
ATOM     11  H   UNL     1      46.565   5.410  16.818  0.00  0.00    +0.000 HD
BRANCH   9  12
ATOM     12  C   UNL     1      48.311   6.837  18.016  0.00  0.00    +0.000 A 
ATOM     13  C   UNL     1      48.124   6.608  19.372  0.00  0.00    +0.000 A 
ATOM     14  S   UNL     1      47.794   8.029  20.259  0.00  0.00    +0.000 S 
ATOM     15  C   UNL     1      47.931   9.000  18.867  0.00  0.00    +0.000 A 
ATOM     16  N   UNL     1      47.779  10.349  18.930  0.00  0.00    +0.000 NA
ATOM     17  C   UNL     1      47.948  10.959  17.803  0.00  0.00    +0.000 A 
ATOM     18  N   UNL     1      48.253  10.337  16.620  0.00  0.00    +0.000 N 
ATOM     19  C   UNL     1      48.371   8.978  16.500  0.00  0.00    +0.000 A 
ATOM     20  O   UNL     1      48.574   8.455  15.408  0.00  0.00    +0.000 OA
ATOM     21  C   UNL     1      48.213   8.248  17.741  0.00  0.00    +0.000 A 
ATOM     22  H   UNL     1      48.353  10.870  15.765  0.00  0.00    +0.000 HD
ENDBRANCH   9  12
ENDBRANCH   7  10
ENDBRANCH   1   7
BRANCH   4  23
ATOM     23  C   UNL     1      45.287   5.775  10.633  0.00  0.00    +0.000 C 
BRANCH  23  24
ATOM     24  C   UNL     1      44.926   4.626   9.666  0.00  0.00    +0.000 C 
BRANCH  24  25
ATOM     25  O   UNL     1      43.530   4.703   9.350  0.00  0.00    +0.000 OA
ATOM     26  H   UNL     1      43.236   5.615   9.498  0.00  0.00    +0.000 HD
ENDBRANCH  24  25
BRANCH  24  27
ATOM     27  C   UNL     1      45.755   4.702   8.372  0.00  0.00    +0.000 C 
BRANCH  27  28
ATOM     28  C   UNL     1      46.202   3.344   7.873  0.00  0.00    +0.000 A 
ATOM     29  C   UNL     1      47.014   3.241   6.733  0.00  0.00    +0.000 A 
ATOM     30  C   UNL     1      47.459   1.997   6.285  0.00  0.00    +0.000 A 
ATOM     31  C   UNL     1      47.090   0.840   6.966  0.00  0.00    +0.000 A 
ATOM     32  C   UNL     1      46.255   0.925   8.079  0.00  0.00    +0.000 A 
ATOM     33  C   UNL     1      45.808   2.170   8.528  0.00  0.00    +0.000 A 
ENDBRANCH  27  28
ENDBRANCH  24  27
ENDBRANCH  23  24
ENDBRANCH   4  23
TORSDOF 8
ENDMDL
MODEL 5
REMARK VINA RESULT:    -7.448      2.035      2.759
REMARK INTER + INTRA:         -12.005
REMARK INTER:                 -10.952
REMARK INTRA:                  -1.053
REMARK UNBOUND:                -1.292
REMARK  Name = 
REMARK  8 active torsions:
REMARK  status: ('A' for Active; 'I' for Inactive)
REMARK    1  A    between atoms: C_2  and  C_21
REMARK    2  A    between atoms: N_3  and  C_4
REMARK    3  A    between atoms: C_4  and  C_5
REMARK    4  A    between atoms: C_8  and  C_9
REMARK    5  A    between atoms: C_9  and  C_10
REMARK    6  A    between atoms: C_10  and  O_11
REMARK    7  A    between atoms: C_10  and  C_12
REMARK    8  A    between atoms: C_12  and  C_13
REMARK                            x       y       z     vdW  Elec       q    Type
REMARK                         _______ _______ _______ _____ _____    ______ ____
ROOT
ATOM      1  C   UNL     1      47.669   6.647  13.181  0.00  0.00    +0.000 A 
ATOM      2  C   UNL     1      47.112   5.470  13.698  0.00  0.00    +0.000 A 
ATOM      3  C   UNL     1      46.109   4.789  13.003  0.00  0.00    +0.000 A 
ATOM      4  C   UNL     1      45.642   5.267  11.772  0.00  0.00    +0.000 A 
ATOM      5  C   UNL     1      46.231   6.421  11.234  0.00  0.00    +0.000 A 
ATOM      6  C   UNL     1      47.239   7.099  11.928  0.00  0.00    +0.000 A 
ENDROOT
BRANCH   1   7
ATOM      7  C   UNL     1      48.734   7.389  13.946  0.00  0.00    +0.000 C 
BRANCH   7  10
ATOM      8  O   UNL     1      49.706   8.423  16.353  0.00  0.00    +0.000 OA
ATOM      9  C   UNL     1      49.592   7.207  16.233  0.00  0.00    +0.000 C 
ATOM     10  N   UNL     1      49.201   6.611  15.063  0.00  0.00    +0.000 N 
ATOM     11  H   UNL     1      48.919   5.637  15.073  0.00  0.00    +0.000 HD
BRANCH   9  12
ATOM     12  C   UNL     1      49.914   6.291  17.332  0.00  0.00    +0.000 A 
ATOM     13  C   UNL     1      48.935   5.901  18.236  0.00  0.00    +0.000 A 
ATOM     14  S   UNL     1      49.516   4.852  19.452  0.00  0.00    +0.000 S 
ATOM     15  C   UNL     1      51.083   4.854  18.787  0.00  0.00    +0.000 A 
ATOM     16  N   UNL     1      52.087   4.125  19.343  0.00  0.00    +0.000 NA
ATOM     17  C   UNL     1      53.212   4.193  18.709  0.00  0.00    +0.000 A 
ATOM     18  N   UNL     1      53.420   4.927  17.570  0.00  0.00    +0.000 N 
ATOM     19  C   UNL     1      52.451   5.710  17.000  0.00  0.00    +0.000 A 
ATOM     20  O   UNL     1      52.699   6.408  16.021  0.00  0.00    +0.000 OA
ATOM     21  C   UNL     1      51.163   5.652  17.660  0.00  0.00    +0.000 A 
ATOM     22  H   UNL     1      54.331   4.955  17.131  0.00  0.00    +0.000 HD
ENDBRANCH   9  12
ENDBRANCH   7  10
ENDBRANCH   1   7
BRANCH   4  23
ATOM     23  C   UNL     1      44.519   4.562  11.038  0.00  0.00    +0.000 C 
BRANCH  23  24
ATOM     24  C   UNL     1      44.753   3.045  10.879  0.00  0.00    +0.000 C 
BRANCH  24  25
ATOM     25  O   UNL     1      44.018   2.349  11.895  0.00  0.00    +0.000 OA
ATOM     26  H   UNL     1      44.177   1.399  11.787  0.00  0.00    +0.000 HD
ENDBRANCH  24  25
BRANCH  24  27
ATOM     27  C   UNL     1      44.309   2.552   9.490  0.00  0.00    +0.000 C 
BRANCH  27  28
ATOM     28  C   UNL     1      45.441   2.512   8.485  0.00  0.00    +0.000 A 
ATOM     29  C   UNL     1      46.129   1.312   8.243  0.00  0.00    +0.000 A 
ATOM     30  C   UNL     1      47.151   1.257   7.295  0.00  0.00    +0.000 A 
ATOM     31  C   UNL     1      47.503   2.400   6.583  0.00  0.00    +0.000 A 
ATOM     32  C   UNL     1      46.851   3.605   6.839  0.00  0.00    +0.000 A 
ATOM     33  C   UNL     1      45.827   3.663   7.789  0.00  0.00    +0.000 A 
ENDBRANCH  27  28
ENDBRANCH  24  27
ENDBRANCH  23  24
ENDBRANCH   4  23
TORSDOF 8
ENDMDL
MODEL 6
REMARK VINA RESULT:    -7.356      2.878      4.046
REMARK INTER + INTRA:         -11.873
REMARK INTER:                 -10.836
REMARK INTRA:                  -1.037
REMARK UNBOUND:                -1.292
REMARK  Name = 
REMARK  8 active torsions:
REMARK  status: ('A' for Active; 'I' for Inactive)
REMARK    1  A    between atoms: C_2  and  C_21
REMARK    2  A    between atoms: N_3  and  C_4
REMARK    3  A    between atoms: C_4  and  C_5
REMARK    4  A    between atoms: C_8  and  C_9
REMARK    5  A    between atoms: C_9  and  C_10
REMARK    6  A    between atoms: C_10  and  O_11
REMARK    7  A    between atoms: C_10  and  C_12
REMARK    8  A    between atoms: C_12  and  C_13
REMARK                            x       y       z     vdW  Elec       q    Type
REMARK                         _______ _______ _______ _____ _____    ______ ____
ROOT
ATOM      1  C   UNL     1      48.273   5.899  15.979  0.00  0.00    +0.000 A 
ATOM      2  C   UNL     1      47.519   4.723  15.873  0.00  0.00    +0.000 A 
ATOM      3  C   UNL     1      46.859   4.403  14.683  0.00  0.00    +0.000 A 
ATOM      4  C   UNL     1      46.941   5.249  13.570  0.00  0.00    +0.000 A 
ATOM      5  C   UNL     1      47.732   6.404  13.663  0.00  0.00    +0.000 A 
ATOM      6  C   UNL     1      48.397   6.721  14.852  0.00  0.00    +0.000 A 
ENDROOT
BRANCH   1   7
ATOM      7  C   UNL     1      48.965   6.250  17.271  0.00  0.00    +0.000 C 
BRANCH   7  10
ATOM      8  O   UNL     1      51.621   6.282  16.405  0.00  0.00    +0.000 OA
ATOM      9  C   UNL     1      51.264   5.409  17.189  0.00  0.00    +0.000 C 
ATOM     10  N   UNL     1      49.965   5.270  17.602  0.00  0.00    +0.000 N 
ATOM     11  H   UNL     1      49.759   4.680  18.401  0.00  0.00    +0.000 HD
BRANCH   9  12
ATOM     12  C   UNL     1      52.203   4.411  17.712  0.00  0.00    +0.000 A 
ATOM     13  C   UNL     1      53.392   4.806  18.309  0.00  0.00    +0.000 A 
ATOM     14  S   UNL     1      54.356   3.495  18.829  0.00  0.00    +0.000 S 
ATOM     15  C   UNL     1      53.198   2.361  18.309  0.00  0.00    +0.000 A 
ATOM     16  N   UNL     1      53.392   1.026  18.477  0.00  0.00    +0.000 NA
ATOM     17  C   UNL     1      52.413   0.288  18.069  0.00  0.00    +0.000 A 
ATOM     18  N   UNL     1      51.259   0.768  17.506  0.00  0.00    +0.000 N 
ATOM     19  C   UNL     1      51.038   2.100  17.277  0.00  0.00    +0.000 A 
ATOM     20  O   UNL     1      50.022   2.483  16.704  0.00  0.00    +0.000 OA
ATOM     21  C   UNL     1      52.098   2.974  17.737  0.00  0.00    +0.000 A 
ATOM     22  H   UNL     1      50.536   0.135  17.187  0.00  0.00    +0.000 HD
ENDBRANCH   9  12
ENDBRANCH   7  10
ENDBRANCH   1   7
BRANCH   4  23
ATOM     23  C   UNL     1      46.186   4.934  12.295  0.00  0.00    +0.000 C 
BRANCH  23  24
ATOM     24  C   UNL     1      44.654   4.919  12.483  0.00  0.00    +0.000 C 
BRANCH  24  25
ATOM     25  O   UNL     1      44.268   6.051  13.274  0.00  0.00    +0.000 OA
ATOM     26  H   UNL     1      44.809   6.056  14.078  0.00  0.00    +0.000 HD
ENDBRANCH  24  25
BRANCH  24  27
ATOM     27  C   UNL     1      43.923   4.961  11.129  0.00  0.00    +0.000 C 
BRANCH  27  28
ATOM     28  C   UNL     1      44.615   4.146  10.056  0.00  0.00    +0.000 A 
ATOM     29  C   UNL     1      44.502   2.747  10.047  0.00  0.00    +0.000 A 
ATOM     30  C   UNL     1      45.108   1.990   9.044  0.00  0.00    +0.000 A 
ATOM     31  C   UNL     1      45.841   2.622   8.042  0.00  0.00    +0.000 A 
ATOM     32  C   UNL     1      45.989   4.007   8.059  0.00  0.00    +0.000 A 
ATOM     33  C   UNL     1      45.383   4.767   9.063  0.00  0.00    +0.000 A 
ENDBRANCH  27  28
ENDBRANCH  24  27
ENDBRANCH  23  24
ENDBRANCH   4  23
TORSDOF 8
ENDMDL
MODEL 7
REMARK VINA RESULT:    -7.312      1.925      2.512
REMARK INTER + INTRA:         -11.810
REMARK INTER:                 -10.388
REMARK INTRA:                  -1.422
REMARK UNBOUND:                -1.292
REMARK  Name = 
REMARK  8 active torsions:
REMARK  status: ('A' for Active; 'I' for Inactive)
REMARK    1  A    between atoms: C_2  and  C_21
REMARK    2  A    between atoms: N_3  and  C_4
REMARK    3  A    between atoms: C_4  and  C_5
REMARK    4  A    between atoms: C_8  and  C_9
REMARK    5  A    between atoms: C_9  and  C_10
REMARK    6  A    between atoms: C_10  and  O_11
REMARK    7  A    between atoms: C_10  and  C_12
REMARK    8  A    between atoms: C_12  and  C_13
REMARK                            x       y       z     vdW  Elec       q    Type
REMARK                         _______ _______ _______ _____ _____    ______ ____
ROOT
ATOM      1  C   UNL     1      47.037   7.977  12.398  0.00  0.00    +0.000 A 
ATOM      2  C   UNL     1      47.426   6.632  12.451  0.00  0.00    +0.000 A 
ATOM      3  C   UNL     1      46.498   5.611  12.227  0.00  0.00    +0.000 A 
ATOM      4  C   UNL     1      45.161   5.912  11.939  0.00  0.00    +0.000 A 
ATOM      5  C   UNL     1      44.782   7.259  11.842  0.00  0.00    +0.000 A 
ATOM      6  C   UNL     1      45.713   8.280  12.061  0.00  0.00    +0.000 A 
ENDROOT
BRANCH   1   7
ATOM      7  C   UNL     1      48.038   9.073  12.662  0.00  0.00    +0.000 C 
BRANCH   7  10
ATOM      8  O   UNL     1      49.091  10.100  15.038  0.00  0.00    +0.000 OA
ATOM      9  C   UNL     1      49.589   9.086  14.558  0.00  0.00    +0.000 C 
ATOM     10  N   UNL     1      49.189   8.562  13.357  0.00  0.00    +0.000 N 
ATOM     11  H   UNL     1      49.474   7.621  13.108  0.00  0.00    +0.000 HD
BRANCH   9  12
ATOM     12  C   UNL     1      50.692   8.383  15.220  0.00  0.00    +0.000 A 
ATOM     13  C   UNL     1      51.974   8.913  15.211  0.00  0.00    +0.000 A 
ATOM     14  S   UNL     1      53.118   7.932  16.015  0.00  0.00    +0.000 S 
ATOM     15  C   UNL     1      51.929   6.788  16.434  0.00  0.00    +0.000 A 
ATOM     16  N   UNL     1      52.239   5.683  17.163  0.00  0.00    +0.000 NA
ATOM     17  C   UNL     1      51.230   4.924  17.438  0.00  0.00    +0.000 A 
ATOM     18  N   UNL     1      49.939   5.173  17.048  0.00  0.00    +0.000 N 
ATOM     19  C   UNL     1      49.588   6.250  16.277  0.00  0.00    +0.000 A 
ATOM     20  O   UNL     1      48.433   6.398  15.888  0.00  0.00    +0.000 OA
ATOM     21  C   UNL     1      50.680   7.145  15.958  0.00  0.00    +0.000 A 
ATOM     22  H   UNL     1      49.194   4.528  17.279  0.00  0.00    +0.000 HD
ENDBRANCH   9  12
ENDBRANCH   7  10
ENDBRANCH   1   7
BRANCH   4  23
ATOM     23  C   UNL     1      44.139   4.809  11.747  0.00  0.00    +0.000 C 
BRANCH  23  24
ATOM     24  C   UNL     1      44.772   3.449  11.385  0.00  0.00    +0.000 C 
BRANCH  24  25
ATOM     25  O   UNL     1      44.517   2.518  12.445  0.00  0.00    +0.000 OA
ATOM     26  H   UNL     1      45.026   2.796  13.222  0.00  0.00    +0.000 HD
ENDBRANCH  24  25
BRANCH  24  27
ATOM     27  C   UNL     1      44.202   2.899  10.065  0.00  0.00    +0.000 C 
BRANCH  27  28
ATOM     28  C   UNL     1      45.232   2.833   8.956  0.00  0.00    +0.000 A 
ATOM     29  C   UNL     1      45.627   4.003   8.289  0.00  0.00    +0.000 A 
ATOM     30  C   UNL     1      46.599   3.957   7.288  0.00  0.00    +0.000 A 
ATOM     31  C   UNL     1      47.181   2.742   6.938  0.00  0.00    +0.000 A 
ATOM     32  C   UNL     1      46.772   1.569   7.569  0.00  0.00    +0.000 A 
ATOM     33  C   UNL     1      45.798   1.612   8.570  0.00  0.00    +0.000 A 
ENDBRANCH  27  28
ENDBRANCH  24  27
ENDBRANCH  23  24
ENDBRANCH   4  23
TORSDOF 8
ENDMDL
MODEL 8
REMARK VINA RESULT:    -7.142      3.431      8.313
REMARK INTER + INTRA:         -11.565
REMARK INTER:                  -9.681
REMARK INTRA:                  -1.884
REMARK UNBOUND:                -1.292
REMARK  Name = 
REMARK  8 active torsions:
REMARK  status: ('A' for Active; 'I' for Inactive)
REMARK    1  A    between atoms: C_2  and  C_21
REMARK    2  A    between atoms: N_3  and  C_4
REMARK    3  A    between atoms: C_4  and  C_5
REMARK    4  A    between atoms: C_8  and  C_9
REMARK    5  A    between atoms: C_9  and  C_10
REMARK    6  A    between atoms: C_10  and  O_11
REMARK    7  A    between atoms: C_10  and  C_12
REMARK    8  A    between atoms: C_12  and  C_13
REMARK                            x       y       z     vdW  Elec       q    Type
REMARK                         _______ _______ _______ _____ _____    ______ ____
ROOT
ATOM      1  C   UNL     1      48.237   7.899  13.216  0.00  0.00    +0.000 A 
ATOM      2  C   UNL     1      49.342   7.147  13.638  0.00  0.00    +0.000 A 
ATOM      3  C   UNL     1      49.882   7.326  14.915  0.00  0.00    +0.000 A 
ATOM      4  C   UNL     1      49.326   8.257  15.802  0.00  0.00    +0.000 A 
ATOM      5  C   UNL     1      48.193   8.977  15.395  0.00  0.00    +0.000 A 
ATOM      6  C   UNL     1      47.650   8.793  14.118  0.00  0.00    +0.000 A 
ENDROOT
BRANCH   1   7
ATOM      7  C   UNL     1      47.673   7.717  11.831  0.00  0.00    +0.000 C 
BRANCH   7  10
ATOM      8  O   UNL     1      44.897   7.478  12.033  0.00  0.00    +0.000 OA
ATOM      9  C   UNL     1      45.560   6.479  11.772  0.00  0.00    +0.000 C 
ATOM     10  N   UNL     1      46.930   6.489  11.734  0.00  0.00    +0.000 N 
ATOM     11  H   UNL     1      47.419   5.708  11.312  0.00  0.00    +0.000 HD
BRANCH   9  12
ATOM     12  C   UNL     1      44.930   5.178  11.526  0.00  0.00    +0.000 A 
ATOM     13  C   UNL     1      44.164   4.568  12.509  0.00  0.00    +0.000 A 
ATOM     14  S   UNL     1      43.539   3.050  12.035  0.00  0.00    +0.000 S 
ATOM     15  C   UNL     1      44.237   3.180  10.488  0.00  0.00    +0.000 A 
ATOM     16  N   UNL     1      44.068   2.208   9.554  0.00  0.00    +0.000 NA
ATOM     17  C   UNL     1      44.624   2.459   8.414  0.00  0.00    +0.000 A 
ATOM     18  N   UNL     1      45.334   3.597   8.128  0.00  0.00    +0.000 N 
ATOM     19  C   UNL     1      45.567   4.582   9.051  0.00  0.00    +0.000 A 
ATOM     20  O   UNL     1      46.269   5.551   8.777  0.00  0.00    +0.000 OA
ATOM     21  C   UNL     1      44.947   4.359  10.341  0.00  0.00    +0.000 A 
ATOM     22  H   UNL     1      45.762   3.726   7.221  0.00  0.00    +0.000 HD
ENDBRANCH   9  12
ENDBRANCH   7  10
ENDBRANCH   1   7
BRANCH   4  23
ATOM     23  C   UNL     1      49.938   8.493  17.167  0.00  0.00    +0.000 C 
BRANCH  23  24
ATOM     24  C   UNL     1      50.090   7.200  17.998  0.00  0.00    +0.000 C 
BRANCH  24  25
ATOM     25  O   UNL     1      50.646   7.530  19.278  0.00  0.00    +0.000 OA
ATOM     26  H   UNL     1      50.812   8.485  19.299  0.00  0.00    +0.000 HD
ENDBRANCH  24  25
BRANCH  24  27
ATOM     27  C   UNL     1      48.736   6.494  18.188  0.00  0.00    +0.000 C 
BRANCH  27  28
ATOM     28  C   UNL     1      48.727   5.076  17.657  0.00  0.00    +0.000 A 
ATOM     29  C   UNL     1      47.626   4.601  16.926  0.00  0.00    +0.000 A 
ATOM     30  C   UNL     1      47.623   3.307  16.404  0.00  0.00    +0.000 A 
ATOM     31  C   UNL     1      48.715   2.470  16.612  0.00  0.00    +0.000 A 
ATOM     32  C   UNL     1      49.799   2.917  17.365  0.00  0.00    +0.000 A 
ATOM     33  C   UNL     1      49.804   4.212  17.890  0.00  0.00    +0.000 A 
ENDBRANCH  27  28
ENDBRANCH  24  27
ENDBRANCH  23  24
ENDBRANCH   4  23
TORSDOF 8
ENDMDL
MODEL 9
REMARK VINA RESULT:    -7.001      3.758      8.945
REMARK INTER + INTRA:         -11.363
REMARK INTER:                  -8.921
REMARK INTRA:                  -2.442
REMARK UNBOUND:                -1.292
REMARK  Name = 
REMARK  8 active torsions:
REMARK  status: ('A' for Active; 'I' for Inactive)
REMARK    1  A    between atoms: C_2  and  C_21
REMARK    2  A    between atoms: N_3  and  C_4
REMARK    3  A    between atoms: C_4  and  C_5
REMARK    4  A    between atoms: C_8  and  C_9
REMARK    5  A    between atoms: C_9  and  C_10
REMARK    6  A    between atoms: C_10  and  O_11
REMARK    7  A    between atoms: C_10  and  C_12
REMARK    8  A    between atoms: C_12  and  C_13
REMARK                            x       y       z     vdW  Elec       q    Type
REMARK                         _______ _______ _______ _____ _____    ______ ____
ROOT
ATOM      1  C   UNL     1      48.329   3.760  17.555  0.00  0.00    +0.000 A 
ATOM      2  C   UNL     1      49.565   3.233  17.159  0.00  0.00    +0.000 A 
ATOM      3  C   UNL     1      50.734   3.556  17.854  0.00  0.00    +0.000 A 
ATOM      4  C   UNL     1      50.693   4.411  18.963  0.00  0.00    +0.000 A 
ATOM      5  C   UNL     1      49.449   4.903  19.384  0.00  0.00    +0.000 A 
ATOM      6  C   UNL     1      48.279   4.574  18.692  0.00  0.00    +0.000 A 
ENDROOT
BRANCH   1   7
ATOM      7  C   UNL     1      47.075   3.426  16.789  0.00  0.00    +0.000 C 
BRANCH   7  10
ATOM      8  O   UNL     1      47.240   3.039  14.026  0.00  0.00    +0.000 OA
ATOM      9  C   UNL     1      46.839   4.119  14.451  0.00  0.00    +0.000 C 
ATOM     10  N   UNL     1      46.803   4.422  15.787  0.00  0.00    +0.000 N 
ATOM     11  H   UNL     1      46.273   5.228  16.097  0.00  0.00    +0.000 HD
BRANCH   9  12
ATOM     12  C   UNL     1      46.408   5.190  13.547  0.00  0.00    +0.000 A 
ATOM     13  C   UNL     1      47.277   6.216  13.204  0.00  0.00    +0.000 A 
ATOM     14  S   UNL     1      46.578   7.375  12.162  0.00  0.00    +0.000 S 
ATOM     15  C   UNL     1      45.107   6.521  12.104  0.00  0.00    +0.000 A 
ATOM     16  N   UNL     1      44.062   6.965  11.356  0.00  0.00    +0.000 NA
ATOM     17  C   UNL     1      43.024   6.196  11.377  0.00  0.00    +0.000 A 
ATOM     18  N   UNL     1      42.939   5.023  12.082  0.00  0.00    +0.000 N 
ATOM     19  C   UNL     1      43.949   4.559  12.883  0.00  0.00    +0.000 A 
ATOM     20  O   UNL     1      43.806   3.542  13.555  0.00  0.00    +0.000 OA
ATOM     21  C   UNL     1      45.146   5.375  12.878  0.00  0.00    +0.000 A 
ATOM     22  H   UNL     1      42.089   4.474  12.074  0.00  0.00    +0.000 HD
ENDBRANCH   9  12
ENDBRANCH   7  10
ENDBRANCH   1   7
BRANCH   4  23
ATOM     23  C   UNL     1      51.964   4.806  19.688  0.00  0.00    +0.000 C 
BRANCH  23  24
ATOM     24  C   UNL     1      52.169   6.335  19.766  0.00  0.00    +0.000 C 
BRANCH  24  25
ATOM     25  O   UNL     1      53.248   6.615  20.668  0.00  0.00    +0.000 OA
ATOM     26  H   UNL     1      53.938   5.948  20.531  0.00  0.00    +0.000 HD
ENDBRANCH  24  25
BRANCH  24  27
ATOM     27  C   UNL     1      52.484   6.929  18.382  0.00  0.00    +0.000 C 
BRANCH  27  28
ATOM     28  C   UNL     1      51.241   7.263  17.583  0.00  0.00    +0.000 A 
ATOM     29  C   UNL     1      51.086   6.769  16.279  0.00  0.00    +0.000 A 
ATOM     30  C   UNL     1      49.929   7.044  15.547  0.00  0.00    +0.000 A 
ATOM     31  C   UNL     1      48.919   7.821  16.107  0.00  0.00    +0.000 A 
ATOM     32  C   UNL     1      49.077   8.345  17.389  0.00  0.00    +0.000 A 
ATOM     33  C   UNL     1      50.234   8.073  18.123  0.00  0.00    +0.000 A 
ENDBRANCH  27  28
ENDBRANCH  24  27
ENDBRANCH  23  24
ENDBRANCH   4  23
TORSDOF 8
ENDMDL
