MODEL 1
REMARK VINA RESULT:    -7.698      0.000      0.000
REMARK INTER + INTRA:          -8.868
REMARK INTER:                  -8.598
REMARK INTRA:                  -0.270
REMARK UNBOUND:                -0.270
REMARK  Name = 
REMARK  2 active torsions:
REMARK  status: ('A' for Active; 'I' for Inactive)
REMARK    1  A    between atoms: C_4  and  C_5
REMARK    2  A    between atoms: C_5  and  N_6
REMARK                            x       y       z     vdW  Elec       q    Type
REMARK                         _______ _______ _______ _____ _____    ______ ____
ROOT
ATOM      1  N   UNL     1      44.439   3.946  10.133  0.00  0.00    +0.000 N 
ATOM      2  C   UNL     1      43.787   2.990  10.875  0.00  0.00    +0.000 A 
ATOM      3  C   UNL     1      44.042   3.234  12.203  0.00  0.00    +0.000 A 
ATOM      4  C   UNL     1      44.883   4.377  12.280  0.00  0.00    +0.000 A 
ATOM      5  C   UNL     1      45.471   5.083  13.339  0.00  0.00    +0.000 A 
ATOM      6  C   UNL     1      46.248   6.178  12.998  0.00  0.00    +0.000 A 
ATOM      7  N   UNL     1      46.467   6.604  11.736  0.00  0.00    +0.000 NA
ATOM      8  C   UNL     1      45.905   5.928  10.708  0.00  0.00    +0.000 A 
ATOM      9  C   UNL     1      45.117   4.810  10.973  0.00  0.00    +0.000 A 
ENDROOT
BRANCH   1  10
ATOM     10  C   UNL     1      44.481   3.966   8.673  0.00  0.00    +0.000 C 
BRANCH  10  14
ATOM     11  C   UNL     1      47.525   1.558   6.761  0.00  0.00    +0.000 A 
ATOM     12  C   UNL     1      46.762   1.005   7.786  0.00  0.00    +0.000 A 
ATOM     13  C   UNL     1      45.786   1.770   8.429  0.00  0.00    +0.000 A 
ATOM     14  C   UNL     1      45.567   3.108   8.064  0.00  0.00    +0.000 A 
ATOM     15  C   UNL     1      46.340   3.646   7.019  0.00  0.00    +0.000 A 
ATOM     16  C   UNL     1      47.312   2.878   6.375  0.00  0.00    +0.000 A 
ENDBRANCH  10  14
ENDBRANCH   1  10
TORSDOF 2
ENDMDL
MODEL 2
REMARK VINA RESULT:    -7.441      1.088      2.152
REMARK INTER + INTRA:          -8.581
REMARK INTER:                  -8.188
REMARK INTRA:                  -0.393
REMARK UNBOUND:                -0.270
REMARK  Name = 
REMARK  2 active torsions:
REMARK  status: ('A' for Active; 'I' for Inactive)
REMARK    1  A    between atoms: C_4  and  C_5
REMARK    2  A    between atoms: C_5  and  N_6
REMARK                            x       y       z     vdW  Elec       q    Type
REMARK                         _______ _______ _______ _____ _____    ______ ____
ROOT
ATOM      1  N   UNL     1      45.055   4.609   9.616  0.00  0.00    +0.000 N 
ATOM      2  C   UNL     1      45.874   5.711   9.689  0.00  0.00    +0.000 A 
ATOM      3  C   UNL     1      45.937   6.108  11.004  0.00  0.00    +0.000 A 
ATOM      4  C   UNL     1      45.124   5.224  11.763  0.00  0.00    +0.000 A 
ATOM      5  C   UNL     1      44.794   5.131  13.122  0.00  0.00    +0.000 A 
ATOM      6  C   UNL     1      43.945   4.097  13.484  0.00  0.00    +0.000 A 
ATOM      7  N   UNL     1      43.429   3.189  12.630  0.00  0.00    +0.000 NA
ATOM      8  C   UNL     1      43.742   3.272  11.317  0.00  0.00    +0.000 A 
ATOM      9  C   UNL     1      44.584   4.290  10.875  0.00  0.00    +0.000 A 
ENDROOT
BRANCH   1  10
ATOM     10  C   UNL     1      44.669   3.954   8.368  0.00  0.00    +0.000 C 
BRANCH  10  14
ATOM     11  C   UNL     1      47.578   1.296   6.582  0.00  0.00    +0.000 A 
ATOM     12  C   UNL     1      46.867   0.874   7.703  0.00  0.00    +0.000 A 
ATOM     13  C   UNL     1      45.936   1.723   8.306  0.00  0.00    +0.000 A 
ATOM     14  C   UNL     1      45.711   3.015   7.803  0.00  0.00    +0.000 A 
ATOM     15  C   UNL     1      46.431   3.419   6.665  0.00  0.00    +0.000 A 
ATOM     16  C   UNL     1      47.358   2.567   6.061  0.00  0.00    +0.000 A 
ENDBRANCH  10  14
ENDBRANCH   1  10
TORSDOF 2
ENDMDL
MODEL 3
REMARK VINA RESULT:    -7.175      1.567      2.627
REMARK INTER + INTRA:          -8.284
REMARK INTER:                  -7.948
REMARK INTRA:                  -0.336
REMARK UNBOUND:                -0.270
REMARK  Name = 
REMARK  2 active torsions:
REMARK  status: ('A' for Active; 'I' for Inactive)
REMARK    1  A    between atoms: C_4  and  C_5
REMARK    2  A    between atoms: C_5  and  N_6
REMARK                            x       y       z     vdW  Elec       q    Type
REMARK                         _______ _______ _______ _____ _____    ______ ____
ROOT
ATOM      1  N   UNL     1      44.718   5.188  11.239  0.00  0.00    +0.000 N 
ATOM      2  C   UNL     1      44.640   6.558  11.326  0.00  0.00    +0.000 A 
ATOM      3  C   UNL     1      45.383   6.959  12.411  0.00  0.00    +0.000 A 
ATOM      4  C   UNL     1      45.932   5.796  13.014  0.00  0.00    +0.000 A 
ATOM      5  C   UNL     1      46.750   5.573  14.131  0.00  0.00    +0.000 A 
ATOM      6  C   UNL     1      47.081   4.255  14.403  0.00  0.00    +0.000 A 
ATOM      7  N   UNL     1      46.678   3.193  13.673  0.00  0.00    +0.000 NA
ATOM      8  C   UNL     1      45.889   3.400  12.595  0.00  0.00    +0.000 A 
ATOM      9  C   UNL     1      45.507   4.698  12.263  0.00  0.00    +0.000 A 
ENDROOT
BRANCH   1  10
ATOM     10  C   UNL     1      43.984   4.383  10.266  0.00  0.00    +0.000 C 
BRANCH  10  14
ATOM     11  C   UNL     1      46.544   2.278   7.486  0.00  0.00    +0.000 A 
ATOM     12  C   UNL     1      46.484   3.668   7.439  0.00  0.00    +0.000 A 
ATOM     13  C   UNL     1      45.651   4.367   8.315  0.00  0.00    +0.000 A 
ATOM     14  C   UNL     1      44.853   3.683   9.246  0.00  0.00    +0.000 A 
ATOM     15  C   UNL     1      44.934   2.279   9.286  0.00  0.00    +0.000 A 
ATOM     16  C   UNL     1      45.771   1.583   8.411  0.00  0.00    +0.000 A 
ENDBRANCH  10  14
ENDBRANCH   1  10
TORSDOF 2
ENDMDL
MODEL 4
REMARK VINA RESULT:    -6.888      1.061      1.434
REMARK INTER + INTRA:          -7.963
REMARK INTER:                  -7.544
REMARK INTRA:                  -0.420
REMARK UNBOUND:                -0.270
REMARK  Name = 
REMARK  2 active torsions:
REMARK  status: ('A' for Active; 'I' for Inactive)
REMARK    1  A    between atoms: C_4  and  C_5
REMARK    2  A    between atoms: C_5  and  N_6
REMARK                            x       y       z     vdW  Elec       q    Type
REMARK                         _______ _______ _______ _____ _____    ______ ____
ROOT
ATOM      1  N   UNL     1      44.896   4.037  11.273  0.00  0.00    +0.000 N 
ATOM      2  C   UNL     1      45.448   3.226  12.237  0.00  0.00    +0.000 A 
ATOM      3  C   UNL     1      46.040   4.031  13.182  0.00  0.00    +0.000 A 
ATOM      4  C   UNL     1      45.848   5.381  12.783  0.00  0.00    +0.000 A 
ATOM      5  C   UNL     1      46.223   6.618  13.324  0.00  0.00    +0.000 A 
ATOM      6  C   UNL     1      45.836   7.746  12.619  0.00  0.00    +0.000 A 
ATOM      7  N   UNL     1      45.131   7.731  11.468  0.00  0.00    +0.000 NA
ATOM      8  C   UNL     1      44.766   6.542  10.939  0.00  0.00    +0.000 A 
ATOM      9  C   UNL     1      45.126   5.363  11.587  0.00  0.00    +0.000 A 
ENDROOT
BRANCH   1  10
ATOM     10  C   UNL     1      44.256   3.545  10.055  0.00  0.00    +0.000 C 
BRANCH  10  14
ATOM     11  C   UNL     1      46.904   2.298   6.868  0.00  0.00    +0.000 A 
ATOM     12  C   UNL     1      46.426   1.349   7.768  0.00  0.00    +0.000 A 
ATOM     13  C   UNL     1      45.584   1.733   8.815  0.00  0.00    +0.000 A 
ATOM     14  C   UNL     1      45.218   3.077   8.985  0.00  0.00    +0.000 A 
ATOM     15  C   UNL     1      45.702   4.020   8.061  0.00  0.00    +0.000 A 
ATOM     16  C   UNL     1      46.540   3.634   7.013  0.00  0.00    +0.000 A 
ENDBRANCH  10  14
ENDBRANCH   1  10
TORSDOF 2
ENDMDL
MODEL 5
REMARK VINA RESULT:    -6.196      1.678      5.401
REMARK INTER + INTRA:          -7.190
REMARK INTER:                  -6.854
REMARK INTRA:                  -0.336
REMARK UNBOUND:                -0.270
REMARK  Name = 
REMARK  2 active torsions:
REMARK  status: ('A' for Active; 'I' for Inactive)
REMARK    1  A    between atoms: C_4  and  C_5
REMARK    2  A    between atoms: C_5  and  N_6
REMARK                            x       y       z     vdW  Elec       q    Type
REMARK                         _______ _______ _______ _____ _____    ______ ____
ROOT
ATOM      1  N   UNL     1      44.251   5.007  11.304  0.00  0.00    +0.000 N 
ATOM      2  C   UNL     1      43.549   4.036  11.978  0.00  0.00    +0.000 A 
ATOM      3  C   UNL     1      43.616   2.875  11.243  0.00  0.00    +0.000 A 
ATOM      4  C   UNL     1      44.380   3.145  10.076  0.00  0.00    +0.000 A 
ATOM      5  C   UNL     1      44.774   2.376   8.972  0.00  0.00    +0.000 A 
ATOM      6  C   UNL     1      45.539   3.017   8.011  0.00  0.00    +0.000 A 
ATOM      7  N   UNL     1      45.926   4.309   8.071  0.00  0.00    +0.000 NA
ATOM      8  C   UNL     1      45.549   5.058   9.132  0.00  0.00    +0.000 A 
ATOM      9  C   UNL     1      44.772   4.484  10.135  0.00  0.00    +0.000 A 
ENDROOT
BRANCH   1  10
ATOM     10  C   UNL     1      44.332   6.404  11.726  0.00  0.00    +0.000 C 
BRANCH  10  14
ATOM     11  C   UNL     1      47.925   7.538  13.852  0.00  0.00    +0.000 A 
ATOM     12  C   UNL     1      47.724   6.201  13.518  0.00  0.00    +0.000 A 
ATOM     13  C   UNL     1      46.563   5.810  12.847  0.00  0.00    +0.000 A 
ATOM     14  C   UNL     1      45.576   6.751  12.511  0.00  0.00    +0.000 A 
ATOM     15  C   UNL     1      45.802   8.098  12.847  0.00  0.00    +0.000 A 
ATOM     16  C   UNL     1      46.966   8.487  13.514  0.00  0.00    +0.000 A 
ENDBRANCH  10  14
ENDBRANCH   1  10
TORSDOF 2
ENDMDL
MODEL 6
REMARK VINA RESULT:    -6.172      1.567      2.828
REMARK INTER + INTRA:          -7.164
REMARK INTER:                  -6.769
REMARK INTRA:                  -0.395
REMARK UNBOUND:                -0.270
REMARK  Name = 
REMARK  2 active torsions:
REMARK  status: ('A' for Active; 'I' for Inactive)
REMARK    1  A    between atoms: C_4  and  C_5
REMARK    2  A    between atoms: C_5  and  N_6
REMARK                            x       y       z     vdW  Elec       q    Type
REMARK                         _______ _______ _______ _____ _____    ______ ____
ROOT
ATOM      1  N   UNL     1      45.512   5.052  12.266  0.00  0.00    +0.000 N 
ATOM      2  C   UNL     1      45.792   4.065  13.181  0.00  0.00    +0.000 A 
ATOM      3  C   UNL     1      46.843   4.490  13.958  0.00  0.00    +0.000 A 
ATOM      4  C   UNL     1      47.226   5.781  13.501  0.00  0.00    +0.000 A 
ATOM      5  C   UNL     1      48.216   6.695  13.885  0.00  0.00    +0.000 A 
ATOM      6  C   UNL     1      48.272   7.883  13.175  0.00  0.00    +0.000 A 
ATOM      7  N   UNL     1      47.447   8.212  12.158  0.00  0.00    +0.000 NA
ATOM      8  C   UNL     1      46.489   7.336  11.781  0.00  0.00    +0.000 A 
ATOM      9  C   UNL     1      46.377   6.116  12.444  0.00  0.00    +0.000 A 
ENDROOT
BRANCH   1  10
ATOM     10  C   UNL     1      44.514   4.930  11.206  0.00  0.00    +0.000 C 
BRANCH  10  14
ATOM     11  C   UNL     1      45.937   2.625   7.833  0.00  0.00    +0.000 A 
ATOM     12  C   UNL     1      46.118   4.005   7.840  0.00  0.00    +0.000 A 
ATOM     13  C   UNL     1      45.651   4.771   8.911  0.00  0.00    +0.000 A 
ATOM     14  C   UNL     1      44.982   4.167   9.987  0.00  0.00    +0.000 A 
ATOM     15  C   UNL     1      44.817   2.770   9.968  0.00  0.00    +0.000 A 
ATOM     16  C   UNL     1      45.289   2.006   8.898  0.00  0.00    +0.000 A 
ENDBRANCH  10  14
ENDBRANCH   1  10
TORSDOF 2
ENDMDL
MODEL 7
REMARK VINA RESULT:    -6.002      1.598      2.786
REMARK INTER + INTRA:          -6.974
REMARK INTER:                  -6.547
REMARK INTRA:                  -0.426
REMARK UNBOUND:                -0.270
REMARK  Name = 
REMARK  2 active torsions:
REMARK  status: ('A' for Active; 'I' for Inactive)
REMARK    1  A    between atoms: C_4  and  C_5
REMARK    2  A    between atoms: C_5  and  N_6
REMARK                            x       y       z     vdW  Elec       q    Type
REMARK                         _______ _______ _______ _____ _____    ______ ____
ROOT
ATOM      1  N   UNL     1      45.320   5.270  12.287  0.00  0.00    +0.000 N 
ATOM      2  C   UNL     1      46.114   4.506  13.110  0.00  0.00    +0.000 A 
ATOM      3  C   UNL     1      47.044   5.335  13.692  0.00  0.00    +0.000 A 
ATOM      4  C   UNL     1      46.816   6.651  13.206  0.00  0.00    +0.000 A 
ATOM      5  C   UNL     1      47.434   7.890  13.427  0.00  0.00    +0.000 A 
ATOM      6  C   UNL     1      46.904   8.976  12.749  0.00  0.00    +0.000 A 
ATOM      7  N   UNL     1      45.849   8.920  11.909  0.00  0.00    +0.000 NA
ATOM      8  C   UNL     1      45.248   7.728  11.690  0.00  0.00    +0.000 A 
ATOM      9  C   UNL     1      45.730   6.589  12.331  0.00  0.00    +0.000 A 
ENDROOT
BRANCH   1  10
ATOM     10  C   UNL     1      44.272   4.729  11.423  0.00  0.00    +0.000 C 
BRANCH  10  14
ATOM     11  C   UNL     1      45.650   2.656   7.885  0.00  0.00    +0.000 A 
ATOM     12  C   UNL     1      44.979   1.943   8.875  0.00  0.00    +0.000 A 
ATOM     13  C   UNL     1      44.541   2.589  10.033  0.00  0.00    +0.000 A 
ATOM     14  C   UNL     1      44.780   3.959  10.226  0.00  0.00    +0.000 A 
ATOM     15  C   UNL     1      45.451   4.665   9.210  0.00  0.00    +0.000 A 
ATOM     16  C   UNL     1      45.884   4.018   8.051  0.00  0.00    +0.000 A 
ENDBRANCH  10  14
ENDBRANCH   1  10
TORSDOF 2
ENDMDL
MODEL 8
REMARK VINA RESULT:    -5.398      2.586      6.145
REMARK INTER + INTRA:          -6.299
REMARK INTER:                  -5.952
REMARK INTRA:                  -0.347
REMARK UNBOUND:                -0.270
REMARK  Name = 
REMARK  2 active torsions:
REMARK  status: ('A' for Active; 'I' for Inactive)
REMARK    1  A    between atoms: C_4  and  C_5
REMARK    2  A    between atoms: C_5  and  N_6
REMARK                            x       y       z     vdW  Elec       q    Type
REMARK                         _______ _______ _______ _____ _____    ______ ____
ROOT
ATOM      1  N   UNL     1      45.868   5.911  11.539  0.00  0.00    +0.000 N 
ATOM      2  C   UNL     1      46.082   5.950  10.181  0.00  0.00    +0.000 A 
ATOM      3  C   UNL     1      45.372   4.922   9.608  0.00  0.00    +0.000 A 
ATOM      4  C   UNL     1      44.702   4.224  10.650  0.00  0.00    +0.000 A 
ATOM      5  C   UNL     1      43.855   3.108  10.685  0.00  0.00    +0.000 A 
ATOM      6  C   UNL     1      43.391   2.722  11.932  0.00  0.00    +0.000 A 
ATOM      7  N   UNL     1      43.693   3.342  13.093  0.00  0.00    +0.000 NA
ATOM      8  C   UNL     1      44.510   4.419  13.067  0.00  0.00    +0.000 A 
ATOM      9  C   UNL     1      45.023   4.862  11.851  0.00  0.00    +0.000 A 
ENDROOT
BRANCH   1  10
ATOM     10  C   UNL     1      46.529   6.791  12.500  0.00  0.00    +0.000 C 
BRANCH  10  14
ATOM     11  C   UNL     1      46.272  11.047  11.768  0.00  0.00    +0.000 A 
ATOM     12  C   UNL     1      45.101  10.306  11.898  0.00  0.00    +0.000 A 
ATOM     13  C   UNL     1      45.160   8.927  12.117  0.00  0.00    +0.000 A 
ATOM     14  C   UNL     1      46.396   8.266  12.197  0.00  0.00    +0.000 A 
ATOM     15  C   UNL     1      47.569   9.032  12.073  0.00  0.00    +0.000 A 
ATOM     16  C   UNL     1      47.507  10.411  11.858  0.00  0.00    +0.000 A 
ENDBRANCH  10  14
ENDBRANCH   1  10
TORSDOF 2
ENDMDL
MODEL 9
REMARK VINA RESULT:    -5.055      3.520      5.989
REMARK INTER + INTRA:          -5.917
REMARK INTER:                  -5.480
REMARK INTRA:                  -0.437
REMARK UNBOUND:                -0.270
REMARK  Name = 
REMARK  2 active torsions:
REMARK  status: ('A' for Active; 'I' for Inactive)
REMARK    1  A    between atoms: C_4  and  C_5
REMARK    2  A    between atoms: C_5  and  N_6
REMARK                            x       y       z     vdW  Elec       q    Type
REMARK                         _______ _______ _______ _____ _____    ______ ____
ROOT
ATOM      1  N   UNL     1      46.186   7.189  12.811  0.00  0.00    +0.000 N 
ATOM      2  C   UNL     1      45.305   7.774  11.932  0.00  0.00    +0.000 A 
ATOM      3  C   UNL     1      44.554   6.776  11.356  0.00  0.00    +0.000 A 
ATOM      4  C   UNL     1      44.992   5.537  11.896  0.00  0.00    +0.000 A 
ATOM      5  C   UNL     1      44.618   4.201  11.693  0.00  0.00    +0.000 A 
ATOM      6  C   UNL     1      45.301   3.248  12.432  0.00  0.00    +0.000 A 
ATOM      7  N   UNL     1      46.281   3.518  13.320  0.00  0.00    +0.000 NA
ATOM      8  C   UNL     1      46.647   4.804  13.521  0.00  0.00    +0.000 A 
ATOM      9  C   UNL     1      46.011   5.818  12.808  0.00  0.00    +0.000 A 
ENDROOT
BRANCH   1  10
ATOM     10  C   UNL     1      47.215   7.918  13.549  0.00  0.00    +0.000 C 
BRANCH  10  14
ATOM     11  C   UNL     1      50.591   9.057  11.095  0.00  0.00    +0.000 A 
ATOM     12  C   UNL     1      50.447   7.727  11.482  0.00  0.00    +0.000 A 
ATOM     13  C   UNL     1      49.374   7.340  12.289  0.00  0.00    +0.000 A 
ATOM     14  C   UNL     1      48.434   8.284  12.733  0.00  0.00    +0.000 A 
ATOM     15  C   UNL     1      48.590   9.620  12.323  0.00  0.00    +0.000 A 
ATOM     16  C   UNL     1      49.661  10.003  11.513  0.00  0.00    +0.000 A 
ENDBRANCH  10  14
ENDBRANCH   1  10
TORSDOF 2
ENDMDL
