MODEL 1
REMARK VINA RESULT:    -7.791      0.000      0.000
REMARK INTER + INTRA:          -9.347
REMARK INTER:                  -9.158
REMARK INTRA:                  -0.189
REMARK UNBOUND:                -0.189
REMARK  Name = 
REMARK  3 active torsions:
REMARK  status: ('A' for Active; 'I' for Inactive)
REMARK    1  A    between atoms: C_2  and  C_4
REMARK    2  A    between atoms: N_8  and  C_9
REMARK    3  A    between atoms: C_9  and  C_10
REMARK                            x       y       z     vdW  Elec       q    Type
REMARK                         _______ _______ _______ _____ _____    ______ ____
ROOT
ATOM      1  C   UNL     1      46.370   2.111   7.835  0.00  0.00    +0.000 A 
ATOM      2  C   UNL     1      46.375   3.401   7.312  0.00  0.00    +0.000 A 
ATOM      3  C   UNL     1      45.642   4.393   7.956  0.00  0.00    +0.000 A 
ATOM      4  C   UNL     1      44.940   4.097   9.125  0.00  0.00    +0.000 A 
ATOM      5  N   UNL     1      44.264   5.148   9.757  0.00  0.00    +0.000 N 
ATOM      6  N   UNL     1      44.921   2.852   9.637  0.00  0.00    +0.000 NA
ATOM      7  C   UNL     1      45.609   1.885   8.975  0.00  0.00    +0.000 A 
ATOM      8  H   UNL     1      43.505   5.452   9.151  0.00  0.00    +0.000 HD
ENDROOT
BRANCH   1  10
ATOM      9  N   UNL     1      46.788  -0.276   7.650  0.00  0.00    +0.000 N 
ATOM     10  C   UNL     1      47.101   0.985   7.222  0.00  0.00    +0.000 C 
ATOM     11  O   UNL     1      47.934   1.166   6.344  0.00  0.00    +0.000 OA
ATOM     12  H   UNL     1      47.228  -1.041   7.151  0.00  0.00    +0.000 HD
ATOM     13  H   UNL     1      45.950  -0.483   8.173  0.00  0.00    +0.000 HD
ENDBRANCH   1  10
BRANCH   5  14
ATOM     14  C   UNL     1      43.785   4.879  11.103  0.00  0.00    +0.000 C 
BRANCH  14  15
ATOM     15  C   UNL     1      44.904   5.165  12.083  0.00  0.00    +0.000 A 
ATOM     16  C   UNL     1      45.484   4.093  12.789  0.00  0.00    +0.000 A 
ATOM     17  C   UNL     1      46.531   4.305  13.690  0.00  0.00    +0.000 A 
ATOM     18  C   UNL     1      47.024   5.590  13.895  0.00  0.00    +0.000 A 
ATOM     19  C   UNL     1      46.468   6.664  13.199  0.00  0.00    +0.000 A 
ATOM     20  C   UNL     1      45.417   6.456  12.301  0.00  0.00    +0.000 A 
ATOM     21 CL   UNL     1      44.789   7.834  11.469  0.00  0.00    +0.000 Cl
ENDBRANCH  14  15
ENDBRANCH   5  14
TORSDOF 3
ENDMDL
MODEL 2
REMARK VINA RESULT:    -7.704      1.310      1.786
REMARK INTER + INTRA:          -9.243
REMARK INTER:                  -8.845
REMARK INTRA:                  -0.399
REMARK UNBOUND:                -0.189
REMARK  Name = 
REMARK  3 active torsions:
REMARK  status: ('A' for Active; 'I' for Inactive)
REMARK    1  A    between atoms: C_2  and  C_4
REMARK    2  A    between atoms: N_8  and  C_9
REMARK    3  A    between atoms: C_9  and  C_10
REMARK                            x       y       z     vdW  Elec       q    Type
REMARK                         _______ _______ _______ _____ _____    ______ ____
ROOT
ATOM      1  C   UNL     1      46.211   1.987   7.838  0.00  0.00    +0.000 A 
ATOM      2  C   UNL     1      45.903   3.151   7.140  0.00  0.00    +0.000 A 
ATOM      3  C   UNL     1      45.079   4.099   7.740  0.00  0.00    +0.000 A 
ATOM      4  C   UNL     1      44.600   3.891   9.034  0.00  0.00    +0.000 A 
ATOM      5  N   UNL     1      43.819   4.903   9.604  0.00  0.00    +0.000 N 
ATOM      6  N   UNL     1      44.886   2.766   9.717  0.00  0.00    +0.000 NA
ATOM      7  C   UNL     1      45.658   1.832   9.102  0.00  0.00    +0.000 A 
ATOM      8  H   UNL     1      42.946   4.967   9.086  0.00  0.00    +0.000 HD
ENDROOT
BRANCH   1  10
ATOM      9  N   UNL     1      46.767  -0.372   7.649  0.00  0.00    +0.000 N 
ATOM     10  C   UNL     1      47.062   0.914   7.287  0.00  0.00    +0.000 C 
ATOM     11  O   UNL     1      47.979   1.158   6.514  0.00  0.00    +0.000 OA
ATOM     12  H   UNL     1      47.298  -1.101   7.187  0.00  0.00    +0.000 HD
ATOM     13  H   UNL     1      45.887  -0.632   8.069  0.00  0.00    +0.000 HD
ENDBRANCH   1  10
BRANCH   5  14
ATOM     14  C   UNL     1      43.574   4.789  11.033  0.00  0.00    +0.000 C 
BRANCH  14  15
ATOM     15  C   UNL     1      44.589   5.639  11.770  0.00  0.00    +0.000 A 
ATOM     16  C   UNL     1      44.506   7.041  11.671  0.00  0.00    +0.000 A 
ATOM     17  C   UNL     1      45.410   7.866  12.347  0.00  0.00    +0.000 A 
ATOM     18  C   UNL     1      46.404   7.306  13.142  0.00  0.00    +0.000 A 
ATOM     19  C   UNL     1      46.498   5.919  13.259  0.00  0.00    +0.000 A 
ATOM     20  C   UNL     1      45.599   5.090  12.579  0.00  0.00    +0.000 A 
ATOM     21 CL   UNL     1      45.772   3.383  12.783  0.00  0.00    +0.000 Cl
ENDBRANCH  14  15
ENDBRANCH   5  14
TORSDOF 3
ENDMDL
MODEL 3
REMARK VINA RESULT:    -7.353      3.068      6.390
REMARK INTER + INTRA:          -8.831
REMARK INTER:                  -8.496
REMARK INTRA:                  -0.336
REMARK UNBOUND:                -0.189
REMARK  Name = 
REMARK  3 active torsions:
REMARK  status: ('A' for Active; 'I' for Inactive)
REMARK    1  A    between atoms: C_2  and  C_4
REMARK    2  A    between atoms: N_8  and  C_9
REMARK    3  A    between atoms: C_9  and  C_10
REMARK                            x       y       z     vdW  Elec       q    Type
REMARK                         _______ _______ _______ _____ _____    ______ ____
ROOT
ATOM      1  C   UNL     1      45.584   6.685  12.479  0.00  0.00    +0.000 A 
ATOM      2  C   UNL     1      46.071   5.555  13.129  0.00  0.00    +0.000 A 
ATOM      3  C   UNL     1      45.807   4.299  12.588  0.00  0.00    +0.000 A 
ATOM      4  C   UNL     1      45.093   4.188  11.395  0.00  0.00    +0.000 A 
ATOM      5  N   UNL     1      44.904   2.903  10.872  0.00  0.00    +0.000 N 
ATOM      6  N   UNL     1      44.611   5.274  10.760  0.00  0.00    +0.000 NA
ATOM      7  C   UNL     1      44.842   6.489  11.321  0.00  0.00    +0.000 A 
ATOM      8  H   UNL     1      44.300   2.383  11.505  0.00  0.00    +0.000 HD
ENDROOT
BRANCH   1  10
ATOM      9  N   UNL     1      44.828   8.985  12.695  0.00  0.00    +0.000 N 
ATOM     10  C   UNL     1      45.795   8.058  12.976  0.00  0.00    +0.000 C 
ATOM     11  O   UNL     1      46.780   8.355  13.639  0.00  0.00    +0.000 OA
ATOM     12  H   UNL     1      44.941   9.895  13.126  0.00  0.00    +0.000 HD
ATOM     13  H   UNL     1      43.903   8.730  12.380  0.00  0.00    +0.000 HD
ENDBRANCH   1  10
BRANCH   5  14
ATOM     14  C   UNL     1      44.412   2.837   9.505  0.00  0.00    +0.000 C 
BRANCH  14  15
ATOM     15  C   UNL     1      45.540   2.380   8.604  0.00  0.00    +0.000 A 
ATOM     16  C   UNL     1      45.736   1.000   8.401  0.00  0.00    +0.000 A 
ATOM     17  C   UNL     1      46.753   0.532   7.564  0.00  0.00    +0.000 A 
ATOM     18  C   UNL     1      47.584   1.432   6.906  0.00  0.00    +0.000 A 
ATOM     19  C   UNL     1      47.401   2.803   7.088  0.00  0.00    +0.000 A 
ATOM     20  C   UNL     1      46.389   3.275   7.929  0.00  0.00    +0.000 A 
ATOM     21 CL   UNL     1      46.217   4.987   8.093  0.00  0.00    +0.000 Cl
ENDBRANCH  14  15
ENDBRANCH   5  14
TORSDOF 3
ENDMDL
MODEL 4
REMARK VINA RESULT:    -6.828      3.564      6.347
REMARK INTER + INTRA:          -8.215
REMARK INTER:                  -7.895
REMARK INTRA:                  -0.320
REMARK UNBOUND:                -0.189
REMARK  Name = 
REMARK  3 active torsions:
REMARK  status: ('A' for Active; 'I' for Inactive)
REMARK    1  A    between atoms: C_2  and  C_4
REMARK    2  A    between atoms: N_8  and  C_9
REMARK    3  A    between atoms: C_9  and  C_10
REMARK                            x       y       z     vdW  Elec       q    Type
REMARK                         _______ _______ _______ _____ _____    ______ ____
ROOT
ATOM      1  C   UNL     1      47.321   5.096  14.686  0.00  0.00    +0.000 A 
ATOM      2  C   UNL     1      47.785   6.244  14.050  0.00  0.00    +0.000 A 
ATOM      3  C   UNL     1      47.278   6.571  12.795  0.00  0.00    +0.000 A 
ATOM      4  C   UNL     1      46.298   5.771  12.207  0.00  0.00    +0.000 A 
ATOM      5  N   UNL     1      45.789   6.179  10.968  0.00  0.00    +0.000 N 
ATOM      6  N   UNL     1      45.846   4.654  12.809  0.00  0.00    +0.000 NA
ATOM      7  C   UNL     1      46.379   4.327  14.015  0.00  0.00    +0.000 A 
ATOM      8  H   UNL     1      46.532   6.109  10.276  0.00  0.00    +0.000 HD
ENDROOT
BRANCH   1  10
ATOM      9  N   UNL     1      47.737   5.554  17.038  0.00  0.00    +0.000 N 
ATOM     10  C   UNL     1      47.803   4.654  16.009  0.00  0.00    +0.000 C 
ATOM     11  O   UNL     1      48.220   3.518  16.191  0.00  0.00    +0.000 OA
ATOM     12  H   UNL     1      47.980   5.204  17.957  0.00  0.00    +0.000 HD
ATOM     13  H   UNL     1      47.178   6.394  16.992  0.00  0.00    +0.000 HD
ENDBRANCH   1  10
BRANCH   5  14
ATOM     14  C   UNL     1      44.587   5.495  10.517  0.00  0.00    +0.000 C 
BRANCH  14  15
ATOM     15  C   UNL     1      44.991   4.338   9.627  0.00  0.00    +0.000 A 
ATOM     16  C   UNL     1      45.835   4.584   8.526  0.00  0.00    +0.000 A 
ATOM     17  C   UNL     1      46.248   3.545   7.688  0.00  0.00    +0.000 A 
ATOM     18  C   UNL     1      45.838   2.241   7.941  0.00  0.00    +0.000 A 
ATOM     19  C   UNL     1      45.008   1.975   9.031  0.00  0.00    +0.000 A 
ATOM     20  C   UNL     1      44.588   3.013   9.868  0.00  0.00    +0.000 A 
ATOM     21 CL   UNL     1      43.572   2.602  11.205  0.00  0.00    +0.000 Cl
ENDBRANCH  14  15
ENDBRANCH   5  14
TORSDOF 3
ENDMDL
MODEL 5
REMARK VINA RESULT:    -6.610      3.332      6.386
REMARK INTER + INTRA:          -7.958
REMARK INTER:                  -7.834
REMARK INTRA:                  -0.124
REMARK UNBOUND:                -0.189
REMARK  Name = 
REMARK  3 active torsions:
REMARK  status: ('A' for Active; 'I' for Inactive)
REMARK    1  A    between atoms: C_2  and  C_4
REMARK    2  A    between atoms: N_8  and  C_9
REMARK    3  A    between atoms: C_9  and  C_10
REMARK                            x       y       z     vdW  Elec       q    Type
REMARK                         _______ _______ _______ _____ _____    ______ ____
ROOT
ATOM      1  C   UNL     1      47.115   6.249  12.796  0.00  0.00    +0.000 A 
ATOM      2  C   UNL     1      46.434   5.135  13.278  0.00  0.00    +0.000 A 
ATOM      3  C   UNL     1      45.565   4.456  12.428  0.00  0.00    +0.000 A 
ATOM      4  C   UNL     1      45.411   4.874  11.106  0.00  0.00    +0.000 A 
ATOM      5  N   UNL     1      44.564   4.121  10.285  0.00  0.00    +0.000 N 
ATOM      6  N   UNL     1      46.059   5.955  10.630  0.00  0.00    +0.000 NA
ATOM      7  C   UNL     1      46.872   6.631  11.483  0.00  0.00    +0.000 A 
ATOM      8  H   UNL     1      43.611   4.219  10.629  0.00  0.00    +0.000 HD
ENDROOT
BRANCH   1  10
ATOM      9  N   UNL     1      47.809   7.100  14.965  0.00  0.00    +0.000 N 
ATOM     10  C   UNL     1      48.046   7.047  13.618  0.00  0.00    +0.000 C 
ATOM     11  O   UNL     1      49.009   7.616  13.124  0.00  0.00    +0.000 OA
ATOM     12  H   UNL     1      48.511   7.570  15.525  0.00  0.00    +0.000 HD
ATOM     13  H   UNL     1      47.192   6.455  15.437  0.00  0.00    +0.000 HD
ENDBRANCH   1  10
BRANCH   5  14
ATOM     14  C   UNL     1      44.639   4.405   8.861  0.00  0.00    +0.000 C 
BRANCH  14  15
ATOM     15  C   UNL     1      45.597   3.423   8.219  0.00  0.00    +0.000 A 
ATOM     16  C   UNL     1      46.677   3.917   7.461  0.00  0.00    +0.000 A 
ATOM     17  C   UNL     1      47.597   3.049   6.866  0.00  0.00    +0.000 A 
ATOM     18  C   UNL     1      47.462   1.674   7.026  0.00  0.00    +0.000 A 
ATOM     19  C   UNL     1      46.404   1.165   7.779  0.00  0.00    +0.000 A 
ATOM     20  C   UNL     1      45.479   2.030   8.372  0.00  0.00    +0.000 A 
ATOM     21 CL   UNL     1      44.203   1.324   9.300  0.00  0.00    +0.000 Cl
ENDBRANCH  14  15
ENDBRANCH   5  14
TORSDOF 3
ENDMDL
MODEL 6
REMARK VINA RESULT:    -6.283      3.833      5.308
REMARK INTER + INTRA:          -7.574
REMARK INTER:                  -7.261
REMARK INTRA:                  -0.314
REMARK UNBOUND:                -0.189
REMARK  Name = 
REMARK  3 active torsions:
REMARK  status: ('A' for Active; 'I' for Inactive)
REMARK    1  A    between atoms: C_2  and  C_4
REMARK    2  A    between atoms: N_8  and  C_9
REMARK    3  A    between atoms: C_9  and  C_10
REMARK                            x       y       z     vdW  Elec       q    Type
REMARK                         _______ _______ _______ _____ _____    ______ ____
ROOT
ATOM      1  C   UNL     1      45.032   4.066  10.989  0.00  0.00    +0.000 A 
ATOM      2  C   UNL     1      45.388   5.406  11.117  0.00  0.00    +0.000 A 
ATOM      3  C   UNL     1      45.919   5.850  12.325  0.00  0.00    +0.000 A 
ATOM      4  C   UNL     1      46.118   4.951  13.374  0.00  0.00    +0.000 A 
ATOM      5  N   UNL     1      46.704   5.445  14.546  0.00  0.00    +0.000 N 
ATOM      6  N   UNL     1      45.771   3.654  13.265  0.00  0.00    +0.000 NA
ATOM      7  C   UNL     1      45.217   3.245  12.094  0.00  0.00    +0.000 A 
ATOM      8  H   UNL     1      46.057   6.102  14.977  0.00  0.00    +0.000 HD
ENDROOT
BRANCH   1  10
ATOM      9  N   UNL     1      44.087   4.374   8.770  0.00  0.00    +0.000 N 
ATOM     10  C   UNL     1      44.448   3.499   9.758  0.00  0.00    +0.000 C 
ATOM     11  O   UNL     1      44.316   2.291   9.611  0.00  0.00    +0.000 OA
ATOM     12  H   UNL     1      43.780   3.963   7.897  0.00  0.00    +0.000 HD
ATOM     13  H   UNL     1      44.405   5.332   8.747  0.00  0.00    +0.000 HD
ENDBRANCH   1  10
BRANCH   5  14
ATOM     14  C   UNL     1      47.153   4.447  15.503  0.00  0.00    +0.000 C 
BRANCH  14  15
ATOM     15  C   UNL     1      48.246   5.052  16.359  0.00  0.00    +0.000 A 
ATOM     16  C   UNL     1      48.807   6.287  15.979  0.00  0.00    +0.000 A 
ATOM     17  C   UNL     1      49.805   6.893  16.747  0.00  0.00    +0.000 A 
ATOM     18  C   UNL     1      50.253   6.283  17.914  0.00  0.00    +0.000 A 
ATOM     19  C   UNL     1      49.705   5.063  18.312  0.00  0.00    +0.000 A 
ATOM     20  C   UNL     1      48.710   4.452  17.543  0.00  0.00    +0.000 A 
ATOM     21 CL   UNL     1      48.071   2.949  18.108  0.00  0.00    +0.000 Cl
ENDBRANCH  14  15
ENDBRANCH   5  14
TORSDOF 3
ENDMDL
MODEL 7
REMARK VINA RESULT:    -6.211      4.877      7.405
REMARK INTER + INTRA:          -7.489
REMARK INTER:                  -7.179
REMARK INTRA:                  -0.309
REMARK UNBOUND:                -0.189
REMARK  Name = 
REMARK  3 active torsions:
REMARK  status: ('A' for Active; 'I' for Inactive)
REMARK    1  A    between atoms: C_2  and  C_4
REMARK    2  A    between atoms: N_8  and  C_9
REMARK    3  A    between atoms: C_9  and  C_10
REMARK                            x       y       z     vdW  Elec       q    Type
REMARK                         _______ _______ _______ _____ _____    ______ ____
ROOT
ATOM      1  C   UNL     1      48.440   4.580  17.069  0.00  0.00    +0.000 A 
ATOM      2  C   UNL     1      48.827   5.725  16.378  0.00  0.00    +0.000 A 
ATOM      3  C   UNL     1      48.170   6.052  15.194  0.00  0.00    +0.000 A 
ATOM      4  C   UNL     1      47.120   5.256  14.734  0.00  0.00    +0.000 A 
ATOM      5  N   UNL     1      46.464   5.665  13.567  0.00  0.00    +0.000 N 
ATOM      6  N   UNL     1      46.742   4.143  15.390  0.00  0.00    +0.000 NA
ATOM      7  C   UNL     1      47.419   3.814  16.522  0.00  0.00    +0.000 A 
ATOM      8  H   UNL     1      47.116   5.591  12.788  0.00  0.00    +0.000 HD
ENDROOT
BRANCH   1  10
ATOM      9  N   UNL     1      48.440   3.171  19.050  0.00  0.00    +0.000 N 
ATOM     10  C   UNL     1      49.081   4.137  18.323  0.00  0.00    +0.000 C 
ATOM     11  O   UNL     1      50.156   4.591  18.687  0.00  0.00    +0.000 OA
ATOM     12  H   UNL     1      48.939   2.810  19.854  0.00  0.00    +0.000 HD
ATOM     13  H   UNL     1      47.699   2.601  18.667  0.00  0.00    +0.000 HD
ENDBRANCH   1  10
BRANCH   5  14
ATOM     14  C   UNL     1      45.213   4.987  13.270  0.00  0.00    +0.000 C 
BRANCH  14  15
ATOM     15  C   UNL     1      45.116   4.780  11.772  0.00  0.00    +0.000 A 
ATOM     16  C   UNL     1      45.841   5.633  10.917  0.00  0.00    +0.000 A 
ATOM     17  C   UNL     1      45.796   5.470   9.529  0.00  0.00    +0.000 A 
ATOM     18  C   UNL     1      45.037   4.446   8.972  0.00  0.00    +0.000 A 
ATOM     19  C   UNL     1      44.318   3.586   9.803  0.00  0.00    +0.000 A 
ATOM     20  C   UNL     1      44.356   3.750  11.191  0.00  0.00    +0.000 A 
ATOM     21 CL   UNL     1      43.449   2.638  12.154  0.00  0.00    +0.000 Cl
ENDBRANCH  14  15
ENDBRANCH   5  14
TORSDOF 3
ENDMDL
MODEL 8
REMARK VINA RESULT:    -6.027      4.219      5.754
REMARK INTER + INTRA:          -7.273
REMARK INTER:                  -7.287
REMARK INTRA:                   0.014
REMARK UNBOUND:                -0.189
REMARK  Name = 
REMARK  3 active torsions:
REMARK  status: ('A' for Active; 'I' for Inactive)
REMARK    1  A    between atoms: C_2  and  C_4
REMARK    2  A    between atoms: N_8  and  C_9
REMARK    3  A    between atoms: C_9  and  C_10
REMARK                            x       y       z     vdW  Elec       q    Type
REMARK                         _______ _______ _______ _____ _____    ______ ____
ROOT
ATOM      1  C   UNL     1      45.202   4.811  11.588  0.00  0.00    +0.000 A 
ATOM      2  C   UNL     1      46.156   5.808  11.764  0.00  0.00    +0.000 A 
ATOM      3  C   UNL     1      46.799   5.917  12.994  0.00  0.00    +0.000 A 
ATOM      4  C   UNL     1      46.508   5.015  14.018  0.00  0.00    +0.000 A 
ATOM      5  N   UNL     1      47.224   5.142  15.214  0.00  0.00    +0.000 N 
ATOM      6  N   UNL     1      45.581   4.051  13.862  0.00  0.00    +0.000 NA
ATOM      7  C   UNL     1      44.933   3.982  12.670  0.00  0.00    +0.000 A 
ATOM      8  H   UNL     1      46.962   6.022  15.654  0.00  0.00    +0.000 HD
ENDROOT
BRANCH   1  10
ATOM      9  N   UNL     1      45.055   3.885   9.345  0.00  0.00    +0.000 N 
ATOM     10  C   UNL     1      44.453   4.620  10.331  0.00  0.00    +0.000 C 
ATOM     11  O   UNL     1      43.327   5.074  10.181  0.00  0.00    +0.000 OA
ATOM     12  H   UNL     1      44.490   3.682   8.529  0.00  0.00    +0.000 HD
ATOM     13  H   UNL     1      45.855   3.293   9.517  0.00  0.00    +0.000 HD
ENDBRANCH   1  10
BRANCH   5  14
ATOM     14  C   UNL     1      47.106   4.034  16.148  0.00  0.00    +0.000 C 
BRANCH  14  15
ATOM     15  C   UNL     1      48.484   3.700  16.682  0.00  0.00    +0.000 A 
ATOM     16  C   UNL     1      48.963   2.381  16.558  0.00  0.00    +0.000 A 
ATOM     17  C   UNL     1      50.235   2.030  17.020  0.00  0.00    +0.000 A 
ATOM     18  C   UNL     1      51.054   2.991  17.602  0.00  0.00    +0.000 A 
ATOM     19  C   UNL     1      50.601   4.305  17.727  0.00  0.00    +0.000 A 
ATOM     20  C   UNL     1      49.327   4.658  17.271  0.00  0.00    +0.000 A 
ATOM     21 CL   UNL     1      48.842   6.307  17.448  0.00  0.00    +0.000 Cl
ENDBRANCH  14  15
ENDBRANCH   5  14
TORSDOF 3
ENDMDL
MODEL 9
REMARK VINA RESULT:    -5.999      4.097      6.723
REMARK INTER + INTRA:          -7.240
REMARK INTER:                  -6.880
REMARK INTRA:                  -0.360
REMARK UNBOUND:                -0.189
REMARK  Name = 
REMARK  3 active torsions:
REMARK  status: ('A' for Active; 'I' for Inactive)
REMARK    1  A    between atoms: C_2  and  C_4
REMARK    2  A    between atoms: N_8  and  C_9
REMARK    3  A    between atoms: C_9  and  C_10
REMARK                            x       y       z     vdW  Elec       q    Type
REMARK                         _______ _______ _______ _____ _____    ______ ____
ROOT
ATOM      1  C   UNL     1      49.017   7.126  13.995  0.00  0.00    +0.000 A 
ATOM      2  C   UNL     1      48.894   8.017  12.933  0.00  0.00    +0.000 A 
ATOM      3  C   UNL     1      47.893   7.806  11.988  0.00  0.00    +0.000 A 
ATOM      4  C   UNL     1      47.012   6.733  12.130  0.00  0.00    +0.000 A 
ATOM      5  N   UNL     1      45.994   6.603  11.178  0.00  0.00    +0.000 N 
ATOM      6  N   UNL     1      47.126   5.860  13.149  0.00  0.00    +0.000 NA
ATOM      7  C   UNL     1      48.132   6.056  14.040  0.00  0.00    +0.000 A 
ATOM      8  H   UNL     1      46.419   6.384  10.279  0.00  0.00    +0.000 HD
ENDROOT
BRANCH   1  10
ATOM      9  N   UNL     1      50.708   8.447  15.137  0.00  0.00    +0.000 N 
ATOM     10  C   UNL     1      50.051   7.250  15.040  0.00  0.00    +0.000 C 
ATOM     11  O   UNL     1      50.296   6.332  15.811  0.00  0.00    +0.000 OA
ATOM     12  H   UNL     1      51.343   8.548  15.919  0.00  0.00    +0.000 HD
ATOM     13  H   UNL     1      50.369   9.292  14.700  0.00  0.00    +0.000 HD
ENDBRANCH   1  10
BRANCH   5  14
ATOM     14  C   UNL     1      44.936   5.660  11.501  0.00  0.00    +0.000 C 
BRANCH  14  15
ATOM     15  C   UNL     1      44.901   4.584  10.436  0.00  0.00    +0.000 A 
ATOM     16  C   UNL     1      45.484   4.847   9.181  0.00  0.00    +0.000 A 
ATOM     17  C   UNL     1      45.492   3.879   8.173  0.00  0.00    +0.000 A 
ATOM     18  C   UNL     1      44.929   2.628   8.403  0.00  0.00    +0.000 A 
ATOM     19  C   UNL     1      44.353   2.346   9.642  0.00  0.00    +0.000 A 
ATOM     20  C   UNL     1      44.339   3.314  10.651  0.00  0.00    +0.000 A 
ATOM     21 CL   UNL     1      43.619   2.885  12.162  0.00  0.00    +0.000 Cl
ENDBRANCH  14  15
ENDBRANCH   5  14
TORSDOF 3
ENDMDL
