MODEL 1
REMARK VINA RESULT:    -8.557      0.000      0.000
REMARK INTER + INTRA:         -12.920
REMARK INTER:                 -11.558
REMARK INTRA:                  -1.362
REMARK UNBOUND:                -1.362
REMARK  Name = 
REMARK  7 active torsions:
REMARK  status: ('A' for Active; 'I' for Inactive)
REMARK    1  A    between atoms: C_1  and  O_2
REMARK    2  A    between atoms: O_2  and  C_3
REMARK    3  A    between atoms: C_5  and  C_6
REMARK    4  A    between atoms: C_11  and  O_12
REMARK    5  A    between atoms: O_12  and  C_13
REMARK    6  A    between atoms: C_13  and  C_14
REMARK    7  A    between atoms: C_18  and  C_19
REMARK                            x       y       z     vdW  Elec       q    Type
REMARK                         _______ _______ _______ _____ _____    ______ ____
ROOT
ATOM      1  O   UNL     1      43.990   6.483  12.681  0.00  0.00    +0.000 OA
ENDROOT
BRANCH   1   7
ATOM      2  C   UNL     1      46.292   5.693  13.261  0.00  0.00    +0.000 A 
ATOM      3  C   UNL     1      47.661   6.003  13.211  0.00  0.00    +0.000 A 
ATOM      4  C   UNL     1      48.122   7.193  12.631  0.00  0.00    +0.000 A 
ATOM      5  C   UNL     1      47.198   8.086  12.087  0.00  0.00    +0.000 A 
ATOM      6  C   UNL     1      45.828   7.786  12.137  0.00  0.00    +0.000 A 
ATOM      7  C   UNL     1      45.363   6.598  12.721  0.00  0.00    +0.000 A 
BRANCH   4   8
ATOM      8  C   UNL     1      49.599   7.418  12.629  0.00  0.00    +0.000 C 
ATOM      9  N   UNL     1      50.267   7.432  13.820  0.00  0.00    +0.000 N 
ATOM     10  O   UNL     1      50.215   7.590  11.585  0.00  0.00    +0.000 OA
ATOM     11  H   UNL     1      49.849   7.311  14.728  0.00  0.00    +0.000 HD
ATOM     12  H   UNL     1      51.265   7.593  13.775  0.00  0.00    +0.000 HD
ENDBRANCH   4   8
BRANCH   2  14
ATOM     13  C   UNL     1      46.361   3.301  13.215  0.00  0.00    +0.000 C 
ATOM     14  O   UNL     1      45.842   4.503  13.765  0.00  0.00    +0.000 OA
ENDBRANCH   2  14
ENDBRANCH   1   7
BRANCH   1  15
ATOM     15  C   UNL     1      43.390   6.250  11.407  0.00  0.00    +0.000 C 
BRANCH  15  16
ATOM     16  C   UNL     1      43.589   4.826  10.968  0.00  0.00    +0.000 A 
ATOM     17  C   UNL     1      43.047   3.771  11.689  0.00  0.00    +0.000 A 
ATOM     18  N   UNL     1      43.272   2.472  11.406  0.00  0.00    +0.000 NA
ATOM     19  C   UNL     1      44.081   2.213  10.348  0.00  0.00    +0.000 A 
ATOM     20  C   UNL     1      44.693   3.177   9.541  0.00  0.00    +0.000 A 
ATOM     21  C   UNL     1      44.417   4.509   9.883  0.00  0.00    +0.000 A 
BRANCH  20  22
ATOM     22  C   UNL     1      45.589   2.825   8.418  0.00  0.00    +0.000 A 
ATOM     23  C   UNL     1      45.933   3.773   7.433  0.00  0.00    +0.000 A 
ATOM     24  C   UNL     1      46.797   3.454   6.382  0.00  0.00    +0.000 A 
ATOM     25  C   UNL     1      47.321   2.174   6.292  0.00  0.00    +0.000 A 
ATOM     26  F   UNL     1      48.147   1.866   5.284  0.00  0.00    +0.000 F 
ATOM     27  C   UNL     1      47.001   1.210   7.235  0.00  0.00    +0.000 A 
ATOM     28  C   UNL     1      46.145   1.536   8.294  0.00  0.00    +0.000 A 
ENDBRANCH  20  22
ENDBRANCH  15  16
ENDBRANCH   1  15
TORSDOF 6
ENDMDL
MODEL 2
REMARK VINA RESULT:    -8.052      1.042      2.027
REMARK INTER + INTRA:         -12.238
REMARK INTER:                 -11.317
REMARK INTRA:                  -0.921
REMARK UNBOUND:                -1.362
REMARK  Name = 
REMARK  7 active torsions:
REMARK  status: ('A' for Active; 'I' for Inactive)
REMARK    1  A    between atoms: C_1  and  O_2
REMARK    2  A    between atoms: O_2  and  C_3
REMARK    3  A    between atoms: C_5  and  C_6
REMARK    4  A    between atoms: C_11  and  O_12
REMARK    5  A    between atoms: O_12  and  C_13
REMARK    6  A    between atoms: C_13  and  C_14
REMARK    7  A    between atoms: C_18  and  C_19
REMARK                            x       y       z     vdW  Elec       q    Type
REMARK                         _______ _______ _______ _____ _____    ______ ____
ROOT
ATOM      1  O   UNL     1      43.950   6.477  12.697  0.00  0.00    +0.000 OA
ENDROOT
BRANCH   1   7
ATOM      2  C   UNL     1      45.899   8.036  12.874  0.00  0.00    +0.000 A 
ATOM      3  C   UNL     1      47.290   8.122  13.050  0.00  0.00    +0.000 A 
ATOM      4  C   UNL     1      48.080   6.978  13.221  0.00  0.00    +0.000 A 
ATOM      5  C   UNL     1      47.467   5.724  13.221  0.00  0.00    +0.000 A 
ATOM      6  C   UNL     1      46.079   5.627  13.040  0.00  0.00    +0.000 A 
ATOM      7  C   UNL     1      45.287   6.771  12.864  0.00  0.00    +0.000 A 
BRANCH   4   8
ATOM      8  C   UNL     1      49.547   7.188  13.404  0.00  0.00    +0.000 C 
ATOM      9  N   UNL     1      50.320   7.449  12.309  0.00  0.00    +0.000 N 
ATOM     10  O   UNL     1      50.065   7.130  14.513  0.00  0.00    +0.000 OA
ATOM     11  H   UNL     1      49.991   7.505  11.360  0.00  0.00    +0.000 HD
ATOM     12  H   UNL     1      51.309   7.580  12.477  0.00  0.00    +0.000 HD
ENDBRANCH   4   8
BRANCH   2  14
ATOM     13  C   UNL     1      45.296  10.001  11.649  0.00  0.00    +0.000 C 
ATOM     14  O   UNL     1      45.116   9.153  12.774  0.00  0.00    +0.000 OA
ENDBRANCH   2  14
ENDBRANCH   1   7
BRANCH   1  15
ATOM     15  C   UNL     1      43.481   6.298  11.362  0.00  0.00    +0.000 C 
BRANCH  15  16
ATOM     16  C   UNL     1      43.650   4.872  10.916  0.00  0.00    +0.000 A 
ATOM     17  C   UNL     1      43.060   3.828  11.615  0.00  0.00    +0.000 A 
ATOM     18  N   UNL     1      43.255   2.525  11.327  0.00  0.00    +0.000 NA
ATOM     19  C   UNL     1      44.082   2.251  10.288  0.00  0.00    +0.000 A 
ATOM     20  C   UNL     1      44.742   3.202   9.504  0.00  0.00    +0.000 A 
ATOM     21  C   UNL     1      44.496   4.539   9.850  0.00  0.00    +0.000 A 
BRANCH  20  22
ATOM     22  C   UNL     1      45.656   2.832   8.401  0.00  0.00    +0.000 A 
ATOM     23  C   UNL     1      46.064   3.782   7.442  0.00  0.00    +0.000 A 
ATOM     24  C   UNL     1      46.946   3.445   6.410  0.00  0.00    +0.000 A 
ATOM     25  C   UNL     1      47.422   2.147   6.314  0.00  0.00    +0.000 A 
ATOM     26  F   UNL     1      48.263   1.822   5.325  0.00  0.00    +0.000 F 
ATOM     27  C   UNL     1      47.037   1.182   7.232  0.00  0.00    +0.000 A 
ATOM     28  C   UNL     1      46.165   1.524   8.271  0.00  0.00    +0.000 A 
ENDBRANCH  20  22
ENDBRANCH  15  16
ENDBRANCH   1  15
TORSDOF 6
ENDMDL
MODEL 3
REMARK VINA RESULT:    -7.296      3.400      6.624
REMARK INTER + INTRA:         -11.216
REMARK INTER:                 -10.520
REMARK INTRA:                  -0.696
REMARK UNBOUND:                -1.362
REMARK  Name = 
REMARK  7 active torsions:
REMARK  status: ('A' for Active; 'I' for Inactive)
REMARK    1  A    between atoms: C_1  and  O_2
REMARK    2  A    between atoms: O_2  and  C_3
REMARK    3  A    between atoms: C_5  and  C_6
REMARK    4  A    between atoms: C_11  and  O_12
REMARK    5  A    between atoms: O_12  and  C_13
REMARK    6  A    between atoms: C_13  and  C_14
REMARK    7  A    between atoms: C_18  and  C_19
REMARK                            x       y       z     vdW  Elec       q    Type
REMARK                         _______ _______ _______ _____ _____    ______ ____
ROOT
ATOM      1  O   UNL     1      43.975   5.554  10.189  0.00  0.00    +0.000 OA
ENDROOT
BRANCH   1   7
ATOM      2  C   UNL     1      44.300   3.086   9.930  0.00  0.00    +0.000 A 
ATOM      3  C   UNL     1      45.041   2.086   9.279  0.00  0.00    +0.000 A 
ATOM      4  C   UNL     1      46.048   2.402   8.357  0.00  0.00    +0.000 A 
ATOM      5  C   UNL     1      46.315   3.743   8.077  0.00  0.00    +0.000 A 
ATOM      6  C   UNL     1      45.583   4.749   8.726  0.00  0.00    +0.000 A 
ATOM      7  C   UNL     1      44.578   4.435   9.653  0.00  0.00    +0.000 A 
BRANCH   4   8
ATOM      8  C   UNL     1      46.769   1.259   7.722  0.00  0.00    +0.000 C 
ATOM      9  N   UNL     1      47.815   1.520   6.884  0.00  0.00    +0.000 N 
ATOM     10  O   UNL     1      46.440   0.099   7.940  0.00  0.00    +0.000 OA
ATOM     11  H   UNL     1      48.152   2.435   6.635  0.00  0.00    +0.000 HD
ATOM     12  H   UNL     1      48.272   0.717   6.471  0.00  0.00    +0.000 HD
ENDBRANCH   4   8
BRANCH   2  14
ATOM     13  C   UNL     1      43.593   2.297  12.075  0.00  0.00    +0.000 C 
ATOM     14  O   UNL     1      43.272   2.782  10.780  0.00  0.00    +0.000 OA
ENDBRANCH   2  14
ENDBRANCH   1   7
BRANCH   1  15
ATOM     15  C   UNL     1      43.955   5.668  11.611  0.00  0.00    +0.000 C 
BRANCH  15  16
ATOM     16  C   UNL     1      45.351   5.753  12.166  0.00  0.00    +0.000 A 
ATOM     17  C   UNL     1      45.777   4.891  13.168  0.00  0.00    +0.000 A 
ATOM     18  N   UNL     1      46.977   4.981  13.775  0.00  0.00    +0.000 NA
ATOM     19  C   UNL     1      47.794   5.982  13.361  0.00  0.00    +0.000 A 
ATOM     20  C   UNL     1      47.489   6.918  12.369  0.00  0.00    +0.000 A 
ATOM     21  C   UNL     1      46.228   6.771  11.772  0.00  0.00    +0.000 A 
BRANCH  20  22
ATOM     22  C   UNL     1      48.417   8.006  11.987  0.00  0.00    +0.000 A 
ATOM     23  C   UNL     1      49.771   7.742  11.697  0.00  0.00    +0.000 A 
ATOM     24  C   UNL     1      50.647   8.762  11.312  0.00  0.00    +0.000 A 
ATOM     25  C   UNL     1      50.184  10.065  11.226  0.00  0.00    +0.000 A 
ATOM     26  F   UNL     1      51.022  11.043  10.861  0.00  0.00    +0.000 F 
ATOM     27  C   UNL     1      48.861  10.366  11.512  0.00  0.00    +0.000 A 
ATOM     28  C   UNL     1      47.983   9.343  11.884  0.00  0.00    +0.000 A 
ENDBRANCH  20  22
ENDBRANCH  15  16
ENDBRANCH   1  15
TORSDOF 6
ENDMDL
MODEL 4
REMARK VINA RESULT:    -7.258      2.470      3.308
REMARK INTER + INTRA:         -11.166
REMARK INTER:                 -10.380
REMARK INTRA:                  -0.786
REMARK UNBOUND:                -1.362
REMARK  Name = 
REMARK  7 active torsions:
REMARK  status: ('A' for Active; 'I' for Inactive)
REMARK    1  A    between atoms: C_1  and  O_2
REMARK    2  A    between atoms: O_2  and  C_3
REMARK    3  A    between atoms: C_5  and  C_6
REMARK    4  A    between atoms: C_11  and  O_12
REMARK    5  A    between atoms: O_12  and  C_13
REMARK    6  A    between atoms: C_13  and  C_14
REMARK    7  A    between atoms: C_18  and  C_19
REMARK                            x       y       z     vdW  Elec       q    Type
REMARK                         _______ _______ _______ _____ _____    ______ ____
ROOT
ATOM      1  O   UNL     1      46.481   5.749  12.872  0.00  0.00    +0.000 OA
ENDROOT
BRANCH   1   7
ATOM      2  C   UNL     1      48.081   6.391  14.686  0.00  0.00    +0.000 A 
ATOM      3  C   UNL     1      48.620   6.019  15.928  0.00  0.00    +0.000 A 
ATOM      4  C   UNL     1      48.219   4.845  16.580  0.00  0.00    +0.000 A 
ATOM      5  C   UNL     1      47.255   4.032  15.982  0.00  0.00    +0.000 A 
ATOM      6  C   UNL     1      46.714   4.394  14.738  0.00  0.00    +0.000 A 
ATOM      7  C   UNL     1      47.118   5.566  14.082  0.00  0.00    +0.000 A 
BRANCH   4   8
ATOM      8  C   UNL     1      48.856   4.550  17.898  0.00  0.00    +0.000 C 
ATOM      9  N   UNL     1      48.071   4.488  19.013  0.00  0.00    +0.000 N 
ATOM     10  O   UNL     1      50.063   4.364  17.994  0.00  0.00    +0.000 OA
ATOM     11  H   UNL     1      47.075   4.636  19.038  0.00  0.00    +0.000 HD
ATOM     12  H   UNL     1      48.543   4.291  19.886  0.00  0.00    +0.000 HD
ENDBRANCH   4   8
BRANCH   2  14
ATOM     13  C   UNL     1      49.749   7.719  13.601  0.00  0.00    +0.000 C 
ATOM     14  O   UNL     1      48.420   7.569  14.078  0.00  0.00    +0.000 OA
ENDBRANCH   2  14
ENDBRANCH   1   7
BRANCH   1  15
ATOM     15  C   UNL     1      45.059   5.631  12.858  0.00  0.00    +0.000 C 
BRANCH  15  16
ATOM     16  C   UNL     1      44.616   4.549  11.912  0.00  0.00    +0.000 A 
ATOM     17  C   UNL     1      43.549   3.716  12.224  0.00  0.00    +0.000 A 
ATOM     18  N   UNL     1      43.169   2.668  11.468  0.00  0.00    +0.000 NA
ATOM     19  C   UNL     1      43.889   2.437  10.342  0.00  0.00    +0.000 A 
ATOM     20  C   UNL     1      44.985   3.192   9.913  0.00  0.00    +0.000 A 
ATOM     21  C   UNL     1      45.330   4.272  10.740  0.00  0.00    +0.000 A 
BRANCH  20  22
ATOM     22  C   UNL     1      45.747   2.867   8.687  0.00  0.00    +0.000 A 
ATOM     23  C   UNL     1      46.073   3.863   7.744  0.00  0.00    +0.000 A 
ATOM     24  C   UNL     1      46.812   3.568   6.595  0.00  0.00    +0.000 A 
ATOM     25  C   UNL     1      47.226   2.265   6.365  0.00  0.00    +0.000 A 
ATOM     26  F   UNL     1      47.931   1.980   5.264  0.00  0.00    +0.000 F 
ATOM     27  C   UNL     1      46.918   1.255   7.263  0.00  0.00    +0.000 A 
ATOM     28  C   UNL     1      46.189   1.556   8.419  0.00  0.00    +0.000 A 
ENDBRANCH  20  22
ENDBRANCH  15  16
ENDBRANCH   1  15
TORSDOF 6
ENDMDL
MODEL 5
REMARK VINA RESULT:    -7.187      1.983      2.483
REMARK INTER + INTRA:         -11.069
REMARK INTER:                 -10.252
REMARK INTRA:                  -0.817
REMARK UNBOUND:                -1.362
REMARK  Name = 
REMARK  7 active torsions:
REMARK  status: ('A' for Active; 'I' for Inactive)
REMARK    1  A    between atoms: C_1  and  O_2
REMARK    2  A    between atoms: O_2  and  C_3
REMARK    3  A    between atoms: C_5  and  C_6
REMARK    4  A    between atoms: C_11  and  O_12
REMARK    5  A    between atoms: O_12  and  C_13
REMARK    6  A    between atoms: C_13  and  C_14
REMARK    7  A    between atoms: C_18  and  C_19
REMARK                            x       y       z     vdW  Elec       q    Type
REMARK                         _______ _______ _______ _____ _____    ______ ____
ROOT
ATOM      1  O   UNL     1      45.769   4.423  14.176  0.00  0.00    +0.000 OA
ENDROOT
BRANCH   1   7
ATOM      2  C   UNL     1      47.552   4.983  15.840  0.00  0.00    +0.000 A 
ATOM      3  C   UNL     1      48.700   5.757  16.079  0.00  0.00    +0.000 A 
ATOM      4  C   UNL     1      49.215   6.625  15.106  0.00  0.00    +0.000 A 
ATOM      5  C   UNL     1      48.574   6.716  13.870  0.00  0.00    +0.000 A 
ATOM      6  C   UNL     1      47.423   5.950  13.624  0.00  0.00    +0.000 A 
ATOM      7  C   UNL     1      46.903   5.085  14.598  0.00  0.00    +0.000 A 
BRANCH   4   8
ATOM      8  C   UNL     1      50.442   7.395  15.467  0.00  0.00    +0.000 C 
ATOM      9  N   UNL     1      51.313   7.753  14.478  0.00  0.00    +0.000 N 
ATOM     10  O   UNL     1      50.679   7.709  16.627  0.00  0.00    +0.000 OA
ATOM     11  H   UNL     1      51.212   7.534  13.500  0.00  0.00    +0.000 HD
ATOM     12  H   UNL     1      52.134   8.270  14.765  0.00  0.00    +0.000 HD
ENDBRANCH   4   8
BRANCH   2  14
ATOM     13  C   UNL     1      47.934   3.015  17.147  0.00  0.00    +0.000 C 
ATOM     14  O   UNL     1      47.085   4.086  16.762  0.00  0.00    +0.000 OA
ENDBRANCH   2  14
ENDBRANCH   1   7
BRANCH   1  15
ATOM     15  C   UNL     1      44.961   5.070  13.194  0.00  0.00    +0.000 C 
BRANCH  15  16
ATOM     16  C   UNL     1      44.530   4.103  12.126  0.00  0.00    +0.000 A 
ATOM     17  C   UNL     1      43.460   3.241  12.329  0.00  0.00    +0.000 A 
ATOM     18  N   UNL     1      43.089   2.286  11.454  0.00  0.00    +0.000 NA
ATOM     19  C   UNL     1      43.823   2.184  10.318  0.00  0.00    +0.000 A 
ATOM     20  C   UNL     1      44.923   2.982   9.990  0.00  0.00    +0.000 A 
ATOM     21  C   UNL     1      45.258   3.961  10.938  0.00  0.00    +0.000 A 
BRANCH  20  22
ATOM     22  C   UNL     1      45.700   2.798   8.745  0.00  0.00    +0.000 A 
ATOM     23  C   UNL     1      46.144   1.522   8.342  0.00  0.00    +0.000 A 
ATOM     24  C   UNL     1      46.858   1.338   7.155  0.00  0.00    +0.000 A 
ATOM     25  C   UNL     1      47.153   2.433   6.358  0.00  0.00    +0.000 A 
ATOM     26  F   UNL     1      47.840   2.259   5.222  0.00  0.00    +0.000 F 
ATOM     27  C   UNL     1      46.743   3.706   6.723  0.00  0.00    +0.000 A 
ATOM     28  C   UNL     1      46.016   3.886   7.906  0.00  0.00    +0.000 A 
ENDBRANCH  20  22
ENDBRANCH  15  16
ENDBRANCH   1  15
TORSDOF 6
ENDMDL
MODEL 6
REMARK VINA RESULT:    -7.152      3.927      7.225
REMARK INTER + INTRA:         -11.022
REMARK INTER:                 -10.858
REMARK INTRA:                  -0.164
REMARK UNBOUND:                -1.362
REMARK  Name = 
REMARK  7 active torsions:
REMARK  status: ('A' for Active; 'I' for Inactive)
REMARK    1  A    between atoms: C_1  and  O_2
REMARK    2  A    between atoms: O_2  and  C_3
REMARK    3  A    between atoms: C_5  and  C_6
REMARK    4  A    between atoms: C_11  and  O_12
REMARK    5  A    between atoms: O_12  and  C_13
REMARK    6  A    between atoms: C_13  and  C_14
REMARK    7  A    between atoms: C_18  and  C_19
REMARK                            x       y       z     vdW  Elec       q    Type
REMARK                         _______ _______ _______ _____ _____    ______ ____
ROOT
ATOM      1  O   UNL     1      44.057   5.207   9.950  0.00  0.00    +0.000 OA
ENDROOT
BRANCH   1   7
ATOM      2  C   UNL     1      44.478   2.755   9.675  0.00  0.00    +0.000 A 
ATOM      3  C   UNL     1      45.245   1.789   9.004  0.00  0.00    +0.000 A 
ATOM      4  C   UNL     1      46.217   2.149   8.060  0.00  0.00    +0.000 A 
ATOM      5  C   UNL     1      46.421   3.501   7.778  0.00  0.00    +0.000 A 
ATOM      6  C   UNL     1      45.663   4.474   8.448  0.00  0.00    +0.000 A 
ATOM      7  C   UNL     1      44.693   4.116   9.396  0.00  0.00    +0.000 A 
BRANCH   4   8
ATOM      8  C   UNL     1      46.970   1.039   7.405  0.00  0.00    +0.000 C 
ATOM      9  N   UNL     1      46.656  -0.251   7.723  0.00  0.00    +0.000 N 
ATOM     10  O   UNL     1      47.858   1.264   6.592  0.00  0.00    +0.000 OA
ATOM     11  H   UNL     1      45.952  -0.538   8.384  0.00  0.00    +0.000 HD
ATOM     12  H   UNL     1      47.193  -0.973   7.261  0.00  0.00    +0.000 HD
ENDBRANCH   4   8
BRANCH   2  14
ATOM     13  C   UNL     1      43.818   2.246  11.918  0.00  0.00    +0.000 C 
ATOM     14  O   UNL     1      43.484   2.406  10.547  0.00  0.00    +0.000 OA
ENDBRANCH   2  14
ENDBRANCH   1   7
BRANCH   1  15
ATOM     15  C   UNL     1      43.986   5.270  11.374  0.00  0.00    +0.000 C 
BRANCH  15  16
ATOM     16  C   UNL     1      45.283   5.755  11.959  0.00  0.00    +0.000 A 
ATOM     17  C   UNL     1      46.109   6.619  11.253  0.00  0.00    +0.000 A 
ATOM     18  N   UNL     1      47.327   7.009  11.678  0.00  0.00    +0.000 NA
ATOM     19  C   UNL     1      47.742   6.513  12.870  0.00  0.00    +0.000 A 
ATOM     20  C   UNL     1      47.015   5.635  13.679  0.00  0.00    +0.000 A 
ATOM     21  C   UNL     1      45.754   5.268  13.185  0.00  0.00    +0.000 A 
BRANCH  20  22
ATOM     22  C   UNL     1      47.541   5.106  14.957  0.00  0.00    +0.000 A 
ATOM     23  C   UNL     1      47.195   3.817  15.412  0.00  0.00    +0.000 A 
ATOM     24  C   UNL     1      47.706   3.303  16.607  0.00  0.00    +0.000 A 
ATOM     25  C   UNL     1      48.562   4.077  17.375  0.00  0.00    +0.000 A 
ATOM     26  F   UNL     1      49.049   3.588  18.521  0.00  0.00    +0.000 F 
ATOM     27  C   UNL     1      48.918   5.353  16.967  0.00  0.00    +0.000 A 
ATOM     28  C   UNL     1      48.416   5.861  15.764  0.00  0.00    +0.000 A 
ENDBRANCH  20  22
ENDBRANCH  15  16
ENDBRANCH   1  15
TORSDOF 6
ENDMDL
MODEL 7
REMARK VINA RESULT:    -7.116      2.562      3.301
REMARK INTER + INTRA:         -10.974
REMARK INTER:                 -10.244
REMARK INTRA:                  -0.729
REMARK UNBOUND:                -1.362
REMARK  Name = 
REMARK  7 active torsions:
REMARK  status: ('A' for Active; 'I' for Inactive)
REMARK    1  A    between atoms: C_1  and  O_2
REMARK    2  A    between atoms: O_2  and  C_3
REMARK    3  A    between atoms: C_5  and  C_6
REMARK    4  A    between atoms: C_11  and  O_12
REMARK    5  A    between atoms: O_12  and  C_13
REMARK    6  A    between atoms: C_13  and  C_14
REMARK    7  A    between atoms: C_18  and  C_19
REMARK                            x       y       z     vdW  Elec       q    Type
REMARK                         _______ _______ _______ _____ _____    ______ ____
ROOT
ATOM      1  O   UNL     1      47.217   6.610  12.796  0.00  0.00    +0.000 OA
ENDROOT
BRANCH   1   7
ATOM      2  C   UNL     1      46.939   4.981  14.676  0.00  0.00    +0.000 A 
ATOM      3  C   UNL     1      47.384   4.618  15.957  0.00  0.00    +0.000 A 
ATOM      4  C   UNL     1      48.394   5.335  16.614  0.00  0.00    +0.000 A 
ATOM      5  C   UNL     1      48.974   6.431  15.973  0.00  0.00    +0.000 A 
ATOM      6  C   UNL     1      48.532   6.805  14.694  0.00  0.00    +0.000 A 
ATOM      7  C   UNL     1      47.518   6.092  14.038  0.00  0.00    +0.000 A 
BRANCH   4   8
ATOM      8  C   UNL     1      48.791   4.858  17.972  0.00  0.00    +0.000 C 
ATOM      9  N   UNL     1      47.870   4.203  18.738  0.00  0.00    +0.000 N 
ATOM     10  O   UNL     1      49.921   5.043  18.407  0.00  0.00    +0.000 OA
ATOM     11  H   UNL     1      46.917   4.012  18.474  0.00  0.00    +0.000 HD
ATOM     12  H   UNL     1      48.178   3.901  19.653  0.00  0.00    +0.000 HD
ENDBRANCH   4   8
BRANCH   2  14
ATOM     13  C   UNL     1      46.448   3.175  13.185  0.00  0.00    +0.000 C 
ATOM     14  O   UNL     1      46.001   4.245  14.004  0.00  0.00    +0.000 OA
ENDBRANCH   2  14
ENDBRANCH   1   7
BRANCH   1  15
ATOM     15  C   UNL     1      45.912   7.159  12.615  0.00  0.00    +0.000 C 
BRANCH  15  16
ATOM     16  C   UNL     1      45.086   6.300  11.697  0.00  0.00    +0.000 A 
ATOM     17  C   UNL     1      43.709   6.209  11.847  0.00  0.00    +0.000 A 
ATOM     18  N   UNL     1      42.928   5.382  11.124  0.00  0.00    +0.000 NA
ATOM     19  C   UNL     1      43.553   4.606  10.204  0.00  0.00    +0.000 A 
ATOM     20  C   UNL     1      44.928   4.594   9.954  0.00  0.00    +0.000 A 
ATOM     21  C   UNL     1      45.688   5.479  10.734  0.00  0.00    +0.000 A 
BRANCH  20  22
ATOM     22  C   UNL     1      45.551   3.699   8.954  0.00  0.00    +0.000 A 
ATOM     23  C   UNL     1      45.512   2.298   9.104  0.00  0.00    +0.000 A 
ATOM     24  C   UNL     1      46.078   1.445   8.152  0.00  0.00    +0.000 A 
ATOM     25  C   UNL     1      46.705   1.983   7.039  0.00  0.00    +0.000 A 
ATOM     26  F   UNL     1      47.251   1.168   6.128  0.00  0.00    +0.000 F 
ATOM     27  C   UNL     1      46.772   3.356   6.859  0.00  0.00    +0.000 A 
ATOM     28  C   UNL     1      46.194   4.207   7.808  0.00  0.00    +0.000 A 
ENDBRANCH  20  22
ENDBRANCH  15  16
ENDBRANCH   1  15
TORSDOF 6
ENDMDL
MODEL 8
REMARK VINA RESULT:    -7.002      1.691      2.278
REMARK INTER + INTRA:         -10.819
REMARK INTER:                  -9.940
REMARK INTRA:                  -0.880
REMARK UNBOUND:                -1.362
REMARK  Name = 
REMARK  7 active torsions:
REMARK  status: ('A' for Active; 'I' for Inactive)
REMARK    1  A    between atoms: C_1  and  O_2
REMARK    2  A    between atoms: O_2  and  C_3
REMARK    3  A    between atoms: C_5  and  C_6
REMARK    4  A    between atoms: C_11  and  O_12
REMARK    5  A    between atoms: O_12  and  C_13
REMARK    6  A    between atoms: C_13  and  C_14
REMARK    7  A    between atoms: C_18  and  C_19
REMARK                            x       y       z     vdW  Elec       q    Type
REMARK                         _______ _______ _______ _____ _____    ______ ____
ROOT
ATOM      1  O   UNL     1      46.265   7.006  13.216  0.00  0.00    +0.000 OA
ENDROOT
BRANCH   1   7
ATOM      2  C   UNL     1      48.666   7.058  13.921  0.00  0.00    +0.000 A 
ATOM      3  C   UNL     1      49.943   7.556  13.616  0.00  0.00    +0.000 A 
ATOM      4  C   UNL     1      50.166   8.367  12.495  0.00  0.00    +0.000 A 
ATOM      5  C   UNL     1      49.092   8.681  11.661  0.00  0.00    +0.000 A 
ATOM      6  C   UNL     1      47.811   8.192  11.960  0.00  0.00    +0.000 A 
ATOM      7  C   UNL     1      47.585   7.384  13.084  0.00  0.00    +0.000 A 
BRANCH   4   8
ATOM      8  C   UNL     1      51.565   8.837  12.266  0.00  0.00    +0.000 C 
ATOM      9  N   UNL     1      52.597   7.967  12.472  0.00  0.00    +0.000 N 
ATOM     10  O   UNL     1      51.800   9.982  11.898  0.00  0.00    +0.000 OA
ATOM     11  H   UNL     1      52.507   7.014  12.783  0.00  0.00    +0.000 HD
ATOM     12  H   UNL     1      53.529   8.327  12.310  0.00  0.00    +0.000 HD
ENDBRANCH   4   8
BRANCH   2  14
ATOM     13  C   UNL     1      49.138   6.474  16.193  0.00  0.00    +0.000 C 
ATOM     14  O   UNL     1      48.456   6.212  14.975  0.00  0.00    +0.000 OA
ENDBRANCH   2  14
ENDBRANCH   1   7
BRANCH   1  15
ATOM     15  C   UNL     1      45.359   7.432  12.200  0.00  0.00    +0.000 C 
BRANCH  15  16
ATOM     16  C   UNL     1      44.683   6.256  11.550  0.00  0.00    +0.000 A 
ATOM     17  C   UNL     1      43.438   5.817  11.980  0.00  0.00    +0.000 A 
ATOM     18  N   UNL     1      42.827   4.713  11.508  0.00  0.00    +0.000 NA
ATOM     19  C   UNL     1      43.492   4.009  10.558  0.00  0.00    +0.000 A 
ATOM     20  C   UNL     1      44.749   4.336  10.040  0.00  0.00    +0.000 A 
ATOM     21  C   UNL     1      45.332   5.498  10.567  0.00  0.00    +0.000 A 
BRANCH  20  22
ATOM     22  C   UNL     1      45.433   3.506   9.024  0.00  0.00    +0.000 A 
ATOM     23  C   UNL     1      46.094   4.094   7.926  0.00  0.00    +0.000 A 
ATOM     24  C   UNL     1      46.762   3.318   6.975  0.00  0.00    +0.000 A 
ATOM     25  C   UNL     1      46.767   1.938   7.100  0.00  0.00    +0.000 A 
ATOM     26  F   UNL     1      47.404   1.193   6.188  0.00  0.00    +0.000 F 
ATOM     27  C   UNL     1      46.121   1.321   8.160  0.00  0.00    +0.000 A 
ATOM     28  C   UNL     1      45.464   2.101   9.118  0.00  0.00    +0.000 A 
ENDBRANCH  20  22
ENDBRANCH  15  16
ENDBRANCH   1  15
TORSDOF 6
ENDMDL
MODEL 9
REMARK VINA RESULT:    -6.669      3.571      6.727
REMARK INTER + INTRA:         -10.370
REMARK INTER:                  -9.386
REMARK INTRA:                  -0.984
REMARK UNBOUND:                -1.362
REMARK  Name = 
REMARK  7 active torsions:
REMARK  status: ('A' for Active; 'I' for Inactive)
REMARK    1  A    between atoms: C_1  and  O_2
REMARK    2  A    between atoms: O_2  and  C_3
REMARK    3  A    between atoms: C_5  and  C_6
REMARK    4  A    between atoms: C_11  and  O_12
REMARK    5  A    between atoms: O_12  and  C_13
REMARK    6  A    between atoms: C_13  and  C_14
REMARK    7  A    between atoms: C_18  and  C_19
REMARK                            x       y       z     vdW  Elec       q    Type
REMARK                         _______ _______ _______ _____ _____    ______ ____
ROOT
ATOM      1  O   UNL     1      43.815   2.641  10.488  0.00  0.00    +0.000 OA
ENDROOT
BRANCH   1   7
ATOM      2  C   UNL     1      45.256   3.807   8.807  0.00  0.00    +0.000 A 
ATOM      3  C   UNL     1      46.177   3.630   7.762  0.00  0.00    +0.000 A 
ATOM      4  C   UNL     1      46.584   2.353   7.352  0.00  0.00    +0.000 A 
ATOM      5  C   UNL     1      46.066   1.233   8.005  0.00  0.00    +0.000 A 
ATOM      6  C   UNL     1      45.141   1.401   9.048  0.00  0.00    +0.000 A 
ATOM      7  C   UNL     1      44.728   2.678   9.456  0.00  0.00    +0.000 A 
BRANCH   4   8
ATOM      8  C   UNL     1      47.571   2.282   6.233  0.00  0.00    +0.000 C 
ATOM      9  N   UNL     1      47.527   3.232   5.253  0.00  0.00    +0.000 N 
ATOM     10  O   UNL     1      48.411   1.393   6.181  0.00  0.00    +0.000 OA
ATOM     11  H   UNL     1      46.870   3.993   5.202  0.00  0.00    +0.000 HD
ATOM     12  H   UNL     1      48.209   3.144   4.511  0.00  0.00    +0.000 HD
ENDBRANCH   4   8
BRANCH   2  14
ATOM     13  C   UNL     1      45.943   5.984   9.527  0.00  0.00    +0.000 C 
ATOM     14  O   UNL     1      44.906   5.052   9.255  0.00  0.00    +0.000 OA
ENDBRANCH   2  14
ENDBRANCH   1   7
BRANCH   1  15
ATOM     15  C   UNL     1      44.331   2.634  11.818  0.00  0.00    +0.000 C 
BRANCH  15  16
ATOM     16  C   UNL     1      44.540   4.035  12.324  0.00  0.00    +0.000 A 
ATOM     17  C   UNL     1      43.491   4.943  12.373  0.00  0.00    +0.000 A 
ATOM     18  N   UNL     1      43.634   6.238  12.720  0.00  0.00    +0.000 NA
ATOM     19  C   UNL     1      44.888   6.648  13.034  0.00  0.00    +0.000 A 
ATOM     20  C   UNL     1      46.030   5.842  13.023  0.00  0.00    +0.000 A 
ATOM     21  C   UNL     1      45.817   4.504  12.658  0.00  0.00    +0.000 A 
BRANCH  20  22
ATOM     22  C   UNL     1      47.377   6.361  13.348  0.00  0.00    +0.000 A 
ATOM     23  C   UNL     1      48.180   6.974  12.365  0.00  0.00    +0.000 A 
ATOM     24  C   UNL     1      49.444   7.487  12.671  0.00  0.00    +0.000 A 
ATOM     25  C   UNL     1      49.931   7.381  13.965  0.00  0.00    +0.000 A 
ATOM     26  F   UNL     1      51.142   7.869  14.258  0.00  0.00    +0.000 F 
ATOM     27  C   UNL     1      49.175   6.777  14.957  0.00  0.00    +0.000 A 
ATOM     28  C   UNL     1      47.904   6.276  14.652  0.00  0.00    +0.000 A 
ENDBRANCH  20  22
ENDBRANCH  15  16
ENDBRANCH   1  15
TORSDOF 6
ENDMDL
