MODEL 1
REMARK VINA RESULT:    -7.891      0.000      0.000
REMARK INTER + INTRA:         -10.202
REMARK INTER:                  -9.967
REMARK INTRA:                  -0.234
REMARK UNBOUND:                -0.234
REMARK  Name = 
REMARK  5 active torsions:
REMARK  status: ('A' for Active; 'I' for Inactive)
REMARK    1  A    between atoms: N_1  and  C_2
REMARK    2  A    between atoms: C_2  and  C_3
REMARK    3  A    between atoms: C_5  and  C_6
REMARK    4  A    between atoms: C_6  and  N_7
REMARK    5  A    between atoms: C_12  and  C_13
REMARK                            x       y       z     vdW  Elec       q    Type
REMARK                         _______ _______ _______ _____ _____    ______ ____
ROOT
ATOM      1  N   UNL     1      44.161   4.461  10.519  0.00  0.00    +0.000 N 
ATOM      2  C   UNL     1      43.532   3.404  11.130  0.00  0.00    +0.000 A 
ATOM      3  C   UNL     1      43.997   2.242  10.565  0.00  0.00    +0.000 A 
ATOM      4  C   UNL     1      44.899   2.602   9.532  0.00  0.00    +0.000 A 
ATOM      5  C   UNL     1      45.640   1.842   8.606  0.00  0.00    +0.000 A 
ATOM      6  C   UNL     1      46.433   2.490   7.650  0.00  0.00    +0.000 A 
ATOM      7  C   UNL     1      46.506   3.891   7.651  0.00  0.00    +0.000 A 
ATOM      8  C   UNL     1      45.796   4.666   8.579  0.00  0.00    +0.000 A 
ATOM      9  C   UNL     1      44.985   3.998   9.509  0.00  0.00    +0.000 A 
ENDROOT
BRANCH   6  10
ATOM     10  C   UNL     1      47.196   1.735   6.615  0.00  0.00    +0.000 C 
ATOM     11  N   UNL     1      47.981   2.428   5.733  0.00  0.00    +0.000 N 
ATOM     12  O   UNL     1      47.141   0.509   6.547  0.00  0.00    +0.000 OA
ATOM     13  H   UNL     1      48.106   3.428   5.721  0.00  0.00    +0.000 HD
ATOM     14  H   UNL     1      48.497   1.882   5.061  0.00  0.00    +0.000 HD
ENDBRANCH   6  10
BRANCH   1  15
ATOM     15  C   UNL     1      44.004   5.847  10.944  0.00  0.00    +0.000 C 
BRANCH  15  18
ATOM     16  C   UNL     1      46.417   5.669  13.815  0.00  0.00    +0.000 C 
ATOM     17  C   UNL     1      45.084   5.287  13.193  0.00  0.00    +0.000 C 
ATOM     18  C   UNL     1      44.972   6.269  12.046  0.00  0.00    +0.000 C 
ATOM     19  C   UNL     1      46.420   6.337  11.577  0.00  0.00    +0.000 C 
ATOM     20  O   UNL     1      47.252   6.137  12.734  0.00  0.00    +0.000 OA
BRANCH  16  21
ATOM     21  C   UNL     1      47.086   4.516  14.581  0.00  0.00    +0.000 C 
BRANCH  21  22
ATOM     22  N   UNL     1      47.095   3.261  13.821  0.00  0.00    +0.000 NA
ATOM     23  H   UNL     1      47.951   2.749  14.025  0.00  0.00    +0.000 HD
ATOM     24  H   UNL     1      47.129   3.501  12.829  0.00  0.00    +0.000 HD
ENDBRANCH  21  22
ENDBRANCH  16  21
ENDBRANCH  15  18
ENDBRANCH   1  15
TORSDOF 5
ENDMDL
MODEL 2
REMARK VINA RESULT:    -7.726      1.619      6.146
REMARK INTER + INTRA:          -9.992
REMARK INTER:                  -9.937
REMARK INTRA:                  -0.055
REMARK UNBOUND:                -0.234
REMARK  Name = 
REMARK  5 active torsions:
REMARK  status: ('A' for Active; 'I' for Inactive)
REMARK    1  A    between atoms: N_1  and  C_2
REMARK    2  A    between atoms: C_2  and  C_3
REMARK    3  A    between atoms: C_5  and  C_6
REMARK    4  A    between atoms: C_6  and  N_7
REMARK    5  A    between atoms: C_12  and  C_13
REMARK                            x       y       z     vdW  Elec       q    Type
REMARK                         _______ _______ _______ _____ _____    ______ ____
ROOT
ATOM      1  N   UNL     1      44.362   4.178  10.528  0.00  0.00    +0.000 N 
ATOM      2  C   UNL     1      43.700   3.288  11.340  0.00  0.00    +0.000 A 
ATOM      3  C   UNL     1      44.125   3.486  12.630  0.00  0.00    +0.000 A 
ATOM      4  C   UNL     1      45.125   4.491  12.601  0.00  0.00    +0.000 A 
ATOM      5  C   UNL     1      45.926   5.068  13.606  0.00  0.00    +0.000 A 
ATOM      6  C   UNL     1      46.882   6.033  13.265  0.00  0.00    +0.000 A 
ATOM      7  C   UNL     1      47.005   6.439  11.927  0.00  0.00    +0.000 A 
ATOM      8  C   UNL     1      46.200   5.896  10.915  0.00  0.00    +0.000 A 
ATOM      9  C   UNL     1      45.269   4.910  11.274  0.00  0.00    +0.000 A 
ENDROOT
BRANCH   6  10
ATOM     10  C   UNL     1      47.792   6.637  14.280  0.00  0.00    +0.000 C 
ATOM     11  N   UNL     1      47.719   7.982  14.520  0.00  0.00    +0.000 N 
ATOM     12  O   UNL     1      48.593   5.950  14.910  0.00  0.00    +0.000 OA
ATOM     13  H   UNL     1      47.083   8.624  14.070  0.00  0.00    +0.000 HD
ATOM     14  H   UNL     1      48.335   8.351  15.227  0.00  0.00    +0.000 HD
ENDBRANCH   6  10
BRANCH   1  15
ATOM     15  C   UNL     1      44.077   4.338   9.108  0.00  0.00    +0.000 C 
BRANCH  15  18
ATOM     16  C   UNL     1      46.548   2.332   7.116  0.00  0.00    +0.000 C 
ATOM     17  C   UNL     1      45.896   3.665   7.440  0.00  0.00    +0.000 C 
ATOM     18  C   UNL     1      44.676   3.241   8.230  0.00  0.00    +0.000 C 
ATOM     19  C   UNL     1      45.237   2.074   9.031  0.00  0.00    +0.000 C 
ATOM     20  O   UNL     1      46.254   1.454   8.224  0.00  0.00    +0.000 OA
BRANCH  16  21
ATOM     21  C   UNL     1      48.062   2.437   6.871  0.00  0.00    +0.000 C 
BRANCH  21  22
ATOM     22  N   UNL     1      48.471   1.848   5.590  0.00  0.00    +0.000 NA
ATOM     23  H   UNL     1      49.465   2.013   5.445  0.00  0.00    +0.000 HD
ATOM     24  H   UNL     1      47.981   2.354   4.849  0.00  0.00    +0.000 HD
ENDBRANCH  21  22
ENDBRANCH  16  21
ENDBRANCH  15  18
ENDBRANCH   1  15
TORSDOF 5
ENDMDL
MODEL 3
REMARK VINA RESULT:    -6.153      2.846      6.599
REMARK INTER + INTRA:          -8.005
REMARK INTER:                  -7.434
REMARK INTRA:                  -0.571
REMARK UNBOUND:                -0.234
REMARK  Name = 
REMARK  5 active torsions:
REMARK  status: ('A' for Active; 'I' for Inactive)
REMARK    1  A    between atoms: N_1  and  C_2
REMARK    2  A    between atoms: C_2  and  C_3
REMARK    3  A    between atoms: C_5  and  C_6
REMARK    4  A    between atoms: C_6  and  N_7
REMARK    5  A    between atoms: C_12  and  C_13
REMARK                            x       y       z     vdW  Elec       q    Type
REMARK                         _______ _______ _______ _____ _____    ______ ____
ROOT
ATOM      1  N   UNL     1      45.213   6.230  11.992  0.00  0.00    +0.000 N 
ATOM      2  C   UNL     1      44.465   7.326  11.633  0.00  0.00    +0.000 A 
ATOM      3  C   UNL     1      45.280   8.430  11.663  0.00  0.00    +0.000 A 
ATOM      4  C   UNL     1      46.556   8.007  12.113  0.00  0.00    +0.000 A 
ATOM      5  C   UNL     1      47.755   8.701  12.366  0.00  0.00    +0.000 A 
ATOM      6  C   UNL     1      48.870   8.008  12.858  0.00  0.00    +0.000 A 
ATOM      7  C   UNL     1      48.785   6.622  13.058  0.00  0.00    +0.000 A 
ATOM      8  C   UNL     1      47.609   5.908  12.788  0.00  0.00    +0.000 A 
ATOM      9  C   UNL     1      46.496   6.626  12.324  0.00  0.00    +0.000 A 
ENDROOT
BRANCH   6  10
ATOM     10  C   UNL     1      50.146   8.702  13.193  0.00  0.00    +0.000 C 
ATOM     11  N   UNL     1      51.306   7.977  13.225  0.00  0.00    +0.000 N 
ATOM     12  O   UNL     1      50.176   9.908  13.428  0.00  0.00    +0.000 OA
ATOM     13  H   UNL     1      51.387   6.991  13.029  0.00  0.00    +0.000 HD
ATOM     14  H   UNL     1      52.151   8.484  13.436  0.00  0.00    +0.000 HD
ENDBRANCH   6  10
BRANCH   1  15
ATOM     15  C   UNL     1      44.708   4.863  11.957  0.00  0.00    +0.000 C 
BRANCH  15  18
ATOM     16  C   UNL     1      44.874   3.623   8.417  0.00  0.00    +0.000 C 
ATOM     17  C   UNL     1      45.325   4.601   9.489  0.00  0.00    +0.000 C 
ATOM     18  C   UNL     1      44.280   4.398  10.567  0.00  0.00    +0.000 C 
ATOM     19  C   UNL     1      44.059   2.894  10.480  0.00  0.00    +0.000 C 
ATOM     20  O   UNL     1      44.264   2.512   9.108  0.00  0.00    +0.000 OA
BRANCH  16  21
ATOM     21  C   UNL     1      46.014   3.155   7.499  0.00  0.00    +0.000 C 
BRANCH  21  22
ATOM     22  N   UNL     1      46.780   4.271   6.932  0.00  0.00    +0.000 NA
ATOM     23  H   UNL     1      47.573   4.476   7.536  0.00  0.00    +0.000 HD
ATOM     24  H   UNL     1      46.179   5.097   6.950  0.00  0.00    +0.000 HD
ENDBRANCH  21  22
ENDBRANCH  16  21
ENDBRANCH  15  18
ENDBRANCH   1  15
TORSDOF 5
ENDMDL
MODEL 4
REMARK VINA RESULT:    -6.102      2.887      6.504
REMARK INTER + INTRA:          -7.941
REMARK INTER:                  -7.544
REMARK INTRA:                  -0.397
REMARK UNBOUND:                -0.234
REMARK  Name = 
REMARK  5 active torsions:
REMARK  status: ('A' for Active; 'I' for Inactive)
REMARK    1  A    between atoms: N_1  and  C_2
REMARK    2  A    between atoms: C_2  and  C_3
REMARK    3  A    between atoms: C_5  and  C_6
REMARK    4  A    between atoms: C_6  and  N_7
REMARK    5  A    between atoms: C_12  and  C_13
REMARK                            x       y       z     vdW  Elec       q    Type
REMARK                         _______ _______ _______ _____ _____    ______ ____
ROOT
ATOM      1  N   UNL     1      45.017   5.067  13.067  0.00  0.00    +0.000 N 
ATOM      2  C   UNL     1      46.020   4.218  13.470  0.00  0.00    +0.000 A 
ATOM      3  C   UNL     1      47.147   4.966  13.706  0.00  0.00    +0.000 A 
ATOM      4  C   UNL     1      46.842   6.311  13.379  0.00  0.00    +0.000 A 
ATOM      5  C   UNL     1      47.610   7.492  13.391  0.00  0.00    +0.000 A 
ATOM      6  C   UNL     1      47.039   8.698  12.964  0.00  0.00    +0.000 A 
ATOM      7  C   UNL     1      45.695   8.719  12.564  0.00  0.00    +0.000 A 
ATOM      8  C   UNL     1      44.905   7.560  12.569  0.00  0.00    +0.000 A 
ATOM      9  C   UNL     1      45.505   6.358  12.972  0.00  0.00    +0.000 A 
ENDROOT
BRANCH   6  10
ATOM     10  C   UNL     1      47.821   9.966  12.906  0.00  0.00    +0.000 C 
ATOM     11  N   UNL     1      47.187  11.121  12.540  0.00  0.00    +0.000 N 
ATOM     12  O   UNL     1      49.017   9.993  13.191  0.00  0.00    +0.000 OA
ATOM     13  H   UNL     1      46.209  11.204  12.308  0.00  0.00    +0.000 HD
ATOM     14  H   UNL     1      47.744  11.961  12.531  0.00  0.00    +0.000 HD
ENDBRANCH   6  10
BRANCH   1  15
ATOM     15  C   UNL     1      43.642   4.640  12.843  0.00  0.00    +0.000 C 
BRANCH  15  18
ATOM     16  C   UNL     1      44.136   3.784   9.221  0.00  0.00    +0.000 C 
ATOM     17  C   UNL     1      44.189   4.799  10.350  0.00  0.00    +0.000 C 
ATOM     18  C   UNL     1      43.379   4.117  11.433  0.00  0.00    +0.000 C 
ATOM     19  C   UNL     1      43.803   2.667  11.244  0.00  0.00    +0.000 C 
ATOM     20  O   UNL     1      44.081   2.483   9.844  0.00  0.00    +0.000 OA
BRANCH  16  21
ATOM     21  C   UNL     1      45.321   3.890   8.248  0.00  0.00    +0.000 C 
BRANCH  21  22
ATOM     22  N   UNL     1      46.053   5.155   8.383  0.00  0.00    +0.000 NA
ATOM     23  H   UNL     1      46.401   5.442   7.470  0.00  0.00    +0.000 HD
ATOM     24  H   UNL     1      46.875   4.974   8.964  0.00  0.00    +0.000 HD
ENDBRANCH  21  22
ENDBRANCH  16  21
ENDBRANCH  15  18
ENDBRANCH   1  15
TORSDOF 5
ENDMDL
MODEL 5
REMARK VINA RESULT:    -6.034      3.948      5.827
REMARK INTER + INTRA:          -7.856
REMARK INTER:                  -7.312
REMARK INTRA:                  -0.545
REMARK UNBOUND:                -0.234
REMARK  Name = 
REMARK  5 active torsions:
REMARK  status: ('A' for Active; 'I' for Inactive)
REMARK    1  A    between atoms: N_1  and  C_2
REMARK    2  A    between atoms: C_2  and  C_3
REMARK    3  A    between atoms: C_5  and  C_6
REMARK    4  A    between atoms: C_6  and  N_7
REMARK    5  A    between atoms: C_12  and  C_13
REMARK                            x       y       z     vdW  Elec       q    Type
REMARK                         _______ _______ _______ _____ _____    ______ ____
ROOT
ATOM      1  N   UNL     1      47.882   7.311  13.920  0.00  0.00    +0.000 N 
ATOM      2  C   UNL     1      47.588   8.653  13.923  0.00  0.00    +0.000 A 
ATOM      3  C   UNL     1      46.389   8.831  13.277  0.00  0.00    +0.000 A 
ATOM      4  C   UNL     1      45.963   7.561  12.811  0.00  0.00    +0.000 A 
ATOM      5  C   UNL     1      44.843   7.147  12.065  0.00  0.00    +0.000 A 
ATOM      6  C   UNL     1      44.705   5.799  11.707  0.00  0.00    +0.000 A 
ATOM      7  C   UNL     1      45.671   4.873  12.127  0.00  0.00    +0.000 A 
ATOM      8  C   UNL     1      46.781   5.260  12.892  0.00  0.00    +0.000 A 
ATOM      9  C   UNL     1      46.914   6.619  13.215  0.00  0.00    +0.000 A 
ENDROOT
BRANCH   6  10
ATOM     10  C   UNL     1      43.566   5.316  10.874  0.00  0.00    +0.000 C 
ATOM     11  N   UNL     1      43.829   4.725   9.668  0.00  0.00    +0.000 N 
ATOM     12  O   UNL     1      42.402   5.429  11.255  0.00  0.00    +0.000 OA
ATOM     13  H   UNL     1      44.747   4.571   9.280  0.00  0.00    +0.000 HD
ATOM     14  H   UNL     1      43.036   4.394   9.143  0.00  0.00    +0.000 HD
ENDBRANCH   6  10
BRANCH   1  15
ATOM     15  C   UNL     1      49.023   6.735  14.622  0.00  0.00    +0.000 C 
BRANCH  15  18
ATOM     16  C   UNL     1      48.256   4.809  17.753  0.00  0.00    +0.000 C 
ATOM     17  C   UNL     1      47.929   5.155  16.310  0.00  0.00    +0.000 C 
ATOM     18  C   UNL     1      48.746   6.411  16.089  0.00  0.00    +0.000 C 
ATOM     19  C   UNL     1      50.007   6.082  16.877  0.00  0.00    +0.000 C 
ATOM     20  O   UNL     1      49.613   5.246  17.980  0.00  0.00    +0.000 OA
BRANCH  16  21
ATOM     21  C   UNL     1      48.086   3.317  18.077  0.00  0.00    +0.000 C 
BRANCH  21  22
ATOM     22  N   UNL     1      46.755   2.809  17.726  0.00  0.00    +0.000 NA
ATOM     23  H   UNL     1      46.804   1.801  17.587  0.00  0.00    +0.000 HD
ATOM     24  H   UNL     1      46.498   3.215  16.824  0.00  0.00    +0.000 HD
ENDBRANCH  21  22
ENDBRANCH  16  21
ENDBRANCH  15  18
ENDBRANCH   1  15
TORSDOF 5
ENDMDL
MODEL 6
REMARK VINA RESULT:    -5.951      3.705      5.303
REMARK INTER + INTRA:          -7.750
REMARK INTER:                  -7.233
REMARK INTRA:                  -0.518
REMARK UNBOUND:                -0.234
REMARK  Name = 
REMARK  5 active torsions:
REMARK  status: ('A' for Active; 'I' for Inactive)
REMARK    1  A    between atoms: N_1  and  C_2
REMARK    2  A    between atoms: C_2  and  C_3
REMARK    3  A    between atoms: C_5  and  C_6
REMARK    4  A    between atoms: C_6  and  N_7
REMARK    5  A    between atoms: C_12  and  C_13
REMARK                            x       y       z     vdW  Elec       q    Type
REMARK                         _______ _______ _______ _____ _____    ______ ____
ROOT
ATOM      1  N   UNL     1      47.311   7.129  12.688  0.00  0.00    +0.000 N 
ATOM      2  C   UNL     1      47.666   6.655  13.928  0.00  0.00    +0.000 A 
ATOM      3  C   UNL     1      47.145   5.392  14.071  0.00  0.00    +0.000 A 
ATOM      4  C   UNL     1      46.396   5.106  12.901  0.00  0.00    +0.000 A 
ATOM      5  C   UNL     1      45.626   3.992  12.513  0.00  0.00    +0.000 A 
ATOM      6  C   UNL     1      44.947   4.009  11.287  0.00  0.00    +0.000 A 
ATOM      7  C   UNL     1      45.072   5.125  10.447  0.00  0.00    +0.000 A 
ATOM      8  C   UNL     1      45.854   6.234  10.803  0.00  0.00    +0.000 A 
ATOM      9  C   UNL     1      46.502   6.208  12.047  0.00  0.00    +0.000 A 
ENDROOT
BRANCH   6  10
ATOM     10  C   UNL     1      44.076   2.880  10.851  0.00  0.00    +0.000 C 
ATOM     11  N   UNL     1      44.474   2.106   9.795  0.00  0.00    +0.000 N 
ATOM     12  O   UNL     1      43.019   2.628  11.426  0.00  0.00    +0.000 OA
ATOM     13  H   UNL     1      45.330   2.221   9.274  0.00  0.00    +0.000 HD
ATOM     14  H   UNL     1      43.870   1.340   9.542  0.00  0.00    +0.000 HD
ENDBRANCH   6  10
BRANCH   1  15
ATOM     15  C   UNL     1      47.787   8.394  12.142  0.00  0.00    +0.000 C 
BRANCH  15  18
ATOM     16  C   UNL     1      51.410   8.105  11.198  0.00  0.00    +0.000 C 
ATOM     17  C   UNL     1      50.063   7.450  11.456  0.00  0.00    +0.000 C 
ATOM     18  C   UNL     1      49.306   8.547  12.175  0.00  0.00    +0.000 C 
ATOM     19  C   UNL     1      49.800   9.780  11.429  0.00  0.00    +0.000 C 
ATOM     20  O   UNL     1      51.150   9.512  11.012  0.00  0.00    +0.000 OA
BRANCH  16  21
ATOM     21  C   UNL     1      52.158   7.508   9.995  0.00  0.00    +0.000 C 
BRANCH  21  22
ATOM     22  N   UNL     1      52.905   6.292  10.338  0.00  0.00    +0.000 NA
ATOM     23  H   UNL     1      53.228   5.843   9.484  0.00  0.00    +0.000 HD
ATOM     24  H   UNL     1      52.250   5.643  10.778  0.00  0.00    +0.000 HD
ENDBRANCH  21  22
ENDBRANCH  16  21
ENDBRANCH  15  18
ENDBRANCH   1  15
TORSDOF 5
ENDMDL
MODEL 7
REMARK VINA RESULT:    -5.798      3.530      6.553
REMARK INTER + INTRA:          -7.557
REMARK INTER:                  -6.931
REMARK INTRA:                  -0.626
REMARK UNBOUND:                -0.234
REMARK  Name = 
REMARK  5 active torsions:
REMARK  status: ('A' for Active; 'I' for Inactive)
REMARK    1  A    between atoms: N_1  and  C_2
REMARK    2  A    between atoms: C_2  and  C_3
REMARK    3  A    between atoms: C_5  and  C_6
REMARK    4  A    between atoms: C_6  and  N_7
REMARK    5  A    between atoms: C_12  and  C_13
REMARK                            x       y       z     vdW  Elec       q    Type
REMARK                         _______ _______ _______ _____ _____    ______ ____
ROOT
ATOM      1  N   UNL     1      45.769   7.329  12.650  0.00  0.00    +0.000 N 
ATOM      2  C   UNL     1      45.072   8.502  12.491  0.00  0.00    +0.000 A 
ATOM      3  C   UNL     1      45.961   9.484  12.127  0.00  0.00    +0.000 A 
ATOM      4  C   UNL     1      47.256   8.905  12.121  0.00  0.00    +0.000 A 
ATOM      5  C   UNL     1      48.535   9.435  11.862  0.00  0.00    +0.000 A 
ATOM      6  C   UNL     1      49.664   8.614  11.976  0.00  0.00    +0.000 A 
ATOM      7  C   UNL     1      49.501   7.262  12.314  0.00  0.00    +0.000 A 
ATOM      8  C   UNL     1      48.235   6.708  12.551  0.00  0.00    +0.000 A 
ATOM      9  C   UNL     1      47.120   7.555  12.459  0.00  0.00    +0.000 A 
ENDROOT
BRANCH   6  10
ATOM     10  C   UNL     1      51.045   9.136  11.765  0.00  0.00    +0.000 C 
ATOM     11  N   UNL     1      51.891   9.227  12.837  0.00  0.00    +0.000 N 
ATOM     12  O   UNL     1      51.437   9.474  10.650  0.00  0.00    +0.000 OA
ATOM     13  H   UNL     1      51.669   8.957  13.783  0.00  0.00    +0.000 HD
ATOM     14  H   UNL     1      52.822   9.565  12.652  0.00  0.00    +0.000 HD
ENDBRANCH   6  10
BRANCH   1  15
ATOM     15  C   UNL     1      45.133   6.045  12.919  0.00  0.00    +0.000 C 
BRANCH  15  18
ATOM     16  C   UNL     1      43.997   4.247   9.825  0.00  0.00    +0.000 C 
ATOM     17  C   UNL     1      44.996   5.151  10.526  0.00  0.00    +0.000 C 
ATOM     18  C   UNL     1      44.245   5.545  11.782  0.00  0.00    +0.000 C 
ATOM     19  C   UNL     1      43.526   4.244  12.111  0.00  0.00    +0.000 C 
ATOM     20  O   UNL     1      43.246   3.583  10.864  0.00  0.00    +0.000 OA
BRANCH  16  21
ATOM     21  C   UNL     1      44.653   3.234   8.873  0.00  0.00    +0.000 C 
BRANCH  21  22
ATOM     22  N   UNL     1      44.908   1.938   9.513  0.00  0.00    +0.000 NA
ATOM     23  H   UNL     1      44.024   1.523   9.797  0.00  0.00    +0.000 HD
ATOM     24  H   UNL     1      45.436   2.117  10.370  0.00  0.00    +0.000 HD
ENDBRANCH  21  22
ENDBRANCH  16  21
ENDBRANCH  15  18
ENDBRANCH   1  15
TORSDOF 5
ENDMDL
MODEL 8
REMARK VINA RESULT:    -5.597      3.949      5.549
REMARK INTER + INTRA:          -7.304
REMARK INTER:                  -6.775
REMARK INTRA:                  -0.529
REMARK UNBOUND:                -0.234
REMARK  Name = 
REMARK  5 active torsions:
REMARK  status: ('A' for Active; 'I' for Inactive)
REMARK    1  A    between atoms: N_1  and  C_2
REMARK    2  A    between atoms: C_2  and  C_3
REMARK    3  A    between atoms: C_5  and  C_6
REMARK    4  A    between atoms: C_6  and  N_7
REMARK    5  A    between atoms: C_12  and  C_13
REMARK                            x       y       z     vdW  Elec       q    Type
REMARK                         _______ _______ _______ _____ _____    ______ ____
ROOT
ATOM      1  N   UNL     1      47.486   6.638  13.321  0.00  0.00    +0.000 N 
ATOM      2  C   UNL     1      47.735   6.004  14.515  0.00  0.00    +0.000 A 
ATOM      3  C   UNL     1      47.119   4.778  14.487  0.00  0.00    +0.000 A 
ATOM      4  C   UNL     1      46.419   4.680  13.258  0.00  0.00    +0.000 A 
ATOM      5  C   UNL     1      45.595   3.679  12.708  0.00  0.00    +0.000 A 
ATOM      6  C   UNL     1      44.990   3.883  11.461  0.00  0.00    +0.000 A 
ATOM      7  C   UNL     1      45.242   5.072  10.760  0.00  0.00    +0.000 A 
ATOM      8  C   UNL     1      46.079   6.071  11.278  0.00  0.00    +0.000 A 
ATOM      9  C   UNL     1      46.652   5.858  12.541  0.00  0.00    +0.000 A 
ENDROOT
BRANCH   6  10
ATOM     10  C   UNL     1      44.067   2.880  10.856  0.00  0.00    +0.000 C 
ATOM     11  N   UNL     1      44.473   2.188   9.748  0.00  0.00    +0.000 N 
ATOM     12  O   UNL     1      42.959   2.657  11.340  0.00  0.00    +0.000 OA
ATOM     13  H   UNL     1      45.367   2.286   9.292  0.00  0.00    +0.000 HD
ATOM     14  H   UNL     1      43.831   1.504   9.380  0.00  0.00    +0.000 HD
ENDBRANCH   6  10
BRANCH   1  15
ATOM     15  C   UNL     1      48.082   7.914  12.947  0.00  0.00    +0.000 C 
BRANCH  15  18
ATOM     16  C   UNL     1      51.568   8.265  11.596  0.00  0.00    +0.000 C 
ATOM     17  C   UNL     1      50.144   7.757  11.442  0.00  0.00    +0.000 C 
ATOM     18  C   UNL     1      49.606   7.880  12.852  0.00  0.00    +0.000 C 
ATOM     19  C   UNL     1      50.263   9.177  13.303  0.00  0.00    +0.000 C 
ATOM     20  O   UNL     1      51.534   9.266  12.635  0.00  0.00    +0.000 OA
BRANCH  16  21
ATOM     21  C   UNL     1      52.160   8.827  10.294  0.00  0.00    +0.000 C 
BRANCH  21  22
ATOM     22  N   UNL     1      51.943  10.271  10.150  0.00  0.00    +0.000 NA
ATOM     23  H   UNL     1      51.136  10.433   9.553  0.00  0.00    +0.000 HD
ATOM     24  H   UNL     1      52.752  10.656   9.658  0.00  0.00    +0.000 HD
ENDBRANCH  21  22
ENDBRANCH  16  21
ENDBRANCH  15  18
ENDBRANCH   1  15
TORSDOF 5
ENDMDL
MODEL 9
REMARK VINA RESULT:    -5.502      4.440      7.323
REMARK INTER + INTRA:          -7.183
REMARK INTER:                  -6.904
REMARK INTRA:                  -0.279
REMARK UNBOUND:                -0.234
REMARK  Name = 
REMARK  5 active torsions:
REMARK  status: ('A' for Active; 'I' for Inactive)
REMARK    1  A    between atoms: N_1  and  C_2
REMARK    2  A    between atoms: C_2  and  C_3
REMARK    3  A    between atoms: C_5  and  C_6
REMARK    4  A    between atoms: C_6  and  N_7
REMARK    5  A    between atoms: C_12  and  C_13
REMARK                            x       y       z     vdW  Elec       q    Type
REMARK                         _______ _______ _______ _____ _____    ______ ____
ROOT
ATOM      1  N   UNL     1      48.427   7.031  13.512  0.00  0.00    +0.000 N 
ATOM      2  C   UNL     1      49.137   8.003  14.177  0.00  0.00    +0.000 A 
ATOM      3  C   UNL     1      49.318   7.591  15.474  0.00  0.00    +0.000 A 
ATOM      4  C   UNL     1      48.645   6.351  15.625  0.00  0.00    +0.000 A 
ATOM      5  C   UNL     1      48.464   5.494  16.728  0.00  0.00    +0.000 A 
ATOM      6  C   UNL     1      47.698   4.330  16.586  0.00  0.00    +0.000 A 
ATOM      7  C   UNL     1      47.148   4.016  15.334  0.00  0.00    +0.000 A 
ATOM      8  C   UNL     1      47.338   4.842  14.217  0.00  0.00    +0.000 A 
ATOM      9  C   UNL     1      48.084   6.017  14.388  0.00  0.00    +0.000 A 
ENDROOT
BRANCH   6  10
ATOM     10  C   UNL     1      47.430   3.416  17.733  0.00  0.00    +0.000 C 
ATOM     11  N   UNL     1      48.118   3.598  18.902  0.00  0.00    +0.000 N 
ATOM     12  O   UNL     1      46.600   2.512  17.651  0.00  0.00    +0.000 OA
ATOM     13  H   UNL     1      48.802   4.320  19.072  0.00  0.00    +0.000 HD
ATOM     14  H   UNL     1      47.896   2.974  19.661  0.00  0.00    +0.000 HD
ENDBRANCH   6  10
BRANCH   1  15
ATOM     15  C   UNL     1      48.152   7.072  12.081  0.00  0.00    +0.000 C 
BRANCH  15  18
ATOM     16  C   UNL     1      44.447   6.689  11.601  0.00  0.00    +0.000 C 
ATOM     17  C   UNL     1      45.862   6.185  11.367  0.00  0.00    +0.000 C 
ATOM     18  C   UNL     1      46.697   7.391  11.741  0.00  0.00    +0.000 C 
ATOM     19  C   UNL     1      45.911   7.934  12.927  0.00  0.00    +0.000 C 
ATOM     20  O   UNL     1      44.525   7.627  12.695  0.00  0.00    +0.000 OA
BRANCH  16  21
ATOM     21  C   UNL     1      43.441   5.566  11.896  0.00  0.00    +0.000 C 
BRANCH  21  22
ATOM     22  N   UNL     1      42.877   5.650  13.249  0.00  0.00    +0.000 NA
ATOM     23  H   UNL     1      42.242   6.443  13.301  0.00  0.00    +0.000 HD
ATOM     24  H   UNL     1      43.647   5.851  13.891  0.00  0.00    +0.000 HD
ENDBRANCH  21  22
ENDBRANCH  16  21
ENDBRANCH  15  18
ENDBRANCH   1  15
TORSDOF 5
ENDMDL
