MODEL 1
REMARK VINA RESULT:    -7.697      0.000      0.000
REMARK INTER + INTRA:         -12.340
REMARK INTER:                 -10.847
REMARK INTRA:                  -1.494
REMARK UNBOUND:                -1.494
REMARK  Name = 
REMARK  8 active torsions:
REMARK  status: ('A' for Active; 'I' for Inactive)
REMARK    1  A    between atoms: C_1  and  C_2
REMARK    2  A    between atoms: C_2  and  N_3
REMARK    3  A    between atoms: N_3  and  C_4
REMARK    4  A    between atoms: C_4  and  C_5
REMARK    5  A    between atoms: C_8  and  C_9
REMARK    6  A    between atoms: C_9  and  N_10
REMARK    7  A    between atoms: C_11  and  C_13
REMARK    8  A    between atoms: C_20  and  C_22
REMARK                            x       y       z     vdW  Elec       q    Type
REMARK                         _______ _______ _______ _____ _____    ______ ____
ROOT
ATOM      1  C   UNL     1      47.311   7.469  13.842  0.00  0.00    +0.000 C 
ENDROOT
BRANCH   1   2
ATOM      2  C   UNL     1      46.459   6.393  13.205  0.00  0.00    +0.000 A 
ATOM      3  C   UNL     1      46.594   5.050  13.599  0.00  0.00    +0.000 A 
ATOM      4  C   UNL     1      45.839   4.042  12.989  0.00  0.00    +0.000 A 
ATOM      5  C   UNL     1      44.941   4.354  11.961  0.00  0.00    +0.000 A 
ATOM      6  C   UNL     1      44.734   5.702  11.639  0.00  0.00    +0.000 A 
ATOM      7  C   UNL     1      45.489   6.711  12.249  0.00  0.00    +0.000 A 
BRANCH   5   8
ATOM      8  C   UNL     1      44.268   3.263  11.166  0.00  0.00    +0.000 C 
BRANCH   8   9
ATOM      9  N   UNL     1      45.130   2.650  10.191  0.00  0.00    +0.000 N 
ATOM     10  C   UNL     1      45.152   3.112   8.894  0.00  0.00    +0.000 C 
ATOM     11  O   UNL     1      44.431   4.026   8.504  0.00  0.00    +0.000 OA
ATOM     12  H   UNL     1      45.809   1.970  10.497  0.00  0.00    +0.000 HD
BRANCH  10  13
ATOM     13  C   UNL     1      46.090   2.460   8.021  0.00  0.00    +0.000 A 
ATOM     14  C   UNL     1      46.949   2.923   7.044  0.00  0.00    +0.000 A 
ATOM     15  C   UNL     1      47.602   1.776   6.558  0.00  0.00    +0.000 A 
ATOM     16  N   UNL     1      47.197   0.663   7.171  0.00  0.00    +0.000 NA
ATOM     17  N   UNL     1      46.290   1.104   8.061  0.00  0.00    +0.000 N 
ATOM     18  H   UNL     1      45.831   0.432   8.671  0.00  0.00    +0.000 HD
ENDBRANCH  10  13
ENDBRANCH   8   9
ENDBRANCH   5   8
ENDBRANCH   1   2
BRANCH   1  19
ATOM     19  N   UNL     1      48.779   7.393  13.735  0.00  0.00    +0.000 N 
ATOM     20  C   UNL     1      49.650   7.601  14.829  0.00  0.00    +0.000 C 
ATOM     21  O   UNL     1      50.868   7.493  14.709  0.00  0.00    +0.000 OA
BRANCH  20  22
ATOM     22  C   UNL     1      49.092   7.910  16.153  0.00  0.00    +0.000 A 
ATOM     23  C   UNL     1      48.869   9.193  16.622  0.00  0.00    +0.000 A 
ATOM     24  S   UNL     1      48.174   9.242  18.178  0.00  0.00    +0.000 S 
ATOM     25  C   UNL     1      47.991   7.552  18.206  0.00  0.00    +0.000 A 
ATOM     26  N   UNL     1      47.361   6.937  19.241  0.00  0.00    +0.000 NA
ATOM     27  C   UNL     1      47.222   5.662  19.090  0.00  0.00    +0.000 A 
ATOM     28  N   UNL     1      47.688   4.944  18.016  0.00  0.00    +0.000 N 
ATOM     29  C   UNL     1      48.444   5.507  17.006  0.00  0.00    +0.000 A 
ATOM     30  O   UNL     1      49.013   4.802  16.179  0.00  0.00    +0.000 OA
ATOM     31  C   UNL     1      48.533   6.955  17.082  0.00  0.00    +0.000 A 
ATOM     32  H   UNL     1      47.590   3.942  17.988  0.00  0.00    +0.000 HD
ENDBRANCH  20  22
BRANCH  19  34
ATOM     33  C   UNL     1      49.153   8.005  11.355  0.00  0.00    +0.000 C 
ATOM     34  C   UNL     1      49.417   7.003  12.472  0.00  0.00    +0.000 C 
ENDBRANCH  19  34
ENDBRANCH   1  19
TORSDOF 7
ENDMDL
MODEL 2
REMARK VINA RESULT:    -7.697      3.368      8.008
REMARK INTER + INTRA:         -12.340
REMARK INTER:                 -11.314
REMARK INTRA:                  -1.026
REMARK UNBOUND:                -1.494
REMARK  Name = 
REMARK  8 active torsions:
REMARK  status: ('A' for Active; 'I' for Inactive)
REMARK    1  A    between atoms: C_1  and  C_2
REMARK    2  A    between atoms: C_2  and  N_3
REMARK    3  A    between atoms: N_3  and  C_4
REMARK    4  A    between atoms: C_4  and  C_5
REMARK    5  A    between atoms: C_8  and  C_9
REMARK    6  A    between atoms: C_9  and  N_10
REMARK    7  A    between atoms: C_11  and  C_13
REMARK    8  A    between atoms: C_20  and  C_22
REMARK                            x       y       z     vdW  Elec       q    Type
REMARK                         _______ _______ _______ _____ _____    ______ ____
ROOT
ATOM      1  C   UNL     1      47.450   6.238  12.336  0.00  0.00    +0.000 C 
ENDROOT
BRANCH   1   2
ATOM      2  C   UNL     1      47.488   5.648  13.729  0.00  0.00    +0.000 A 
ATOM      3  C   UNL     1      48.252   6.256  14.741  0.00  0.00    +0.000 A 
ATOM      4  C   UNL     1      48.324   5.698  16.021  0.00  0.00    +0.000 A 
ATOM      5  C   UNL     1      47.646   4.509  16.315  0.00  0.00    +0.000 A 
ATOM      6  C   UNL     1      46.806   3.958  15.337  0.00  0.00    +0.000 A 
ATOM      7  C   UNL     1      46.732   4.518  14.056  0.00  0.00    +0.000 A 
BRANCH   5   8
ATOM      8  C   UNL     1      47.870   3.794  17.624  0.00  0.00    +0.000 C 
BRANCH   8   9
ATOM      9  N   UNL     1      49.239   3.409  17.838  0.00  0.00    +0.000 N 
ATOM     10  C   UNL     1      49.802   2.399  17.092  0.00  0.00    +0.000 C 
ATOM     11  O   UNL     1      49.172   1.768  16.248  0.00  0.00    +0.000 OA
ATOM     12  H   UNL     1      49.816   3.971  18.447  0.00  0.00    +0.000 HD
BRANCH  10  13
ATOM     13  C   UNL     1      51.191   2.136  17.355  0.00  0.00    +0.000 A 
ATOM     14  C   UNL     1      52.263   2.949  17.667  0.00  0.00    +0.000 A 
ATOM     15  C   UNL     1      53.356   2.075  17.808  0.00  0.00    +0.000 A 
ATOM     16  N   UNL     1      53.017   0.801  17.604  0.00  0.00    +0.000 NA
ATOM     17  N   UNL     1      51.699   0.862  17.343  0.00  0.00    +0.000 N 
ATOM     18  H   UNL     1      51.192  -0.000  17.157  0.00  0.00    +0.000 HD
ENDBRANCH  10  13
ENDBRANCH   8   9
ENDBRANCH   5   8
ENDBRANCH   1   2
BRANCH   1  19
ATOM     19  N   UNL     1      46.465   7.286  12.014  0.00  0.00    +0.000 N 
ATOM     20  C   UNL     1      45.122   7.010  11.668  0.00  0.00    +0.000 C 
ATOM     21  O   UNL     1      44.320   7.913  11.442  0.00  0.00    +0.000 OA
BRANCH  20  22
ATOM     22  C   UNL     1      44.657   5.617  11.617  0.00  0.00    +0.000 A 
ATOM     23  C   UNL     1      43.837   5.037  12.569  0.00  0.00    +0.000 A 
ATOM     24  S   UNL     1      43.427   3.418  12.225  0.00  0.00    +0.000 S 
ATOM     25  C   UNL     1      44.194   3.492  10.710  0.00  0.00    +0.000 A 
ATOM     26  N   UNL     1      44.134   2.444   9.847  0.00  0.00    +0.000 NA
ATOM     27  C   UNL     1      44.689   2.670   8.703  0.00  0.00    +0.000 A 
ATOM     28  N   UNL     1      45.330   3.835   8.360  0.00  0.00    +0.000 N 
ATOM     29  C   UNL     1      45.527   4.875   9.247  0.00  0.00    +0.000 A 
ATOM     30  O   UNL     1      46.278   5.805   8.971  0.00  0.00    +0.000 OA
ATOM     31  C   UNL     1      44.827   4.706  10.509  0.00  0.00    +0.000 A 
ATOM     32  H   UNL     1      45.788   3.924   7.467  0.00  0.00    +0.000 HD
ENDBRANCH  20  22
BRANCH  19  34
ATOM     33  C   UNL     1      48.324   8.935  12.041  0.00  0.00    +0.000 C 
ATOM     34  C   UNL     1      46.820   8.705  12.128  0.00  0.00    +0.000 C 
ENDBRANCH  19  34
ENDBRANCH   1  19
TORSDOF 7
ENDMDL
MODEL 3
REMARK VINA RESULT:    -7.248      2.255      2.979
REMARK INTER + INTRA:         -11.708
REMARK INTER:                 -10.371
REMARK INTRA:                  -1.337
REMARK UNBOUND:                -1.494
REMARK  Name = 
REMARK  8 active torsions:
REMARK  status: ('A' for Active; 'I' for Inactive)
REMARK    1  A    between atoms: C_1  and  C_2
REMARK    2  A    between atoms: C_2  and  N_3
REMARK    3  A    between atoms: N_3  and  C_4
REMARK    4  A    between atoms: C_4  and  C_5
REMARK    5  A    between atoms: C_8  and  C_9
REMARK    6  A    between atoms: C_9  and  N_10
REMARK    7  A    between atoms: C_11  and  C_13
REMARK    8  A    between atoms: C_20  and  C_22
REMARK                            x       y       z     vdW  Elec       q    Type
REMARK                         _______ _______ _______ _____ _____    ______ ____
ROOT
ATOM      1  C   UNL     1      48.802   6.566  14.432  0.00  0.00    +0.000 C 
ENDROOT
BRANCH   1   2
ATOM      2  C   UNL     1      47.661   6.230  13.498  0.00  0.00    +0.000 A 
ATOM      3  C   UNL     1      46.791   5.164  13.790  0.00  0.00    +0.000 A 
ATOM      4  C   UNL     1      45.755   4.820  12.914  0.00  0.00    +0.000 A 
ATOM      5  C   UNL     1      45.577   5.525  11.717  0.00  0.00    +0.000 A 
ATOM      6  C   UNL     1      46.379   6.649  11.476  0.00  0.00    +0.000 A 
ATOM      7  C   UNL     1      47.415   6.994  12.353  0.00  0.00    +0.000 A 
BRANCH   5   8
ATOM      8  C   UNL     1      44.595   5.047  10.678  0.00  0.00    +0.000 C 
BRANCH   8   9
ATOM      9  N   UNL     1      45.052   3.894   9.948  0.00  0.00    +0.000 N 
ATOM     10  C   UNL     1      45.746   4.048   8.769  0.00  0.00    +0.000 C 
ATOM     11  O   UNL     1      45.977   5.148   8.275  0.00  0.00    +0.000 OA
ATOM     12  H   UNL     1      44.972   2.983  10.373  0.00  0.00    +0.000 HD
BRANCH  10  13
ATOM     13  C   UNL     1      46.199   2.830   8.154  0.00  0.00    +0.000 A 
ATOM     14  C   UNL     1      46.991   2.566   7.054  0.00  0.00    +0.000 A 
ATOM     15  C   UNL     1      47.062   1.164   6.982  0.00  0.00    +0.000 A 
ATOM     16  N   UNL     1      46.371   0.570   7.956  0.00  0.00    +0.000 NA
ATOM     17  N   UNL     1      45.867   1.600   8.659  0.00  0.00    +0.000 N 
ATOM     18  H   UNL     1      45.295   1.405   9.478  0.00  0.00    +0.000 HD
ENDBRANCH  10  13
ENDBRANCH   8   9
ENDBRANCH   5   8
ENDBRANCH   1   2
BRANCH   1  19
ATOM     19  N   UNL     1      48.561   7.443  15.592  0.00  0.00    +0.000 N 
ATOM     20  C   UNL     1      48.431   6.963  16.916  0.00  0.00    +0.000 C 
ATOM     21  O   UNL     1      48.267   7.729  17.862  0.00  0.00    +0.000 OA
BRANCH  20  22
ATOM     22  C   UNL     1      48.538   5.521  17.179  0.00  0.00    +0.000 A 
ATOM     23  C   UNL     1      47.476   4.636  17.099  0.00  0.00    +0.000 A 
ATOM     24  S   UNL     1      47.908   3.018  17.418  0.00  0.00    +0.000 S 
ATOM     25  C   UNL     1      49.557   3.422  17.506  0.00  0.00    +0.000 A 
ATOM     26  N   UNL     1      50.502   2.459  17.667  0.00  0.00    +0.000 NA
ATOM     27  C   UNL     1      51.715   2.900  17.635  0.00  0.00    +0.000 A 
ATOM     28  N   UNL     1      52.065   4.220  17.493  0.00  0.00    +0.000 N 
ATOM     29  C   UNL     1      51.139   5.244  17.455  0.00  0.00    +0.000 A 
ATOM     30  O   UNL     1      51.493   6.416  17.536  0.00  0.00    +0.000 OA
ATOM     31  C   UNL     1      49.763   4.784  17.381  0.00  0.00    +0.000 A 
ATOM     32  H   UNL     1      53.033   4.501  17.529  0.00  0.00    +0.000 HD
ENDBRANCH  20  22
BRANCH  19  34
ATOM     33  C   UNL     1      49.505   9.388  14.366  0.00  0.00    +0.000 C 
ATOM     34  C   UNL     1      48.530   8.901  15.432  0.00  0.00    +0.000 C 
ENDBRANCH  19  34
ENDBRANCH   1  19
TORSDOF 7
ENDMDL
MODEL 4
REMARK VINA RESULT:    -6.806      2.311      3.727
REMARK INTER + INTRA:         -11.085
REMARK INTER:                  -9.587
REMARK INTRA:                  -1.498
REMARK UNBOUND:                -1.494
REMARK  Name = 
REMARK  8 active torsions:
REMARK  status: ('A' for Active; 'I' for Inactive)
REMARK    1  A    between atoms: C_1  and  C_2
REMARK    2  A    between atoms: C_2  and  N_3
REMARK    3  A    between atoms: N_3  and  C_4
REMARK    4  A    between atoms: C_4  and  C_5
REMARK    5  A    between atoms: C_8  and  C_9
REMARK    6  A    between atoms: C_9  and  N_10
REMARK    7  A    between atoms: C_11  and  C_13
REMARK    8  A    between atoms: C_20  and  C_22
REMARK                            x       y       z     vdW  Elec       q    Type
REMARK                         _______ _______ _______ _____ _____    ______ ____
ROOT
ATOM      1  C   UNL     1      49.227   8.058  15.870  0.00  0.00    +0.000 C 
ENDROOT
BRANCH   1   2
ATOM      2  C   UNL     1      48.271   7.723  14.747  0.00  0.00    +0.000 A 
ATOM      3  C   UNL     1      47.488   8.728  14.153  0.00  0.00    +0.000 A 
ATOM      4  C   UNL     1      46.572   8.423  13.140  0.00  0.00    +0.000 A 
ATOM      5  C   UNL     1      46.407   7.101  12.710  0.00  0.00    +0.000 A 
ATOM      6  C   UNL     1      47.257   6.116  13.230  0.00  0.00    +0.000 A 
ATOM      7  C   UNL     1      48.175   6.422  14.243  0.00  0.00    +0.000 A 
BRANCH   5   8
ATOM      8  C   UNL     1      45.293   6.730  11.763  0.00  0.00    +0.000 C 
BRANCH   8   9
ATOM      9  N   UNL     1      45.617   5.620  10.907  0.00  0.00    +0.000 N 
ATOM     10  C   UNL     1      44.622   4.792  10.437  0.00  0.00    +0.000 C 
ATOM     11  O   UNL     1      43.442   4.935  10.741  0.00  0.00    +0.000 OA
ATOM     12  H   UNL     1      46.557   5.533  10.553  0.00  0.00    +0.000 HD
BRANCH  10  13
ATOM     13  C   UNL     1      45.055   3.749   9.547  0.00  0.00    +0.000 A 
ATOM     14  C   UNL     1      45.632   3.757   8.292  0.00  0.00    +0.000 A 
ATOM     15  C   UNL     1      45.818   2.403   7.966  0.00  0.00    +0.000 A 
ATOM     16  N   UNL     1      45.395   1.585   8.931  0.00  0.00    +0.000 NA
ATOM     17  N   UNL     1      44.948   2.424   9.883  0.00  0.00    +0.000 N 
ATOM     18  H   UNL     1      44.572   2.036  10.745  0.00  0.00    +0.000 HD
ENDBRANCH  10  13
ENDBRANCH   8   9
ENDBRANCH   5   8
ENDBRANCH   1   2
BRANCH   1  19
ATOM     19  N   UNL     1      48.726   8.141  17.254  0.00  0.00    +0.000 N 
ATOM     20  C   UNL     1      49.070   7.213  18.263  0.00  0.00    +0.000 C 
ATOM     21  O   UNL     1      48.661   7.337  19.415  0.00  0.00    +0.000 OA
BRANCH  20  22
ATOM     22  C   UNL     1      49.971   6.097  17.946  0.00  0.00    +0.000 A 
ATOM     23  C   UNL     1      51.341   6.122  18.149  0.00  0.00    +0.000 A 
ATOM     24  S   UNL     1      52.123   4.668  17.725  0.00  0.00    +0.000 S 
ATOM     25  C   UNL     1      50.638   3.899  17.417  0.00  0.00    +0.000 A 
ATOM     26  N   UNL     1      50.590   2.580  17.096  0.00  0.00    +0.000 NA
ATOM     27  C   UNL     1      49.394   2.111  16.969  0.00  0.00    +0.000 A 
ATOM     28  N   UNL     1      48.244   2.851  17.099  0.00  0.00    +0.000 N 
ATOM     29  C   UNL     1      48.248   4.218  17.297  0.00  0.00    +0.000 A 
ATOM     30  O   UNL     1      47.213   4.870  17.201  0.00  0.00    +0.000 OA
ATOM     31  C   UNL     1      49.568   4.767  17.551  0.00  0.00    +0.000 A 
ATOM     32  H   UNL     1      47.343   2.431  16.935  0.00  0.00    +0.000 HD
ENDBRANCH  20  22
BRANCH  19  34
ATOM     33  C   UNL     1      48.521  10.617  17.330  0.00  0.00    +0.000 C 
ATOM     34  C   UNL     1      47.894   9.273  17.679  0.00  0.00    +0.000 C 
ENDBRANCH  19  34
ENDBRANCH   1  19
TORSDOF 7
ENDMDL
MODEL 5
REMARK VINA RESULT:    -6.637      1.601      2.252
REMARK INTER + INTRA:         -10.846
REMARK INTER:                  -9.462
REMARK INTRA:                  -1.384
REMARK UNBOUND:                -1.494
REMARK  Name = 
REMARK  8 active torsions:
REMARK  status: ('A' for Active; 'I' for Inactive)
REMARK    1  A    between atoms: C_1  and  C_2
REMARK    2  A    between atoms: C_2  and  N_3
REMARK    3  A    between atoms: N_3  and  C_4
REMARK    4  A    between atoms: C_4  and  C_5
REMARK    5  A    between atoms: C_8  and  C_9
REMARK    6  A    between atoms: C_9  and  N_10
REMARK    7  A    between atoms: C_11  and  C_13
REMARK    8  A    between atoms: C_20  and  C_22
REMARK                            x       y       z     vdW  Elec       q    Type
REMARK                         _______ _______ _______ _____ _____    ______ ____
ROOT
ATOM      1  C   UNL     1      47.534   8.073  14.422  0.00  0.00    +0.000 C 
ENDROOT
BRANCH   1   2
ATOM      2  C   UNL     1      46.831   7.345  13.297  0.00  0.00    +0.000 A 
ATOM      3  C   UNL     1      46.007   8.046  12.399  0.00  0.00    +0.000 A 
ATOM      4  C   UNL     1      45.322   7.376  11.379  0.00  0.00    +0.000 A 
ATOM      5  C   UNL     1      45.434   5.987  11.245  0.00  0.00    +0.000 A 
ATOM      6  C   UNL     1      46.332   5.304  12.075  0.00  0.00    +0.000 A 
ATOM      7  C   UNL     1      47.019   5.974  13.095  0.00  0.00    +0.000 A 
BRANCH   5   8
ATOM      8  C   UNL     1      44.555   5.231  10.280  0.00  0.00    +0.000 C 
BRANCH   8   9
ATOM      9  N   UNL     1      45.286   4.610   9.207  0.00  0.00    +0.000 N 
ATOM     10  C   UNL     1      45.298   3.240   9.076  0.00  0.00    +0.000 C 
ATOM     11  O   UNL     1      44.729   2.493   9.867  0.00  0.00    +0.000 OA
ATOM     12  H   UNL     1      45.678   5.191   8.482  0.00  0.00    +0.000 HD
BRANCH  10  13
ATOM     13  C   UNL     1      46.016   2.734   7.938  0.00  0.00    +0.000 A 
ATOM     14  C   UNL     1      46.390   3.295   6.732  0.00  0.00    +0.000 A 
ATOM     15  C   UNL     1      47.077   2.275   6.051  0.00  0.00    +0.000 A 
ATOM     16  N   UNL     1      47.142   1.146   6.759  0.00  0.00    +0.000 NA
ATOM     17  N   UNL     1      46.502   1.453   7.902  0.00  0.00    +0.000 N 
ATOM     18  H   UNL     1      46.422   0.744   8.627  0.00  0.00    +0.000 HD
ENDBRANCH  10  13
ENDBRANCH   8   9
ENDBRANCH   5   8
ENDBRANCH   1   2
BRANCH   1  19
ATOM     19  N   UNL     1      48.998   7.963  14.559  0.00  0.00    +0.000 N 
ATOM     20  C   UNL     1      49.629   7.158  15.534  0.00  0.00    +0.000 C 
ATOM     21  O   UNL     1      50.852   7.063  15.593  0.00  0.00    +0.000 OA
BRANCH  20  22
ATOM     22  C   UNL     1      48.809   6.380  16.474  0.00  0.00    +0.000 A 
ATOM     23  C   UNL     1      48.442   5.059  16.276  0.00  0.00    +0.000 A 
ATOM     24  S   UNL     1      47.524   4.405  17.555  0.00  0.00    +0.000 S 
ATOM     25  C   UNL     1      47.730   5.810  18.489  0.00  0.00    +0.000 A 
ATOM     26  N   UNL     1      47.260   5.874  19.763  0.00  0.00    +0.000 NA
ATOM     27  C   UNL     1      47.559   6.967  20.381  0.00  0.00    +0.000 A 
ATOM     28  N   UNL     1      48.252   8.016  19.828  0.00  0.00    +0.000 N 
ATOM     29  C   UNL     1      48.636   8.047  18.501  0.00  0.00    +0.000 A 
ATOM     30  O   UNL     1      49.067   9.078  17.995  0.00  0.00    +0.000 OA
ATOM     31  C   UNL     1      48.414   6.795  17.800  0.00  0.00    +0.000 A 
ATOM     32  H   UNL     1      48.405   8.862  20.352  0.00  0.00    +0.000 HD
ENDBRANCH  20  22
BRANCH  19  34
ATOM     33  C   UNL     1      50.075   7.835  12.322  0.00  0.00    +0.000 C 
ATOM     34  C   UNL     1      49.890   8.635  13.606  0.00  0.00    +0.000 C 
ENDBRANCH  19  34
ENDBRANCH   1  19
TORSDOF 7
ENDMDL
MODEL 6
REMARK VINA RESULT:    -6.616      2.646      4.306
REMARK INTER + INTRA:         -10.818
REMARK INTER:                  -9.438
REMARK INTRA:                  -1.380
REMARK UNBOUND:                -1.494
REMARK  Name = 
REMARK  8 active torsions:
REMARK  status: ('A' for Active; 'I' for Inactive)
REMARK    1  A    between atoms: C_1  and  C_2
REMARK    2  A    between atoms: C_2  and  N_3
REMARK    3  A    between atoms: N_3  and  C_4
REMARK    4  A    between atoms: C_4  and  C_5
REMARK    5  A    between atoms: C_8  and  C_9
REMARK    6  A    between atoms: C_9  and  N_10
REMARK    7  A    between atoms: C_11  and  C_13
REMARK    8  A    between atoms: C_20  and  C_22
REMARK                            x       y       z     vdW  Elec       q    Type
REMARK                         _______ _______ _______ _____ _____    ______ ____
ROOT
ATOM      1  C   UNL     1      49.521   7.285  16.088  0.00  0.00    +0.000 C 
ENDROOT
BRANCH   1   2
ATOM      2  C   UNL     1      48.535   7.325  14.942  0.00  0.00    +0.000 A 
ATOM      3  C   UNL     1      47.980   8.546  14.520  0.00  0.00    +0.000 A 
ATOM      4  C   UNL     1      47.038   8.589  13.487  0.00  0.00    +0.000 A 
ATOM      5  C   UNL     1      46.616   7.409  12.863  0.00  0.00    +0.000 A 
ATOM      6  C   UNL     1      47.242   6.205  13.215  0.00  0.00    +0.000 A 
ATOM      7  C   UNL     1      48.186   6.162  14.248  0.00  0.00    +0.000 A 
BRANCH   5   8
ATOM      8  C   UNL     1      45.465   7.418  11.889  0.00  0.00    +0.000 C 
BRANCH   8   9
ATOM      9  N   UNL     1      45.451   6.279  11.010  0.00  0.00    +0.000 N 
ATOM     10  C   UNL     1      44.417   5.372  11.066  0.00  0.00    +0.000 C 
ATOM     11  O   UNL     1      43.494   5.467  11.870  0.00  0.00    +0.000 OA
ATOM     12  H   UNL     1      46.133   6.223  10.270  0.00  0.00    +0.000 HD
BRANCH  10  13
ATOM     13  C   UNL     1      44.479   4.303  10.107  0.00  0.00    +0.000 A 
ATOM     14  C   UNL     1      44.460   2.927  10.224  0.00  0.00    +0.000 A 
ATOM     15  C   UNL     1      44.549   2.446   8.906  0.00  0.00    +0.000 A 
ATOM     16  N   UNL     1      44.620   3.431   8.009  0.00  0.00    +0.000 NA
ATOM     17  N   UNL     1      44.565   4.546   8.760  0.00  0.00    +0.000 N 
ATOM     18  H   UNL     1      44.594   5.453   8.300  0.00  0.00    +0.000 HD
ENDBRANCH  10  13
ENDBRANCH   8   9
ENDBRANCH   5   8
ENDBRANCH   1   2
BRANCH   1  19
ATOM     19  N   UNL     1      49.063   7.591  17.456  0.00  0.00    +0.000 N 
ATOM     20  C   UNL     1      48.561   6.613  18.344  0.00  0.00    +0.000 C 
ATOM     21  O   UNL     1      48.223   6.901  19.490  0.00  0.00    +0.000 OA
BRANCH  20  22
ATOM     22  C   UNL     1      48.481   5.211  17.910  0.00  0.00    +0.000 A 
ATOM     23  C   UNL     1      47.342   4.624  17.387  0.00  0.00    +0.000 A 
ATOM     24  S   UNL     1      47.558   2.995  16.933  0.00  0.00    +0.000 S 
ATOM     25  C   UNL     1      49.224   3.071  17.263  0.00  0.00    +0.000 A 
ATOM     26  N   UNL     1      50.036   2.014  16.994  0.00  0.00    +0.000 NA
ATOM     27  C   UNL     1      51.287   2.241  17.218  0.00  0.00    +0.000 A 
ATOM     28  N   UNL     1      51.793   3.414  17.720  0.00  0.00    +0.000 N 
ATOM     29  C   UNL     1      50.995   4.465  18.127  0.00  0.00    +0.000 A 
ATOM     30  O   UNL     1      51.466   5.406  18.758  0.00  0.00    +0.000 OA
ATOM     31  C   UNL     1      49.591   4.294  17.795  0.00  0.00    +0.000 A 
ATOM     32  H   UNL     1      52.777   3.504  17.920  0.00  0.00    +0.000 HD
ENDBRANCH  20  22
BRANCH  19  34
ATOM     33  C   UNL     1      47.913   9.761  17.839  0.00  0.00    +0.000 C 
ATOM     34  C   UNL     1      49.192   8.948  18.000  0.00  0.00    +0.000 C 
ENDBRANCH  19  34
ENDBRANCH   1  19
TORSDOF 7
ENDMDL
MODEL 7
REMARK VINA RESULT:    -6.326      3.277      4.730
REMARK INTER + INTRA:         -10.408
REMARK INTER:                  -9.315
REMARK INTRA:                  -1.093
REMARK UNBOUND:                -1.494
REMARK  Name = 
REMARK  8 active torsions:
REMARK  status: ('A' for Active; 'I' for Inactive)
REMARK    1  A    between atoms: C_1  and  C_2
REMARK    2  A    between atoms: C_2  and  N_3
REMARK    3  A    between atoms: N_3  and  C_4
REMARK    4  A    between atoms: C_4  and  C_5
REMARK    5  A    between atoms: C_8  and  C_9
REMARK    6  A    between atoms: C_9  and  N_10
REMARK    7  A    between atoms: C_11  and  C_13
REMARK    8  A    between atoms: C_20  and  C_22
REMARK                            x       y       z     vdW  Elec       q    Type
REMARK                         _______ _______ _______ _____ _____    ______ ____
ROOT
ATOM      1  C   UNL     1      49.641   6.204  16.706  0.00  0.00    +0.000 C 
ENDROOT
BRANCH   1   2
ATOM      2  C   UNL     1      48.576   6.012  15.649  0.00  0.00    +0.000 A 
ATOM      3  C   UNL     1      48.395   6.970  14.636  0.00  0.00    +0.000 A 
ATOM      4  C   UNL     1      47.388   6.821  13.676  0.00  0.00    +0.000 A 
ATOM      5  C   UNL     1      46.528   5.717  13.718  0.00  0.00    +0.000 A 
ATOM      6  C   UNL     1      46.773   4.713  14.664  0.00  0.00    +0.000 A 
ATOM      7  C   UNL     1      47.781   4.862  15.624  0.00  0.00    +0.000 A 
BRANCH   5   8
ATOM      8  C   UNL     1      45.323   5.642  12.815  0.00  0.00    +0.000 C 
BRANCH   8   9
ATOM      9  N   UNL     1      45.599   5.031  11.542  0.00  0.00    +0.000 N 
ATOM     10  C   UNL     1      44.606   4.916  10.595  0.00  0.00    +0.000 C 
ATOM     11  O   UNL     1      43.454   5.290  10.796  0.00  0.00    +0.000 OA
ATOM     12  H   UNL     1      46.554   4.808  11.303  0.00  0.00    +0.000 HD
BRANCH  10  13
ATOM     13  C   UNL     1      45.009   4.339   9.342  0.00  0.00    +0.000 A 
ATOM     14  C   UNL     1      44.669   3.170   8.688  0.00  0.00    +0.000 A 
ATOM     15  C   UNL     1      45.410   3.190   7.494  0.00  0.00    +0.000 A 
ATOM     16  N   UNL     1      46.167   4.283   7.384  0.00  0.00    +0.000 NA
ATOM     17  N   UNL     1      45.899   4.967   8.511  0.00  0.00    +0.000 N 
ATOM     18  H   UNL     1      46.358   5.863   8.664  0.00  0.00    +0.000 HD
ENDBRANCH  10  13
ENDBRANCH   8   9
ENDBRANCH   5   8
ENDBRANCH   1   2
BRANCH   1  19
ATOM     19  N   UNL     1      49.279   6.107  18.131  0.00  0.00    +0.000 N 
ATOM     20  C   UNL     1      50.074   5.443  19.093  0.00  0.00    +0.000 C 
ATOM     21  O   UNL     1      49.757   5.416  20.279  0.00  0.00    +0.000 OA
BRANCH  20  22
ATOM     22  C   UNL     1      51.333   4.807  18.679  0.00  0.00    +0.000 A 
ATOM     23  C   UNL     1      52.587   5.352  18.894  0.00  0.00    +0.000 A 
ATOM     24  S   UNL     1      53.865   4.369  18.342  0.00  0.00    +0.000 S 
ATOM     25  C   UNL     1      52.794   3.108  17.950  0.00  0.00    +0.000 A 
ATOM     26  N   UNL     1      53.260   1.911  17.506  0.00  0.00    +0.000 NA
ATOM     27  C   UNL     1      52.342   1.022  17.326  0.00  0.00    +0.000 A 
ATOM     28  N   UNL     1      50.998   1.233  17.515  0.00  0.00    +0.000 N 
ATOM     29  C   UNL     1      50.469   2.467  17.841  0.00  0.00    +0.000 A 
ATOM     30  O   UNL     1      49.259   2.664  17.799  0.00  0.00    +0.000 OA
ATOM     31  C   UNL     1      51.474   3.467  18.157  0.00  0.00    +0.000 A 
ATOM     32  H   UNL     1      50.331   0.508  17.305  0.00  0.00    +0.000 HD
ENDBRANCH  20  22
BRANCH  19  34
ATOM     33  C   UNL     1      46.955   5.820  18.965  0.00  0.00    +0.000 C 
ATOM     34  C   UNL     1      48.086   6.790  18.646  0.00  0.00    +0.000 C 
ENDBRANCH  19  34
ENDBRANCH   1  19
TORSDOF 7
ENDMDL
MODEL 8
REMARK VINA RESULT:    -6.288      1.677      2.339
REMARK INTER + INTRA:         -10.355
REMARK INTER:                  -8.958
REMARK INTRA:                  -1.398
REMARK UNBOUND:                -1.494
REMARK  Name = 
REMARK  8 active torsions:
REMARK  status: ('A' for Active; 'I' for Inactive)
REMARK    1  A    between atoms: C_1  and  C_2
REMARK    2  A    between atoms: C_2  and  N_3
REMARK    3  A    between atoms: N_3  and  C_4
REMARK    4  A    between atoms: C_4  and  C_5
REMARK    5  A    between atoms: C_8  and  C_9
REMARK    6  A    between atoms: C_9  and  N_10
REMARK    7  A    between atoms: C_11  and  C_13
REMARK    8  A    between atoms: C_20  and  C_22
REMARK                            x       y       z     vdW  Elec       q    Type
REMARK                         _______ _______ _______ _____ _____    ______ ____
ROOT
ATOM      1  C   UNL     1      48.195   9.970  13.407  0.00  0.00    +0.000 C 
ENDROOT
BRANCH   1   2
ATOM      2  C   UNL     1      47.034   9.130  12.923  0.00  0.00    +0.000 A 
ATOM      3  C   UNL     1      46.918   7.783  13.311  0.00  0.00    +0.000 A 
ATOM      4  C   UNL     1      45.870   6.986  12.838  0.00  0.00    +0.000 A 
ATOM      5  C   UNL     1      44.922   7.514  11.953  0.00  0.00    +0.000 A 
ATOM      6  C   UNL     1      44.980   8.881  11.647  0.00  0.00    +0.000 A 
ATOM      7  C   UNL     1      46.029   9.679  12.121  0.00  0.00    +0.000 A 
BRANCH   5   8
ATOM      8  C   UNL     1      43.906   6.622  11.286  0.00  0.00    +0.000 C 
BRANCH   8   9
ATOM      9  N   UNL     1      44.491   5.655  10.397  0.00  0.00    +0.000 N 
ATOM     10  C   UNL     1      44.169   4.321  10.511  0.00  0.00    +0.000 C 
ATOM     11  O   UNL     1      43.410   3.895  11.377  0.00  0.00    +0.000 OA
ATOM     12  H   UNL     1      45.035   5.978   9.611  0.00  0.00    +0.000 HD
BRANCH  10  13
ATOM     13  C   UNL     1      44.771   3.453   9.537  0.00  0.00    +0.000 A 
ATOM     14  C   UNL     1      45.281   3.665   8.270  0.00  0.00    +0.000 A 
ATOM     15  C   UNL     1      45.730   2.404   7.840  0.00  0.00    +0.000 A 
ATOM     16  N   UNL     1      45.528   1.454   8.755  0.00  0.00    +0.000 NA
ATOM     17  N   UNL     1      44.956   2.116   9.777  0.00  0.00    +0.000 N 
ATOM     18  H   UNL     1      44.706   1.602  10.619  0.00  0.00    +0.000 HD
ENDBRANCH  10  13
ENDBRANCH   8   9
ENDBRANCH   5   8
ENDBRANCH   1   2
BRANCH   1  19
ATOM     19  N   UNL     1      49.575   9.490  13.211  0.00  0.00    +0.000 N 
ATOM     20  C   UNL     1      50.448   9.177  14.277  0.00  0.00    +0.000 C 
ATOM     21  O   UNL     1      51.579   8.743  14.072  0.00  0.00    +0.000 OA
BRANCH  20  22
ATOM     22  C   UNL     1      49.985   9.329  15.663  0.00  0.00    +0.000 A 
ATOM     23  C   UNL     1      49.949  10.535  16.342  0.00  0.00    +0.000 A 
ATOM     24  S   UNL     1      49.326  10.411  17.924  0.00  0.00    +0.000 S 
ATOM     25  C   UNL     1      48.926   8.775  17.693  0.00  0.00    +0.000 A 
ATOM     26  N   UNL     1      48.261   8.078  18.653  0.00  0.00    +0.000 NA
ATOM     27  C   UNL     1      47.951   6.873  18.310  0.00  0.00    +0.000 A 
ATOM     28  N   UNL     1      48.279   6.290  17.110  0.00  0.00    +0.000 N 
ATOM     29  C   UNL     1      49.063   6.915  16.160  0.00  0.00    +0.000 A 
ATOM     30  O   UNL     1      49.504   6.293  15.199  0.00  0.00    +0.000 OA
ATOM     31  C   UNL     1      49.343   8.309  16.459  0.00  0.00    +0.000 A 
ATOM     32  H   UNL     1      48.051   5.326  16.929  0.00  0.00    +0.000 HD
ENDBRANCH  20  22
BRANCH  19  34
ATOM     33  C   UNL     1      49.944   7.760  11.464  0.00  0.00    +0.000 C 
ATOM     34  C   UNL     1      50.088   9.225  11.861  0.00  0.00    +0.000 C 
ENDBRANCH  19  34
ENDBRANCH   1  19
TORSDOF 7
ENDMDL
MODEL 9
REMARK VINA RESULT:    -5.702      2.288      3.363
REMARK INTER + INTRA:          -9.529
REMARK INTER:                  -8.126
REMARK INTRA:                  -1.404
REMARK UNBOUND:                -1.494
REMARK  Name = 
REMARK  8 active torsions:
REMARK  status: ('A' for Active; 'I' for Inactive)
REMARK    1  A    between atoms: C_1  and  C_2
REMARK    2  A    between atoms: C_2  and  N_3
REMARK    3  A    between atoms: N_3  and  C_4
REMARK    4  A    between atoms: C_4  and  C_5
REMARK    5  A    between atoms: C_8  and  C_9
REMARK    6  A    between atoms: C_9  and  N_10
REMARK    7  A    between atoms: C_11  and  C_13
REMARK    8  A    between atoms: C_20  and  C_22
REMARK                            x       y       z     vdW  Elec       q    Type
REMARK                         _______ _______ _______ _____ _____    ______ ____
ROOT
ATOM      1  C   UNL     1      50.409   7.718  14.402  0.00  0.00    +0.000 C 
ENDROOT
BRANCH   1   2
ATOM      2  C   UNL     1      49.100   7.709  13.644  0.00  0.00    +0.000 A 
ATOM      3  C   UNL     1      47.970   8.365  14.164  0.00  0.00    +0.000 A 
ATOM      4  C   UNL     1      46.744   8.330  13.489  0.00  0.00    +0.000 A 
ATOM      5  C   UNL     1      46.618   7.625  12.287  0.00  0.00    +0.000 A 
ATOM      6  C   UNL     1      47.766   7.057  11.719  0.00  0.00    +0.000 A 
ATOM      7  C   UNL     1      48.993   7.093  12.393  0.00  0.00    +0.000 A 
BRANCH   5   8
ATOM      8  C   UNL     1      45.266   7.416  11.652  0.00  0.00    +0.000 C 
BRANCH   8   9
ATOM      9  N   UNL     1      45.235   6.321  10.719  0.00  0.00    +0.000 N 
ATOM     10  C   UNL     1      44.806   5.076  11.122  0.00  0.00    +0.000 C 
ATOM     11  O   UNL     1      44.468   4.834  12.277  0.00  0.00    +0.000 OA
ATOM     12  H   UNL     1      45.406   6.505   9.742  0.00  0.00    +0.000 HD
BRANCH  10  13
ATOM     13  C   UNL     1      44.767   4.073  10.093  0.00  0.00    +0.000 A 
ATOM     14  C   UNL     1      44.834   4.131   8.715  0.00  0.00    +0.000 A 
ATOM     15  C   UNL     1      44.744   2.794   8.287  0.00  0.00    +0.000 A 
ATOM     16  N   UNL     1      44.628   1.942   9.307  0.00  0.00    +0.000 NA
ATOM     17  N   UNL     1      44.656   2.739  10.390  0.00  0.00    +0.000 N 
ATOM     18  H   UNL     1      44.590   2.318  11.314  0.00  0.00    +0.000 HD
ENDBRANCH  10  13
ENDBRANCH   8   9
ENDBRANCH   5   8
ENDBRANCH   1   2
BRANCH   1  19
ATOM     19  N   UNL     1      50.778   8.898  15.205  0.00  0.00    +0.000 N 
ATOM     20  C   UNL     1      50.894   8.875  16.613  0.00  0.00    +0.000 C 
ATOM     21  O   UNL     1      51.240   9.871  17.244  0.00  0.00    +0.000 OA
BRANCH  20  22
ATOM     22  C   UNL     1      50.639   7.625  17.342  0.00  0.00    +0.000 A 
ATOM     23  C   UNL     1      51.609   6.676  17.619  0.00  0.00    +0.000 A 
ATOM     24  S   UNL     1      51.029   5.347  18.516  0.00  0.00    +0.000 S 
ATOM     25  C   UNL     1      49.505   6.076  18.708  0.00  0.00    +0.000 A 
ATOM     26  N   UNL     1      48.546   5.492  19.474  0.00  0.00    +0.000 NA
ATOM     27  C   UNL     1      47.470   6.195  19.597  0.00  0.00    +0.000 A 
ATOM     28  N   UNL     1      47.254   7.410  18.995  0.00  0.00    +0.000 N 
ATOM     29  C   UNL     1      48.148   7.979  18.109  0.00  0.00    +0.000 A 
ATOM     30  O   UNL     1      47.832   8.957  17.438  0.00  0.00    +0.000 OA
ATOM     31  C   UNL     1      49.415   7.275  18.024  0.00  0.00    +0.000 A 
ATOM     32  H   UNL     1      46.369   7.881  19.093  0.00  0.00    +0.000 HD
ENDBRANCH  20  22
BRANCH  19  34
ATOM     33  C   UNL     1      52.439  10.062  13.768  0.00  0.00    +0.000 C 
ATOM     34  C   UNL     1      51.136  10.163  14.552  0.00  0.00    +0.000 C 
ENDBRANCH  19  34
ENDBRANCH   1  19
TORSDOF 7
ENDMDL
