MODEL 1
REMARK VINA RESULT:    -8.645      0.000      0.000
REMARK INTER + INTRA:         -12.318
REMARK INTER:                 -11.678
REMARK INTRA:                  -0.641
REMARK UNBOUND:                -0.641
REMARK  Name = 
REMARK  6 active torsions:
REMARK  status: ('A' for Active; 'I' for Inactive)
REMARK    1  A    between atoms: C_2  and  C_25
REMARK    2  A    between atoms: N_3  and  C_4
REMARK    3  A    between atoms: C_4  and  C_5
REMARK    4  A    between atoms: C_8  and  C_9
REMARK    5  A    between atoms: C_9  and  N_10
REMARK    6  A    between atoms: C_11  and  C_13
REMARK                            x       y       z     vdW  Elec       q    Type
REMARK                         _______ _______ _______ _____ _____    ______ ____
ROOT
ATOM      1  C   UNL     1      44.595   5.654  11.413  0.00  0.00    +0.000 A 
ATOM      2  C   UNL     1      45.633   5.020  12.110  0.00  0.00    +0.000 A 
ATOM      3  C   UNL     1      46.594   5.769  12.800  0.00  0.00    +0.000 A 
ATOM      4  C   UNL     1      46.526   7.170  12.826  0.00  0.00    +0.000 A 
ATOM      5  C   UNL     1      45.490   7.801  12.126  0.00  0.00    +0.000 A 
ATOM      6  C   UNL     1      44.529   7.054  11.437  0.00  0.00    +0.000 A 
ENDROOT
BRANCH   1   7
ATOM      7  C   UNL     1      43.588   4.855  10.627  0.00  0.00    +0.000 C 
BRANCH   7  10
ATOM      8  O   UNL     1      45.407   5.332   8.604  0.00  0.00    +0.000 OA
ATOM      9  C   UNL     1      45.111   4.168   8.855  0.00  0.00    +0.000 C 
ATOM     10  N   UNL     1      44.193   3.814   9.827  0.00  0.00    +0.000 N 
ATOM     11  H   UNL     1      44.132   2.859  10.147  0.00  0.00    +0.000 HD
BRANCH   9  12
ATOM     12  C   UNL     1      45.786   3.067   8.121  0.00  0.00    +0.000 A 
ATOM     13  C   UNL     1      45.713   1.771   8.656  0.00  0.00    +0.000 A 
ATOM     14  C   UNL     1      46.356   0.708   8.020  0.00  0.00    +0.000 A 
ATOM     15  C   UNL     1      47.084   0.937   6.852  0.00  0.00    +0.000 A 
ATOM     16  C   UNL     1      47.168   2.229   6.332  0.00  0.00    +0.000 A 
ATOM     17 CL   UNL     1      48.091   2.508   4.905  0.00  0.00    +0.000 Cl
ATOM     18  C   UNL     1      46.524   3.300   6.957  0.00  0.00    +0.000 A 
ENDBRANCH   9  12
ENDBRANCH   7  10
ENDBRANCH   1   7
BRANCH   4  19
ATOM     19  C   UNL     1      47.560   7.994  13.558  0.00  0.00    +0.000 C 
BRANCH  19  20
ATOM     20  N   UNL     1      47.884   7.422  14.843  0.00  0.00    +0.000 N 
ATOM     21  C   UNL     1      49.160   7.010  15.142  0.00  0.00    +0.000 C 
ATOM     22  O   UNL     1      50.093   7.148  14.357  0.00  0.00    +0.000 OA
ATOM     23  H   UNL     1      47.109   7.061  15.386  0.00  0.00    +0.000 HD
BRANCH  21  24
ATOM     24  C   UNL     1      49.364   6.456  16.489  0.00  0.00    +0.000 A 
ATOM     25  C   UNL     1      50.152   7.136  17.406  0.00  0.00    +0.000 A 
ATOM     26  S   UNL     1      50.241   6.378  18.932  0.00  0.00    +0.000 S 
ATOM     27  C   UNL     1      49.270   5.083  18.405  0.00  0.00    +0.000 A 
ATOM     28  N   UNL     1      48.977   4.044  19.232  0.00  0.00    +0.000 NA
ATOM     29  C   UNL     1      48.252   3.121  18.693  0.00  0.00    +0.000 A 
ATOM     30  N   UNL     1      47.792   3.145  17.399  0.00  0.00    +0.000 N 
ATOM     31  C   UNL     1      48.041   4.183  16.540  0.00  0.00    +0.000 A 
ATOM     32  O   UNL     1      47.575   4.196  15.403  0.00  0.00    +0.000 OA
ATOM     33  C   UNL     1      48.863   5.243  17.091  0.00  0.00    +0.000 A 
ATOM     34  H   UNL     1      47.220   2.394  17.040  0.00  0.00    +0.000 HD
ENDBRANCH  21  24
ENDBRANCH  19  20
ENDBRANCH   4  19
TORSDOF 6
ENDMDL
MODEL 2
REMARK VINA RESULT:    -8.204      1.581      2.007
REMARK INTER + INTRA:         -11.723
REMARK INTER:                 -10.842
REMARK INTRA:                  -0.881
REMARK UNBOUND:                -0.641
REMARK  Name = 
REMARK  6 active torsions:
REMARK  status: ('A' for Active; 'I' for Inactive)
REMARK    1  A    between atoms: C_2  and  C_25
REMARK    2  A    between atoms: N_3  and  C_4
REMARK    3  A    between atoms: C_4  and  C_5
REMARK    4  A    between atoms: C_8  and  C_9
REMARK    5  A    between atoms: C_9  and  N_10
REMARK    6  A    between atoms: C_11  and  C_13
REMARK                            x       y       z     vdW  Elec       q    Type
REMARK                         _______ _______ _______ _____ _____    ______ ____
ROOT
ATOM      1  C   UNL     1      44.737   5.364  11.650  0.00  0.00    +0.000 A 
ATOM      2  C   UNL     1      45.578   4.700  12.554  0.00  0.00    +0.000 A 
ATOM      3  C   UNL     1      46.549   5.402  13.278  0.00  0.00    +0.000 A 
ATOM      4  C   UNL     1      46.689   6.790  13.129  0.00  0.00    +0.000 A 
ATOM      5  C   UNL     1      45.850   7.451  12.222  0.00  0.00    +0.000 A 
ATOM      6  C   UNL     1      44.879   6.750  11.499  0.00  0.00    +0.000 A 
ENDROOT
BRANCH   1   7
ATOM      7  C   UNL     1      43.725   4.605  10.832  0.00  0.00    +0.000 C 
BRANCH   7  10
ATOM      8  O   UNL     1      45.245   5.166   8.596  0.00  0.00    +0.000 OA
ATOM      9  C   UNL     1      45.085   3.990   8.908  0.00  0.00    +0.000 C 
ATOM     10  N   UNL     1      44.323   3.593   9.990  0.00  0.00    +0.000 N 
ATOM     11  H   UNL     1      44.384   2.647  10.339  0.00  0.00    +0.000 HD
BRANCH   9  12
ATOM     12  C   UNL     1      45.765   2.926   8.125  0.00  0.00    +0.000 A 
ATOM     13  C   UNL     1      45.743   1.616   8.630  0.00  0.00    +0.000 A 
ATOM     14  C   UNL     1      46.393   0.586   7.946  0.00  0.00    +0.000 A 
ATOM     15  C   UNL     1      47.077   0.864   6.763  0.00  0.00    +0.000 A 
ATOM     16  C   UNL     1      47.111   2.170   6.273  0.00  0.00    +0.000 A 
ATOM     17 CL   UNL     1      47.980   2.509   4.826  0.00  0.00    +0.000 Cl
ATOM     18  C   UNL     1      46.459   3.207   6.945  0.00  0.00    +0.000 A 
ENDBRANCH   9  12
ENDBRANCH   7  10
ENDBRANCH   1   7
BRANCH   4  19
ATOM     19  C   UNL     1      47.738   7.562  13.894  0.00  0.00    +0.000 C 
BRANCH  19  20
ATOM     20  N   UNL     1      47.927   7.029  15.222  0.00  0.00    +0.000 N 
ATOM     21  C   UNL     1      49.175   6.693  15.687  0.00  0.00    +0.000 C 
ATOM     22  O   UNL     1      50.191   6.870  15.022  0.00  0.00    +0.000 OA
ATOM     23  H   UNL     1      47.110   6.634  15.672  0.00  0.00    +0.000 HD
BRANCH  21  24
ATOM     24  C   UNL     1      49.237   6.173  17.062  0.00  0.00    +0.000 A 
ATOM     25  C   UNL     1      49.806   4.932  17.309  0.00  0.00    +0.000 A 
ATOM     26  S   UNL     1      49.838   4.508  18.961  0.00  0.00    +0.000 S 
ATOM     27  C   UNL     1      49.044   5.948  19.402  0.00  0.00    +0.000 A 
ATOM     28  N   UNL     1      48.729   6.206  20.699  0.00  0.00    +0.000 NA
ATOM     29  C   UNL     1      48.107   7.322  20.885  0.00  0.00    +0.000 A 
ATOM     30  N   UNL     1      47.773   8.206  19.888  0.00  0.00    +0.000 N 
ATOM     31  C   UNL     1      48.093   7.998  18.572  0.00  0.00    +0.000 A 
ATOM     32  O   UNL     1      47.821   8.831  17.710  0.00  0.00    +0.000 OA
ATOM     33  C   UNL     1      48.782   6.751  18.305  0.00  0.00    +0.000 A 
ATOM     34  H   UNL     1      47.294   9.068  20.101  0.00  0.00    +0.000 HD
ENDBRANCH  21  24
ENDBRANCH  19  20
ENDBRANCH   4  19
TORSDOF 6
ENDMDL
MODEL 3
REMARK VINA RESULT:    -8.162      1.888      2.391
REMARK INTER + INTRA:         -11.665
REMARK INTER:                 -10.778
REMARK INTRA:                  -0.887
REMARK UNBOUND:                -0.641
REMARK  Name = 
REMARK  6 active torsions:
REMARK  status: ('A' for Active; 'I' for Inactive)
REMARK    1  A    between atoms: C_2  and  C_25
REMARK    2  A    between atoms: N_3  and  C_4
REMARK    3  A    between atoms: C_4  and  C_5
REMARK    4  A    between atoms: C_8  and  C_9
REMARK    5  A    between atoms: C_9  and  N_10
REMARK    6  A    between atoms: C_11  and  C_13
REMARK                            x       y       z     vdW  Elec       q    Type
REMARK                         _______ _______ _______ _____ _____    ______ ____
ROOT
ATOM      1  C   UNL     1      45.462   6.825  11.678  0.00  0.00    +0.000 A 
ATOM      2  C   UNL     1      45.181   8.162  11.991  0.00  0.00    +0.000 A 
ATOM      3  C   UNL     1      45.964   8.860  12.918  0.00  0.00    +0.000 A 
ATOM      4  C   UNL     1      47.059   8.242  13.540  0.00  0.00    +0.000 A 
ATOM      5  C   UNL     1      47.335   6.905  13.228  0.00  0.00    +0.000 A 
ATOM      6  C   UNL     1      46.555   6.207  12.300  0.00  0.00    +0.000 A 
ENDROOT
BRANCH   1   7
ATOM      7  C   UNL     1      44.592   6.054  10.718  0.00  0.00    +0.000 C 
BRANCH   7  10
ATOM      8  O   UNL     1      43.929   3.468  10.015  0.00  0.00    +0.000 OA
ATOM      9  C   UNL     1      44.913   3.977   9.488  0.00  0.00    +0.000 C 
ATOM     10  N   UNL     1      45.352   5.254   9.784  0.00  0.00    +0.000 N 
ATOM     11  H   UNL     1      46.025   5.714   9.189  0.00  0.00    +0.000 HD
BRANCH   9  12
ATOM     12  C   UNL     1      45.661   3.222   8.450  0.00  0.00    +0.000 A 
ATOM     13  C   UNL     1      46.156   3.930   7.343  0.00  0.00    +0.000 A 
ATOM     14  C   UNL     1      46.839   3.261   6.326  0.00  0.00    +0.000 A 
ATOM     15  C   UNL     1      47.020   1.880   6.405  0.00  0.00    +0.000 A 
ATOM     16  C   UNL     1      46.512   1.177   7.498  0.00  0.00    +0.000 A 
ATOM     17 CL   UNL     1      46.716  -0.531   7.575  0.00  0.00    +0.000 Cl
ATOM     18  C   UNL     1      45.831   1.837   8.525  0.00  0.00    +0.000 A 
ENDBRANCH   9  12
ENDBRANCH   7  10
ENDBRANCH   1   7
BRANCH   4  19
ATOM     19  C   UNL     1      47.908   8.977  14.550  0.00  0.00    +0.000 C 
BRANCH  19  20
ATOM     20  N   UNL     1      47.902   8.313  15.832  0.00  0.00    +0.000 N 
ATOM     21  C   UNL     1      48.438   8.909  16.948  0.00  0.00    +0.000 C 
ATOM     22  O   UNL     1      48.903  10.044  16.925  0.00  0.00    +0.000 OA
ATOM     23  H   UNL     1      47.775   7.309  15.821  0.00  0.00    +0.000 HD
BRANCH  21  24
ATOM     24  C   UNL     1      48.358   8.136  18.198  0.00  0.00    +0.000 A 
ATOM     25  C   UNL     1      47.995   8.764  19.380  0.00  0.00    +0.000 A 
ATOM     26  S   UNL     1      47.906   7.710  20.718  0.00  0.00    +0.000 S 
ATOM     27  C   UNL     1      48.400   6.382  19.775  0.00  0.00    +0.000 A 
ATOM     28  N   UNL     1      48.563   5.151  20.328  0.00  0.00    +0.000 NA
ATOM     29  C   UNL     1      48.965   4.243  19.502  0.00  0.00    +0.000 A 
ATOM     30  N   UNL     1      49.218   4.458  18.168  0.00  0.00    +0.000 N 
ATOM     31  C   UNL     1      49.044   5.676  17.565  0.00  0.00    +0.000 A 
ATOM     32  O   UNL     1      49.235   5.824  16.360  0.00  0.00    +0.000 OA
ATOM     33  C   UNL     1      48.605   6.736  18.452  0.00  0.00    +0.000 A 
ATOM     34  H   UNL     1      49.522   3.702  17.573  0.00  0.00    +0.000 HD
ENDBRANCH  21  24
ENDBRANCH  19  20
ENDBRANCH   4  19
TORSDOF 6
ENDMDL
MODEL 4
REMARK VINA RESULT:    -7.768      5.734      9.882
REMARK INTER + INTRA:         -11.134
REMARK INTER:                 -10.240
REMARK INTRA:                  -0.894
REMARK UNBOUND:                -0.641
REMARK  Name = 
REMARK  6 active torsions:
REMARK  status: ('A' for Active; 'I' for Inactive)
REMARK    1  A    between atoms: C_2  and  C_25
REMARK    2  A    between atoms: N_3  and  C_4
REMARK    3  A    between atoms: C_4  and  C_5
REMARK    4  A    between atoms: C_8  and  C_9
REMARK    5  A    between atoms: C_9  and  N_10
REMARK    6  A    between atoms: C_11  and  C_13
REMARK                            x       y       z     vdW  Elec       q    Type
REMARK                         _______ _______ _______ _____ _____    ______ ____
ROOT
ATOM      1  C   UNL     1      51.425   3.140  17.677  0.00  0.00    +0.000 A 
ATOM      2  C   UNL     1      50.752   4.344  17.928  0.00  0.00    +0.000 A 
ATOM      3  C   UNL     1      49.375   4.456  17.701  0.00  0.00    +0.000 A 
ATOM      4  C   UNL     1      48.635   3.359  17.235  0.00  0.00    +0.000 A 
ATOM      5  C   UNL     1      49.310   2.158  16.982  0.00  0.00    +0.000 A 
ATOM      6  C   UNL     1      50.685   2.046  17.210  0.00  0.00    +0.000 A 
ENDROOT
BRANCH   1   7
ATOM      7  C   UNL     1      52.915   3.030  17.873  0.00  0.00    +0.000 C 
BRANCH   7  10
ATOM      8  O   UNL     1      54.227   1.238  19.513  0.00  0.00    +0.000 OA
ATOM      9  C   UNL     1      54.071   0.937  18.334  0.00  0.00    +0.000 C 
ATOM     10  N   UNL     1      53.453   1.768  17.418  0.00  0.00    +0.000 N 
ATOM     11  H   UNL     1      53.157   1.410  16.522  0.00  0.00    +0.000 HD
BRANCH   9  12
ATOM     12  C   UNL     1      54.523  -0.393  17.851  0.00  0.00    +0.000 A 
ATOM     13  C   UNL     1      54.921  -0.512  16.510  0.00  0.00    +0.000 A 
ATOM     14  C   UNL     1      55.325  -1.747  16.001  0.00  0.00    +0.000 A 
ATOM     15  C   UNL     1      55.321  -2.871  16.826  0.00  0.00    +0.000 A 
ATOM     16  C   UNL     1      54.908  -2.754  18.154  0.00  0.00    +0.000 A 
ATOM     17 CL   UNL     1      54.881  -4.152  19.159  0.00  0.00    +0.000 Cl
ATOM     18  C   UNL     1      54.507  -1.521  18.677  0.00  0.00    +0.000 A 
ENDBRANCH   9  12
ENDBRANCH   7  10
ENDBRANCH   1   7
BRANCH   4  19
ATOM     19  C   UNL     1      47.151   3.465  16.975  0.00  0.00    +0.000 C 
BRANCH  19  20
ATOM     20  N   UNL     1      46.859   4.439  15.950  0.00  0.00    +0.000 N 
ATOM     21  C   UNL     1      46.981   4.133  14.616  0.00  0.00    +0.000 C 
ATOM     22  O   UNL     1      47.296   3.013  14.228  0.00  0.00    +0.000 OA
ATOM     23  H   UNL     1      46.861   5.411  16.236  0.00  0.00    +0.000 HD
BRANCH  21  24
ATOM     24  C   UNL     1      46.642   5.208  13.670  0.00  0.00    +0.000 A 
ATOM     25  C   UNL     1      47.569   6.199  13.386  0.00  0.00    +0.000 A 
ATOM     26  S   UNL     1      47.027   7.335  12.234  0.00  0.00    +0.000 S 
ATOM     27  C   UNL     1      45.512   6.570  12.111  0.00  0.00    +0.000 A 
ATOM     28  N   UNL     1      44.540   7.065  11.300  0.00  0.00    +0.000 NA
ATOM     29  C   UNL     1      43.434   6.399  11.324  0.00  0.00    +0.000 A 
ATOM     30  N   UNL     1      43.213   5.279  12.088  0.00  0.00    +0.000 N 
ATOM     31  C   UNL     1      44.172   4.732  12.900  0.00  0.00    +0.000 A 
ATOM     32  O   UNL     1      43.958   3.702  13.535  0.00  0.00    +0.000 OA
ATOM     33  C   UNL     1      45.432   5.449  12.920  0.00  0.00    +0.000 A 
ATOM     34  H   UNL     1      42.327   4.797  12.054  0.00  0.00    +0.000 HD
ENDBRANCH  21  24
ENDBRANCH  19  20
ENDBRANCH   4  19
TORSDOF 6
ENDMDL
MODEL 5
REMARK VINA RESULT:    -7.679      1.711      2.118
REMARK INTER + INTRA:         -11.014
REMARK INTER:                  -9.957
REMARK INTRA:                  -1.057
REMARK UNBOUND:                -0.641
REMARK  Name = 
REMARK  6 active torsions:
REMARK  status: ('A' for Active; 'I' for Inactive)
REMARK    1  A    between atoms: C_2  and  C_25
REMARK    2  A    between atoms: N_3  and  C_4
REMARK    3  A    between atoms: C_4  and  C_5
REMARK    4  A    between atoms: C_8  and  C_9
REMARK    5  A    between atoms: C_9  and  N_10
REMARK    6  A    between atoms: C_11  and  C_13
REMARK                            x       y       z     vdW  Elec       q    Type
REMARK                         _______ _______ _______ _____ _____    ______ ____
ROOT
ATOM      1  C   UNL     1      45.831   7.073  11.954  0.00  0.00    +0.000 A 
ATOM      2  C   UNL     1      45.754   8.390  12.430  0.00  0.00    +0.000 A 
ATOM      3  C   UNL     1      46.596   8.830  13.459  0.00  0.00    +0.000 A 
ATOM      4  C   UNL     1      47.549   7.968  14.021  0.00  0.00    +0.000 A 
ATOM      5  C   UNL     1      47.621   6.652  13.547  0.00  0.00    +0.000 A 
ATOM      6  C   UNL     1      46.781   6.212  12.518  0.00  0.00    +0.000 A 
ENDROOT
BRANCH   1   7
ATOM      7  C   UNL     1      44.893   6.582  10.882  0.00  0.00    +0.000 C 
BRANCH   7  10
ATOM      8  O   UNL     1      43.603   4.241  10.186  0.00  0.00    +0.000 OA
ATOM      9  C   UNL     1      44.730   4.436   9.741  0.00  0.00    +0.000 C 
ATOM     10  N   UNL     1      45.478   5.559  10.045  0.00  0.00    +0.000 N 
ATOM     11  H   UNL     1      46.300   5.786   9.505  0.00  0.00    +0.000 HD
BRANCH   9  12
ATOM     12  C   UNL     1      45.325   3.454   8.799  0.00  0.00    +0.000 A 
ATOM     13  C   UNL     1      45.341   2.102   9.173  0.00  0.00    +0.000 A 
ATOM     14  C   UNL     1      45.916   1.144   8.336  0.00  0.00    +0.000 A 
ATOM     15  C   UNL     1      46.490   1.537   7.127  0.00  0.00    +0.000 A 
ATOM     16  C   UNL     1      46.488   2.884   6.765  0.00  0.00    +0.000 A 
ATOM     17 CL   UNL     1      47.221   3.364   5.282  0.00  0.00    +0.000 Cl
ATOM     18  C   UNL     1      45.909   3.851   7.592  0.00  0.00    +0.000 A 
ENDBRANCH   9  12
ENDBRANCH   7  10
ENDBRANCH   1   7
BRANCH   4  19
ATOM     19  C   UNL     1      48.458   8.422  15.139  0.00  0.00    +0.000 C 
BRANCH  19  20
ATOM     20  N   UNL     1      49.334   7.361  15.576  0.00  0.00    +0.000 N 
ATOM     21  C   UNL     1      49.795   7.301  16.869  0.00  0.00    +0.000 C 
ATOM     22  O   UNL     1      49.452   8.111  17.724  0.00  0.00    +0.000 OA
ATOM     23  H   UNL     1      49.829   6.856  14.851  0.00  0.00    +0.000 HD
BRANCH  21  24
ATOM     24  C   UNL     1      50.671   6.164  17.193  0.00  0.00    +0.000 A 
ATOM     25  C   UNL     1      52.000   6.384  17.519  0.00  0.00    +0.000 A 
ATOM     26  S   UNL     1      52.855   4.961  17.914  0.00  0.00    +0.000 S 
ATOM     27  C   UNL     1      51.489   3.992  17.613  0.00  0.00    +0.000 A 
ATOM     28  N   UNL     1      51.549   2.639  17.734  0.00  0.00    +0.000 NA
ATOM     29  C   UNL     1      50.446   2.029  17.451  0.00  0.00    +0.000 A 
ATOM     30  N   UNL     1      49.287   2.653  17.058  0.00  0.00    +0.000 N 
ATOM     31  C   UNL     1      49.176   4.013  16.947  0.00  0.00    +0.000 A 
ATOM     32  O   UNL     1      48.111   4.543  16.637  0.00  0.00    +0.000 OA
ATOM     33  C   UNL     1      50.390   4.748  17.241  0.00  0.00    +0.000 A 
ATOM     34  H   UNL     1      48.454   2.117  16.860  0.00  0.00    +0.000 HD
ENDBRANCH  21  24
ENDBRANCH  19  20
ENDBRANCH   4  19
TORSDOF 6
ENDMDL
MODEL 6
REMARK VINA RESULT:    -7.494      4.164      9.065
REMARK INTER + INTRA:         -10.764
REMARK INTER:                  -9.724
REMARK INTRA:                  -1.039
REMARK UNBOUND:                -0.641
REMARK  Name = 
REMARK  6 active torsions:
REMARK  status: ('A' for Active; 'I' for Inactive)
REMARK    1  A    between atoms: C_2  and  C_25
REMARK    2  A    between atoms: N_3  and  C_4
REMARK    3  A    between atoms: C_4  and  C_5
REMARK    4  A    between atoms: C_8  and  C_9
REMARK    5  A    between atoms: C_9  and  N_10
REMARK    6  A    between atoms: C_11  and  C_13
REMARK                            x       y       z     vdW  Elec       q    Type
REMARK                         _______ _______ _______ _____ _____    ______ ____
ROOT
ATOM      1  C   UNL     1      50.303   7.498  15.188  0.00  0.00    +0.000 A 
ATOM      2  C   UNL     1      50.701   8.135  14.005  0.00  0.00    +0.000 A 
ATOM      3  C   UNL     1      49.826   8.236  12.916  0.00  0.00    +0.000 A 
ATOM      4  C   UNL     1      48.525   7.719  12.994  0.00  0.00    +0.000 A 
ATOM      5  C   UNL     1      48.130   7.080  14.177  0.00  0.00    +0.000 A 
ATOM      6  C   UNL     1      49.003   6.981  15.265  0.00  0.00    +0.000 A 
ENDROOT
BRANCH   1   7
ATOM      7  C   UNL     1      51.258   7.344  16.344  0.00  0.00    +0.000 C 
BRANCH   7  10
ATOM      8  O   UNL     1      50.304   5.658  18.312  0.00  0.00    +0.000 OA
ATOM      9  C   UNL     1      51.143   5.221  17.531  0.00  0.00    +0.000 C 
ATOM     10  N   UNL     1      51.709   5.983  16.526  0.00  0.00    +0.000 N 
ATOM     11  H   UNL     1      52.229   5.541  15.782  0.00  0.00    +0.000 HD
BRANCH   9  12
ATOM     12  C   UNL     1      51.559   3.798  17.625  0.00  0.00    +0.000 A 
ATOM     13  C   UNL     1      50.633   2.810  17.254  0.00  0.00    +0.000 A 
ATOM     14  C   UNL     1      50.965   1.458  17.353  0.00  0.00    +0.000 A 
ATOM     15  C   UNL     1      52.221   1.087  17.834  0.00  0.00    +0.000 A 
ATOM     16  C   UNL     1      53.133   2.070  18.218  0.00  0.00    +0.000 A 
ATOM     17 CL   UNL     1      54.671   1.603  18.837  0.00  0.00    +0.000 Cl
ATOM     18  C   UNL     1      52.814   3.427  18.118  0.00  0.00    +0.000 A 
ENDBRANCH   9  12
ENDBRANCH   7  10
ENDBRANCH   1   7
BRANCH   4  19
ATOM     19  C   UNL     1      47.571   7.809  11.826  0.00  0.00    +0.000 C 
BRANCH  19  20
ATOM     20  N   UNL     1      46.855   6.572  11.627  0.00  0.00    +0.000 N 
ATOM     21  C   UNL     1      45.483   6.524  11.675  0.00  0.00    +0.000 C 
ATOM     22  O   UNL     1      44.798   7.528  11.840  0.00  0.00    +0.000 OA
ATOM     23  H   UNL     1      47.383   5.718  11.756  0.00  0.00    +0.000 HD
BRANCH  21  24
ATOM     24  C   UNL     1      44.871   5.206  11.443  0.00  0.00    +0.000 A 
ATOM     25  C   UNL     1      44.147   4.591  12.453  0.00  0.00    +0.000 A 
ATOM     26  S   UNL     1      43.468   3.093  11.997  0.00  0.00    +0.000 S 
ATOM     27  C   UNL     1      44.163   3.189  10.446  0.00  0.00    +0.000 A 
ATOM     28  N   UNL     1      43.996   2.189   9.540  0.00  0.00    +0.000 NA
ATOM     29  C   UNL     1      44.599   2.382   8.414  0.00  0.00    +0.000 A 
ATOM     30  N   UNL     1      45.353   3.491   8.113  0.00  0.00    +0.000 N 
ATOM     31  C   UNL     1      45.526   4.532   8.986  0.00  0.00    +0.000 A 
ATOM     32  O   UNL     1      46.169   5.530   8.668  0.00  0.00    +0.000 OA
ATOM     33  C   UNL     1      44.881   4.360  10.273  0.00  0.00    +0.000 A 
ATOM     34  H   UNL     1      45.791   3.586   7.209  0.00  0.00    +0.000 HD
ENDBRANCH  21  24
ENDBRANCH  19  20
ENDBRANCH   4  19
TORSDOF 6
ENDMDL
MODEL 7
REMARK VINA RESULT:    -7.360      4.607      8.926
REMARK INTER + INTRA:         -10.583
REMARK INTER:                  -9.413
REMARK INTRA:                  -1.169
REMARK UNBOUND:                -0.641
REMARK  Name = 
REMARK  6 active torsions:
REMARK  status: ('A' for Active; 'I' for Inactive)
REMARK    1  A    between atoms: C_2  and  C_25
REMARK    2  A    between atoms: N_3  and  C_4
REMARK    3  A    between atoms: C_4  and  C_5
REMARK    4  A    between atoms: C_8  and  C_9
REMARK    5  A    between atoms: C_9  and  N_10
REMARK    6  A    between atoms: C_11  and  C_13
REMARK                            x       y       z     vdW  Elec       q    Type
REMARK                         _______ _______ _______ _____ _____    ______ ____
ROOT
ATOM      1  C   UNL     1      49.589   4.576  17.646  0.00  0.00    +0.000 A 
ATOM      2  C   UNL     1      50.347   5.703  17.298  0.00  0.00    +0.000 A 
ATOM      3  C   UNL     1      49.926   6.562  16.275  0.00  0.00    +0.000 A 
ATOM      4  C   UNL     1      48.726   6.322  15.589  0.00  0.00    +0.000 A 
ATOM      5  C   UNL     1      47.973   5.193  15.935  0.00  0.00    +0.000 A 
ATOM      6  C   UNL     1      48.393   4.336  16.958  0.00  0.00    +0.000 A 
ENDROOT
BRANCH   1   7
ATOM      7  C   UNL     1      50.064   3.622  18.711  0.00  0.00    +0.000 C 
BRANCH   7  10
ATOM      8  O   UNL     1      50.767   1.391  17.244  0.00  0.00    +0.000 OA
ATOM      9  C   UNL     1      51.665   2.066  17.739  0.00  0.00    +0.000 C 
ATOM     10  N   UNL     1      51.427   3.186  18.513  0.00  0.00    +0.000 N 
ATOM     11  H   UNL     1      52.177   3.829  18.725  0.00  0.00    +0.000 HD
BRANCH   9  12
ATOM     12  C   UNL     1      53.081   1.706  17.475  0.00  0.00    +0.000 A 
ATOM     13  C   UNL     1      54.061   2.696  17.652  0.00  0.00    +0.000 A 
ATOM     14  C   UNL     1      55.403   2.416  17.388  0.00  0.00    +0.000 A 
ATOM     15  C   UNL     1      55.770   1.149  16.935  0.00  0.00    +0.000 A 
ATOM     16  C   UNL     1      54.792   0.172  16.744  0.00  0.00    +0.000 A 
ATOM     17 CL   UNL     1      55.250  -1.381  16.158  0.00  0.00    +0.000 Cl
ATOM     18  C   UNL     1      53.446   0.439  17.010  0.00  0.00    +0.000 A 
ENDBRANCH   9  12
ENDBRANCH   7  10
ENDBRANCH   1   7
BRANCH   4  19
ATOM     19  C   UNL     1      48.262   7.232  14.475  0.00  0.00    +0.000 C 
BRANCH  19  20
ATOM     20  N   UNL     1      47.020   6.775  13.899  0.00  0.00    +0.000 N 
ATOM     21  C   UNL     1      46.828   6.752  12.539  0.00  0.00    +0.000 C 
ATOM     22  O   UNL     1      47.710   7.070  11.748  0.00  0.00    +0.000 OA
ATOM     23  H   UNL     1      46.213   6.766  14.511  0.00  0.00    +0.000 HD
BRANCH  21  24
ATOM     24  C   UNL     1      45.524   6.253  12.076  0.00  0.00    +0.000 A 
ATOM     25  C   UNL     1      44.599   7.131  11.530  0.00  0.00    +0.000 A 
ATOM     26  S   UNL     1      43.163   6.376  11.002  0.00  0.00    +0.000 S 
ATOM     27  C   UNL     1      43.705   4.852  11.532  0.00  0.00    +0.000 A 
ATOM     28  N   UNL     1      42.923   3.747  11.407  0.00  0.00    +0.000 NA
ATOM     29  C   UNL     1      43.451   2.664  11.873  0.00  0.00    +0.000 A 
ATOM     30  N   UNL     1      44.694   2.587  12.453  0.00  0.00    +0.000 N 
ATOM     31  C   UNL     1      45.524   3.670  12.577  0.00  0.00    +0.000 A 
ATOM     32  O   UNL     1      46.649   3.559  13.059  0.00  0.00    +0.000 OA
ATOM     33  C   UNL     1      44.975   4.917  12.081  0.00  0.00    +0.000 A 
ATOM     34  H   UNL     1      45.053   1.706  12.790  0.00  0.00    +0.000 HD
ENDBRANCH  21  24
ENDBRANCH  19  20
ENDBRANCH   4  19
TORSDOF 6
ENDMDL
MODEL 8
REMARK VINA RESULT:    -7.185      5.836      9.782
REMARK INTER + INTRA:         -10.346
REMARK INTER:                  -9.231
REMARK INTRA:                  -1.115
REMARK UNBOUND:                -0.641
REMARK  Name = 
REMARK  6 active torsions:
REMARK  status: ('A' for Active; 'I' for Inactive)
REMARK    1  A    between atoms: C_2  and  C_25
REMARK    2  A    between atoms: N_3  and  C_4
REMARK    3  A    between atoms: C_4  and  C_5
REMARK    4  A    between atoms: C_8  and  C_9
REMARK    5  A    between atoms: C_9  and  N_10
REMARK    6  A    between atoms: C_11  and  C_13
REMARK                            x       y       z     vdW  Elec       q    Type
REMARK                         _______ _______ _______ _____ _____    ______ ____
ROOT
ATOM      1  C   UNL     1      51.317   2.822  17.766  0.00  0.00    +0.000 A 
ATOM      2  C   UNL     1      50.521   1.887  17.088  0.00  0.00    +0.000 A 
ATOM      3  C   UNL     1      49.183   2.169  16.789  0.00  0.00    +0.000 A 
ATOM      4  C   UNL     1      48.614   3.401  17.145  0.00  0.00    +0.000 A 
ATOM      5  C   UNL     1      49.410   4.332  17.826  0.00  0.00    +0.000 A 
ATOM      6  C   UNL     1      50.748   4.051  18.123  0.00  0.00    +0.000 A 
ENDROOT
BRANCH   1   7
ATOM      7  C   UNL     1      52.743   2.503  18.133  0.00  0.00    +0.000 C 
BRANCH   7  10
ATOM      8  O   UNL     1      55.071   1.528  17.013  0.00  0.00    +0.000 OA
ATOM      9  C   UNL     1      54.263   0.722  17.463  0.00  0.00    +0.000 C 
ATOM     10  N   UNL     1      53.054   1.096  18.021  0.00  0.00    +0.000 N 
ATOM     11  H   UNL     1      52.517   0.436  18.564  0.00  0.00    +0.000 HD
BRANCH   9  12
ATOM     12  C   UNL     1      54.591  -0.726  17.455  0.00  0.00    +0.000 A 
ATOM     13  C   UNL     1      54.918  -1.325  16.228  0.00  0.00    +0.000 A 
ATOM     14  C   UNL     1      55.205  -2.690  16.163  0.00  0.00    +0.000 A 
ATOM     15  C   UNL     1      55.154  -3.464  17.322  0.00  0.00    +0.000 A 
ATOM     16  C   UNL     1      54.813  -2.869  18.537  0.00  0.00    +0.000 A 
ATOM     17 CL   UNL     1      54.727  -3.838  19.958  0.00  0.00    +0.000 Cl
ATOM     18  C   UNL     1      54.529  -1.503  18.615  0.00  0.00    +0.000 A 
ENDBRANCH   9  12
ENDBRANCH   7  10
ENDBRANCH   1   7
BRANCH   4  19
ATOM     19  C   UNL     1      47.169   3.718  16.840  0.00  0.00    +0.000 C 
BRANCH  19  20
ATOM     20  N   UNL     1      47.050   4.696  15.784  0.00  0.00    +0.000 N 
ATOM     21  C   UNL     1      47.090   4.328  14.461  0.00  0.00    +0.000 C 
ATOM     22  O   UNL     1      47.180   3.156  14.109  0.00  0.00    +0.000 OA
ATOM     23  H   UNL     1      47.241   5.658  16.035  0.00  0.00    +0.000 HD
BRANCH  21  24
ATOM     24  C   UNL     1      46.945   5.416  13.481  0.00  0.00    +0.000 A 
ATOM     25  C   UNL     1      45.919   5.376  12.548  0.00  0.00    +0.000 A 
ATOM     26  S   UNL     1      45.870   6.739  11.523  0.00  0.00    +0.000 S 
ATOM     27  C   UNL     1      47.252   7.409  12.257  0.00  0.00    +0.000 A 
ATOM     28  N   UNL     1      47.776   8.586  11.822  0.00  0.00    +0.000 NA
ATOM     29  C   UNL     1      48.838   8.962  12.454  0.00  0.00    +0.000 A 
ATOM     30  N   UNL     1      49.423   8.266  13.484  0.00  0.00    +0.000 N 
ATOM     31  C   UNL     1      48.914   7.090  13.969  0.00  0.00    +0.000 A 
ATOM     32  O   UNL     1      49.435   6.516  14.923  0.00  0.00    +0.000 OA
ATOM     33  C   UNL     1      47.727   6.614  13.286  0.00  0.00    +0.000 A 
ATOM     34  H   UNL     1      50.249   8.621  13.943  0.00  0.00    +0.000 HD
ENDBRANCH  21  24
ENDBRANCH  19  20
ENDBRANCH   4  19
TORSDOF 6
ENDMDL
MODEL 9
REMARK VINA RESULT:    -6.877      2.925      3.710
REMARK INTER + INTRA:          -9.929
REMARK INTER:                  -9.326
REMARK INTRA:                  -0.603
REMARK UNBOUND:                -0.641
REMARK  Name = 
REMARK  6 active torsions:
REMARK  status: ('A' for Active; 'I' for Inactive)
REMARK    1  A    between atoms: C_2  and  C_25
REMARK    2  A    between atoms: N_3  and  C_4
REMARK    3  A    between atoms: C_4  and  C_5
REMARK    4  A    between atoms: C_8  and  C_9
REMARK    5  A    between atoms: C_9  and  N_10
REMARK    6  A    between atoms: C_11  and  C_13
REMARK                            x       y       z     vdW  Elec       q    Type
REMARK                         _______ _______ _______ _____ _____    ______ ____
ROOT
ATOM      1  C   UNL     1      46.056   5.744  12.597  0.00  0.00    +0.000 A 
ATOM      2  C   UNL     1      46.798   6.931  12.681  0.00  0.00    +0.000 A 
ATOM      3  C   UNL     1      47.633   7.178  13.778  0.00  0.00    +0.000 A 
ATOM      4  C   UNL     1      47.760   6.234  14.807  0.00  0.00    +0.000 A 
ATOM      5  C   UNL     1      47.015   5.050  14.723  0.00  0.00    +0.000 A 
ATOM      6  C   UNL     1      46.182   4.802  13.627  0.00  0.00    +0.000 A 
ENDROOT
BRANCH   1   7
ATOM      7  C   UNL     1      45.119   5.496  11.444  0.00  0.00    +0.000 C 
BRANCH   7  10
ATOM      8  O   UNL     1      43.940   3.347  10.173  0.00  0.00    +0.000 OA
ATOM      9  C   UNL     1      45.043   3.718   9.782  0.00  0.00    +0.000 C 
ATOM     10  N   UNL     1      45.736   4.765  10.361  0.00  0.00    +0.000 N 
ATOM     11  H   UNL     1      46.530   5.174   9.890  0.00  0.00    +0.000 HD
BRANCH   9  12
ATOM     12  C   UNL     1      45.665   3.054   8.608  0.00  0.00    +0.000 A 
ATOM     13  C   UNL     1      45.988   3.844   7.493  0.00  0.00    +0.000 A 
ATOM     14  C   UNL     1      46.547   3.262   6.354  0.00  0.00    +0.000 A 
ATOM     15  C   UNL     1      46.774   1.886   6.319  0.00  0.00    +0.000 A 
ATOM     16  C   UNL     1      46.435   1.101   7.422  0.00  0.00    +0.000 A 
ATOM     17 CL   UNL     1      46.694  -0.600   7.361  0.00  0.00    +0.000 Cl
ATOM     18  C   UNL     1      45.881   1.673   8.570  0.00  0.00    +0.000 A 
ENDBRANCH   9  12
ENDBRANCH   7  10
ENDBRANCH   1   7
BRANCH   4  19
ATOM     19  C   UNL     1      48.647   6.488  16.003  0.00  0.00    +0.000 C 
BRANCH  19  20
ATOM     20  N   UNL     1      49.483   5.348  16.297  0.00  0.00    +0.000 N 
ATOM     21  C   UNL     1      49.904   5.081  17.577  0.00  0.00    +0.000 C 
ATOM     22  O   UNL     1      49.558   5.763  18.536  0.00  0.00    +0.000 OA
ATOM     23  H   UNL     1      49.986   4.943  15.517  0.00  0.00    +0.000 HD
BRANCH  21  24
ATOM     24  C   UNL     1      50.740   3.883  17.748  0.00  0.00    +0.000 A 
ATOM     25  C   UNL     1      50.337   2.672  17.204  0.00  0.00    +0.000 A 
ATOM     26  S   UNL     1      51.448   1.402  17.456  0.00  0.00    +0.000 S 
ATOM     27  C   UNL     1      52.486   2.414  18.348  0.00  0.00    +0.000 A 
ATOM     28  N   UNL     1      53.634   1.933  18.894  0.00  0.00    +0.000 NA
ATOM     29  C   UNL     1      54.312   2.805  19.564  0.00  0.00    +0.000 A 
ATOM     30  N   UNL     1      53.943   4.117  19.736  0.00  0.00    +0.000 N 
ATOM     31  C   UNL     1      52.808   4.649  19.182  0.00  0.00    +0.000 A 
ATOM     32  O   UNL     1      52.531   5.839  19.316  0.00  0.00    +0.000 OA
ATOM     33  C   UNL     1      52.002   3.709  18.429  0.00  0.00    +0.000 A 
ATOM     34  H   UNL     1      54.524   4.752  20.264  0.00  0.00    +0.000 HD
ENDBRANCH  21  24
ENDBRANCH  19  20
ENDBRANCH   4  19
TORSDOF 6
ENDMDL
