MODEL 1
REMARK VINA RESULT:    -6.995      0.000      0.000
REMARK INTER + INTRA:         -10.013
REMARK INTER:                  -9.244
REMARK INTRA:                  -0.768
REMARK UNBOUND:                -0.768
REMARK  Name = 
REMARK  6 active torsions:
REMARK  status: ('A' for Active; 'I' for Inactive)
REMARK    1  A    between atoms: N_1  and  C_2
REMARK    2  A    between atoms: C_2  and  C_3
REMARK    3  A    between atoms: C_3  and  C_4
REMARK    4  A    between atoms: C_4  and  C_5
REMARK    5  A    between atoms: N_7  and  C_8
REMARK    6  A    between atoms: C_8  and  C_9
REMARK                            x       y       z     vdW  Elec       q    Type
REMARK                         _______ _______ _______ _____ _____    ______ ____
ROOT
ATOM      1  C   UNL     1      46.013   6.013  11.070  0.00  0.00    +0.000 A 
ATOM      2  C   UNL     1      45.892   5.751   9.719  0.00  0.00    +0.000 A 
ATOM      3  N   UNL     1      44.997   4.726   9.547  0.00  0.00    +0.000 N 
ATOM      4  C   UNL     1      44.518   4.309  10.773  0.00  0.00    +0.000 A 
ATOM      5  C   UNL     1      43.615   3.288  11.115  0.00  0.00    +0.000 A 
ATOM      6  C   UNL     1      43.334   3.078  12.468  0.00  0.00    +0.000 A 
ATOM      7  C   UNL     1      43.928   3.862  13.452  0.00  0.00    +0.000 A 
ATOM      8  C   UNL     1      44.827   4.875  13.102  0.00  0.00    +0.000 A 
ATOM      9  C   UNL     1      45.134   5.106  11.744  0.00  0.00    +0.000 A 
ENDROOT
BRANCH   1  10
ATOM     10  C   UNL     1      46.935   7.022  11.683  0.00  0.00    +0.000 C 
BRANCH  10  11
ATOM     11  C   UNL     1      48.011   6.381  12.561  0.00  0.00    +0.000 C 
BRANCH  11  12
ATOM     12  C   UNL     1      47.907   6.870  14.003  0.00  0.00    +0.000 C 
BRANCH  12  13
ATOM     13  N   UNL     1      47.897   5.736  14.920  0.00  0.00    +0.000 NA
ATOM     14  H   UNL     1      46.986   5.668  15.371  0.00  0.00    +0.000 HD
ATOM     15  H   UNL     1      48.577   5.889  15.664  0.00  0.00    +0.000 HD
ENDBRANCH  12  13
ENDBRANCH  11  12
ENDBRANCH  10  11
ENDBRANCH   1  10
BRANCH   3  16
ATOM     16  C   UNL     1      44.768   4.061   8.268  0.00  0.00    +0.000 C 
BRANCH  16  17
ATOM     17  C   UNL     1      45.809   3.036   7.915  0.00  0.00    +0.000 A 
ATOM     18  C   UNL     1      46.822   3.323   6.993  0.00  0.00    +0.000 A 
ATOM     19  C   UNL     1      47.691   2.316   6.580  0.00  0.00    +0.000 A 
ATOM     20  C   UNL     1      47.524   1.048   7.108  0.00  0.00    +0.000 A 
ATOM     21  N   UNL     1      46.577   0.737   8.016  0.00  0.00    +0.000 NA
ATOM     22  C   UNL     1      45.748   1.734   8.402  0.00  0.00    +0.000 A 
ENDBRANCH  16  17
ENDBRANCH   3  16
TORSDOF 6
ENDMDL
MODEL 2
REMARK VINA RESULT:    -6.649      1.285      5.651
REMARK INTER + INTRA:          -9.555
REMARK INTER:                  -8.941
REMARK INTRA:                  -0.614
REMARK UNBOUND:                -0.768
REMARK  Name = 
REMARK  6 active torsions:
REMARK  status: ('A' for Active; 'I' for Inactive)
REMARK    1  A    between atoms: N_1  and  C_2
REMARK    2  A    between atoms: C_2  and  C_3
REMARK    3  A    between atoms: C_3  and  C_4
REMARK    4  A    between atoms: C_4  and  C_5
REMARK    5  A    between atoms: N_7  and  C_8
REMARK    6  A    between atoms: C_8  and  C_9
REMARK                            x       y       z     vdW  Elec       q    Type
REMARK                         _______ _______ _______ _____ _____    ______ ____
ROOT
ATOM      1  C   UNL     1      45.492   4.220   8.929  0.00  0.00    +0.000 A 
ATOM      2  C   UNL     1      45.991   5.454   9.300  0.00  0.00    +0.000 A 
ATOM      3  N   UNL     1      45.601   5.718  10.588  0.00  0.00    +0.000 N 
ATOM      4  C   UNL     1      44.851   4.667  11.077  0.00  0.00    +0.000 A 
ATOM      5  C   UNL     1      44.216   4.482  12.317  0.00  0.00    +0.000 A 
ATOM      6  C   UNL     1      43.493   3.303  12.521  0.00  0.00    +0.000 A 
ATOM      7  C   UNL     1      43.409   2.334  11.527  0.00  0.00    +0.000 A 
ATOM      8  C   UNL     1      44.044   2.528  10.295  0.00  0.00    +0.000 A 
ATOM      9  C   UNL     1      44.775   3.710  10.058  0.00  0.00    +0.000 A 
ENDROOT
BRANCH   1  10
ATOM     10  C   UNL     1      45.644   3.588   7.579  0.00  0.00    +0.000 C 
BRANCH  10  11
ATOM     11  C   UNL     1      47.108   3.401   7.178  0.00  0.00    +0.000 C 
BRANCH  11  12
ATOM     12  C   UNL     1      47.406   1.939   6.853  0.00  0.00    +0.000 C 
BRANCH  12  13
ATOM     13  N   UNL     1      48.443   1.851   5.831  0.00  0.00    +0.000 NA
ATOM     14  H   UNL     1      49.091   2.631   5.934  0.00  0.00    +0.000 HD
ATOM     15  H   UNL     1      48.025   1.944   4.907  0.00  0.00    +0.000 HD
ENDBRANCH  12  13
ENDBRANCH  11  12
ENDBRANCH  10  11
ENDBRANCH   1  10
BRANCH   3  16
ATOM     16  C   UNL     1      45.786   7.012  11.237  0.00  0.00    +0.000 C 
BRANCH  16  17
ATOM     17  C   UNL     1      47.080   7.139  11.991  0.00  0.00    +0.000 A 
ATOM     18  C   UNL     1      48.127   7.929  11.502  0.00  0.00    +0.000 A 
ATOM     19  C   UNL     1      49.362   7.922  12.145  0.00  0.00    +0.000 A 
ATOM     20  C   UNL     1      49.511   7.127  13.268  0.00  0.00    +0.000 A 
ATOM     21  N   UNL     1      48.522   6.371  13.785  0.00  0.00    +0.000 NA
ATOM     22  C   UNL     1      47.332   6.398  13.142  0.00  0.00    +0.000 A 
ENDBRANCH  16  17
ENDBRANCH   3  16
TORSDOF 6
ENDMDL
MODEL 3
REMARK VINA RESULT:    -6.519      2.155      3.440
REMARK INTER + INTRA:          -9.383
REMARK INTER:                  -8.774
REMARK INTRA:                  -0.609
REMARK UNBOUND:                -0.768
REMARK  Name = 
REMARK  6 active torsions:
REMARK  status: ('A' for Active; 'I' for Inactive)
REMARK    1  A    between atoms: N_1  and  C_2
REMARK    2  A    between atoms: C_2  and  C_3
REMARK    3  A    between atoms: C_3  and  C_4
REMARK    4  A    between atoms: C_4  and  C_5
REMARK    5  A    between atoms: N_7  and  C_8
REMARK    6  A    between atoms: C_8  and  C_9
REMARK                            x       y       z     vdW  Elec       q    Type
REMARK                         _______ _______ _______ _____ _____    ______ ____
ROOT
ATOM      1  C   UNL     1      46.362   5.672  13.308  0.00  0.00    +0.000 A 
ATOM      2  C   UNL     1      45.812   4.684  12.515  0.00  0.00    +0.000 A 
ATOM      3  N   UNL     1      45.011   5.271  11.569  0.00  0.00    +0.000 N 
ATOM      4  C   UNL     1      45.029   6.643  11.724  0.00  0.00    +0.000 A 
ATOM      5  C   UNL     1      44.360   7.663  11.025  0.00  0.00    +0.000 A 
ATOM      6  C   UNL     1      44.559   8.985  11.432  0.00  0.00    +0.000 A 
ATOM      7  C   UNL     1      45.401   9.287  12.496  0.00  0.00    +0.000 A 
ATOM      8  C   UNL     1      46.062   8.266  13.187  0.00  0.00    +0.000 A 
ATOM      9  C   UNL     1      45.877   6.921  12.803  0.00  0.00    +0.000 A 
ENDROOT
BRANCH   1  10
ATOM     10  C   UNL     1      47.250   5.447  14.492  0.00  0.00    +0.000 C 
BRANCH  10  11
ATOM     11  C   UNL     1      47.102   4.044  15.083  0.00  0.00    +0.000 C 
BRANCH  11  12
ATOM     12  C   UNL     1      47.593   4.000  16.527  0.00  0.00    +0.000 C 
BRANCH  12  13
ATOM     13  N   UNL     1      46.637   3.284  17.364  0.00  0.00    +0.000 NA
ATOM     14  H   UNL     1      45.829   3.015  16.805  0.00  0.00    +0.000 HD
ATOM     15  H   UNL     1      46.289   3.902  18.095  0.00  0.00    +0.000 HD
ENDBRANCH  12  13
ENDBRANCH  11  12
ENDBRANCH  10  11
ENDBRANCH   1  10
BRANCH   3  16
ATOM     16  C   UNL     1      44.124   4.522  10.685  0.00  0.00    +0.000 C 
BRANCH  16  17
ATOM     17  C   UNL     1      44.827   3.839   9.546  0.00  0.00    +0.000 A 
ATOM     18  C   UNL     1      44.948   2.445   9.503  0.00  0.00    +0.000 A 
ATOM     19  C   UNL     1      45.721   1.845   8.512  0.00  0.00    +0.000 A 
ATOM     20  C   UNL     1      46.347   2.660   7.586  0.00  0.00    +0.000 A 
ATOM     21  N   UNL     1      46.236   4.003   7.578  0.00  0.00    +0.000 NA
ATOM     22  C   UNL     1      45.478   4.561   8.550  0.00  0.00    +0.000 A 
ENDBRANCH  16  17
ENDBRANCH   3  16
TORSDOF 6
ENDMDL
MODEL 4
REMARK VINA RESULT:    -6.450      1.812      2.320
REMARK INTER + INTRA:          -9.292
REMARK INTER:                  -8.597
REMARK INTRA:                  -0.695
REMARK UNBOUND:                -0.768
REMARK  Name = 
REMARK  6 active torsions:
REMARK  status: ('A' for Active; 'I' for Inactive)
REMARK    1  A    between atoms: N_1  and  C_2
REMARK    2  A    between atoms: C_2  and  C_3
REMARK    3  A    between atoms: C_3  and  C_4
REMARK    4  A    between atoms: C_4  and  C_5
REMARK    5  A    between atoms: N_7  and  C_8
REMARK    6  A    between atoms: C_8  and  C_9
REMARK                            x       y       z     vdW  Elec       q    Type
REMARK                         _______ _______ _______ _____ _____    ______ ____
ROOT
ATOM      1  C   UNL     1      45.219   6.998  12.340  0.00  0.00    +0.000 A 
ATOM      2  C   UNL     1      44.391   6.542  11.333  0.00  0.00    +0.000 A 
ATOM      3  N   UNL     1      44.463   5.173  11.288  0.00  0.00    +0.000 N 
ATOM      4  C   UNL     1      45.328   4.716  12.262  0.00  0.00    +0.000 A 
ATOM      5  C   UNL     1      45.745   3.415  12.592  0.00  0.00    +0.000 A 
ATOM      6  C   UNL     1      46.666   3.259  13.632  0.00  0.00    +0.000 A 
ATOM      7  C   UNL     1      47.153   4.360  14.328  0.00  0.00    +0.000 A 
ATOM      8  C   UNL     1      46.733   5.652  13.991  0.00  0.00    +0.000 A 
ATOM      9  C   UNL     1      45.808   5.841  12.942  0.00  0.00    +0.000 A 
ENDROOT
BRANCH   1  10
ATOM     10  C   UNL     1      45.469   8.435  12.680  0.00  0.00    +0.000 C 
BRANCH  10  11
ATOM     11  C   UNL     1      46.823   8.933  12.173  0.00  0.00    +0.000 C 
BRANCH  11  12
ATOM     12  C   UNL     1      47.817   9.088  13.322  0.00  0.00    +0.000 C 
BRANCH  12  13
ATOM     13  N   UNL     1      47.111   9.122  14.598  0.00  0.00    +0.000 NA
ATOM     14  H   UNL     1      46.339   9.785  14.544  0.00  0.00    +0.000 HD
ATOM     15  H   UNL     1      47.734   9.464  15.327  0.00  0.00    +0.000 HD
ENDBRANCH  12  13
ENDBRANCH  11  12
ENDBRANCH  10  11
ENDBRANCH   1  10
BRANCH   3  16
ATOM     16  C   UNL     1      43.870   4.369  10.225  0.00  0.00    +0.000 C 
BRANCH  16  17
ATOM     17  C   UNL     1      44.873   3.695   9.332  0.00  0.00    +0.000 A 
ATOM     18  C   UNL     1      45.634   4.431   8.416  0.00  0.00    +0.000 A 
ATOM     19  C   UNL     1      46.455   3.770   7.506  0.00  0.00    +0.000 A 
ATOM     20  C   UNL     1      46.497   2.388   7.544  0.00  0.00    +0.000 A 
ATOM     21  N   UNL     1      45.800   1.644   8.425  0.00  0.00    +0.000 NA
ATOM     22  C   UNL     1      45.011   2.311   9.300  0.00  0.00    +0.000 A 
ENDBRANCH  16  17
ENDBRANCH   3  16
TORSDOF 6
ENDMDL
MODEL 5
REMARK VINA RESULT:    -6.334      2.317      4.281
REMARK INTER + INTRA:          -9.139
REMARK INTER:                  -8.492
REMARK INTRA:                  -0.647
REMARK UNBOUND:                -0.768
REMARK  Name = 
REMARK  6 active torsions:
REMARK  status: ('A' for Active; 'I' for Inactive)
REMARK    1  A    between atoms: N_1  and  C_2
REMARK    2  A    between atoms: C_2  and  C_3
REMARK    3  A    between atoms: C_3  and  C_4
REMARK    4  A    between atoms: C_4  and  C_5
REMARK    5  A    between atoms: N_7  and  C_8
REMARK    6  A    between atoms: C_8  and  C_9
REMARK                            x       y       z     vdW  Elec       q    Type
REMARK                         _______ _______ _______ _____ _____    ______ ____
ROOT
ATOM      1  C   UNL     1      46.847   4.891  14.347  0.00  0.00    +0.000 A 
ATOM      2  C   UNL     1      45.771   4.514  13.567  0.00  0.00    +0.000 A 
ATOM      3  N   UNL     1      45.783   5.251  12.411  0.00  0.00    +0.000 N 
ATOM      4  C   UNL     1      46.863   6.111  12.414  0.00  0.00    +0.000 A 
ATOM      5  C   UNL     1      47.284   7.072  11.477  0.00  0.00    +0.000 A 
ATOM      6  C   UNL     1      48.424   7.825  11.769  0.00  0.00    +0.000 A 
ATOM      7  C   UNL     1      49.130   7.628  12.950  0.00  0.00    +0.000 A 
ATOM      8  C   UNL     1      48.703   6.670  13.878  0.00  0.00    +0.000 A 
ATOM      9  C   UNL     1      47.552   5.899  13.613  0.00  0.00    +0.000 A 
ENDROOT
BRANCH   1  10
ATOM     10  C   UNL     1      47.161   4.365  15.714  0.00  0.00    +0.000 C 
BRANCH  10  11
ATOM     11  C   UNL     1      47.754   2.955  15.681  0.00  0.00    +0.000 C 
BRANCH  11  12
ATOM     12  C   UNL     1      48.864   2.803  16.718  0.00  0.00    +0.000 C 
BRANCH  12  13
ATOM     13  N   UNL     1      49.821   1.790  16.286  0.00  0.00    +0.000 NA
ATOM     14  H   UNL     1      50.402   1.511  17.075  0.00  0.00    +0.000 HD
ATOM     15  H   UNL     1      50.450   2.186  15.590  0.00  0.00    +0.000 HD
ENDBRANCH  12  13
ENDBRANCH  11  12
ENDBRANCH  10  11
ENDBRANCH   1  10
BRANCH   3  16
ATOM     16  C   UNL     1      44.690   5.253  11.444  0.00  0.00    +0.000 C 
BRANCH  16  17
ATOM     17  C   UNL     1      44.948   4.413  10.225  0.00  0.00    +0.000 A 
ATOM     18  C   UNL     1      44.718   3.033  10.237  0.00  0.00    +0.000 A 
ATOM     19  C   UNL     1      45.094   2.256   9.144  0.00  0.00    +0.000 A 
ATOM     20  C   UNL     1      45.685   2.888   8.064  0.00  0.00    +0.000 A 
ATOM     21  N   UNL     1      45.902   4.216   8.003  0.00  0.00    +0.000 NA
ATOM     22  C   UNL     1      45.526   4.948   9.077  0.00  0.00    +0.000 A 
ENDBRANCH  16  17
ENDBRANCH   3  16
TORSDOF 6
ENDMDL
MODEL 6
REMARK VINA RESULT:    -5.908      2.405      6.145
REMARK INTER + INTRA:          -8.575
REMARK INTER:                  -8.054
REMARK INTRA:                  -0.521
REMARK UNBOUND:                -0.768
REMARK  Name = 
REMARK  6 active torsions:
REMARK  status: ('A' for Active; 'I' for Inactive)
REMARK    1  A    between atoms: N_1  and  C_2
REMARK    2  A    between atoms: C_2  and  C_3
REMARK    3  A    between atoms: C_3  and  C_4
REMARK    4  A    between atoms: C_4  and  C_5
REMARK    5  A    between atoms: N_7  and  C_8
REMARK    6  A    between atoms: C_8  and  C_9
REMARK                            x       y       z     vdW  Elec       q    Type
REMARK                         _______ _______ _______ _____ _____    ______ ____
ROOT
ATOM      1  C   UNL     1      45.336   4.554   9.331  0.00  0.00    +0.000 A 
ATOM      2  C   UNL     1      46.034   5.685   9.710  0.00  0.00    +0.000 A 
ATOM      3  N   UNL     1      45.820   5.908  11.047  0.00  0.00    +0.000 N 
ATOM      4  C   UNL     1      44.991   4.930  11.560  0.00  0.00    +0.000 A 
ATOM      5  C   UNL     1      44.470   4.743  12.852  0.00  0.00    +0.000 A 
ATOM      6  C   UNL     1      43.621   3.655  13.072  0.00  0.00    +0.000 A 
ATOM      7  C   UNL     1      43.302   2.776  12.043  0.00  0.00    +0.000 A 
ATOM      8  C   UNL     1      43.824   2.971  10.759  0.00  0.00    +0.000 A 
ATOM      9  C   UNL     1      44.680   4.064  10.505  0.00  0.00    +0.000 A 
ENDROOT
BRANCH   1  10
ATOM     10  C   UNL     1      45.259   4.002   7.941  0.00  0.00    +0.000 C 
BRANCH  10  11
ATOM     11  C   UNL     1      46.604   3.470   7.443  0.00  0.00    +0.000 C 
BRANCH  11  12
ATOM     12  C   UNL     1      46.727   1.969   7.692  0.00  0.00    +0.000 C 
BRANCH  12  13
ATOM     13  N   UNL     1      47.816   1.414   6.896  0.00  0.00    +0.000 NA
ATOM     14  H   UNL     1      47.926   0.424   7.111  0.00  0.00    +0.000 HD
ATOM     15  H   UNL     1      48.693   1.863   7.152  0.00  0.00    +0.000 HD
ENDBRANCH  12  13
ENDBRANCH  11  12
ENDBRANCH  10  11
ENDBRANCH   1  10
BRANCH   3  16
ATOM     16  C   UNL     1      46.246   7.118  11.740  0.00  0.00    +0.000 C 
BRANCH  16  17
ATOM     17  C   UNL     1      45.252   8.244  11.677  0.00  0.00    +0.000 A 
ATOM     18  C   UNL     1      44.045   8.103  10.982  0.00  0.00    +0.000 A 
ATOM     19  C   UNL     1      43.205   9.202  10.821  0.00  0.00    +0.000 A 
ATOM     20  C   UNL     1      43.595  10.412  11.368  0.00  0.00    +0.000 A 
ATOM     21  N   UNL     1      44.736  10.583  12.064  0.00  0.00    +0.000 NA
ATOM     22  C   UNL     1      45.534   9.499  12.208  0.00  0.00    +0.000 A 
ENDBRANCH  16  17
ENDBRANCH   3  16
TORSDOF 6
ENDMDL
MODEL 7
REMARK VINA RESULT:    -5.479      3.223      5.660
REMARK INTER + INTRA:          -8.009
REMARK INTER:                  -7.458
REMARK INTRA:                  -0.551
REMARK UNBOUND:                -0.768
REMARK  Name = 
REMARK  6 active torsions:
REMARK  status: ('A' for Active; 'I' for Inactive)
REMARK    1  A    between atoms: N_1  and  C_2
REMARK    2  A    between atoms: C_2  and  C_3
REMARK    3  A    between atoms: C_3  and  C_4
REMARK    4  A    between atoms: C_4  and  C_5
REMARK    5  A    between atoms: N_7  and  C_8
REMARK    6  A    between atoms: C_8  and  C_9
REMARK                            x       y       z     vdW  Elec       q    Type
REMARK                         _______ _______ _______ _____ _____    ______ ____
ROOT
ATOM      1  C   UNL     1      46.566   4.640  13.662  0.00  0.00    +0.000 A 
ATOM      2  C   UNL     1      46.854   5.991  13.644  0.00  0.00    +0.000 A 
ATOM      3  N   UNL     1      46.186   6.571  12.596  0.00  0.00    +0.000 N 
ATOM      4  C   UNL     1      45.453   5.616  11.920  0.00  0.00    +0.000 A 
ATOM      5  C   UNL     1      44.637   5.712  10.779  0.00  0.00    +0.000 A 
ATOM      6  C   UNL     1      44.030   4.548  10.300  0.00  0.00    +0.000 A 
ATOM      7  C   UNL     1      44.221   3.327  10.936  0.00  0.00    +0.000 A 
ATOM      8  C   UNL     1      45.037   3.241  12.070  0.00  0.00    +0.000 A 
ATOM      9  C   UNL     1      45.667   4.397  12.574  0.00  0.00    +0.000 A 
ENDROOT
BRANCH   1  10
ATOM     10  C   UNL     1      47.140   3.638  14.616  0.00  0.00    +0.000 C 
BRANCH  10  11
ATOM     11  C   UNL     1      47.471   4.245  15.980  0.00  0.00    +0.000 C 
BRANCH  11  12
ATOM     12  C   UNL     1      47.813   3.158  16.996  0.00  0.00    +0.000 C 
BRANCH  12  13
ATOM     13  N   UNL     1      46.630   2.802  17.771  0.00  0.00    +0.000 NA
ATOM     14  H   UNL     1      46.439   1.807  17.664  0.00  0.00    +0.000 HD
ATOM     15  H   UNL     1      45.817   3.293  17.403  0.00  0.00    +0.000 HD
ENDBRANCH  12  13
ENDBRANCH  11  12
ENDBRANCH  10  11
ENDBRANCH   1  10
BRANCH   3  16
ATOM     16  C   UNL     1      46.407   7.946  12.161  0.00  0.00    +0.000 C 
BRANCH  16  17
ATOM     17  C   UNL     1      47.849   8.371  12.178  0.00  0.00    +0.000 A 
ATOM     18  C   UNL     1      48.810   7.696  11.418  0.00  0.00    +0.000 A 
ATOM     19  C   UNL     1      50.157   8.019  11.555  0.00  0.00    +0.000 A 
ATOM     20  C   UNL     1      50.504   9.017  12.449  0.00  0.00    +0.000 A 
ATOM     21  N   UNL     1      49.608   9.707  13.182  0.00  0.00    +0.000 NA
ATOM     22  C   UNL     1      48.305   9.375  13.027  0.00  0.00    +0.000 A 
ENDBRANCH  16  17
ENDBRANCH   3  16
TORSDOF 6
ENDMDL
MODEL 8
REMARK VINA RESULT:    -5.080      3.516      6.632
REMARK INTER + INTRA:          -7.482
REMARK INTER:                  -6.804
REMARK INTRA:                  -0.678
REMARK UNBOUND:                -0.768
REMARK  Name = 
REMARK  6 active torsions:
REMARK  status: ('A' for Active; 'I' for Inactive)
REMARK    1  A    between atoms: N_1  and  C_2
REMARK    2  A    between atoms: C_2  and  C_3
REMARK    3  A    between atoms: C_3  and  C_4
REMARK    4  A    between atoms: C_4  and  C_5
REMARK    5  A    between atoms: N_7  and  C_8
REMARK    6  A    between atoms: C_8  and  C_9
REMARK                            x       y       z     vdW  Elec       q    Type
REMARK                         _______ _______ _______ _____ _____    ______ ____
ROOT
ATOM      1  C   UNL     1      46.451   4.821  13.166  0.00  0.00    +0.000 A 
ATOM      2  C   UNL     1      46.744   5.996  12.501  0.00  0.00    +0.000 A 
ATOM      3  N   UNL     1      47.571   6.755  13.289  0.00  0.00    +0.000 N 
ATOM      4  C   UNL     1      47.834   6.090  14.471  0.00  0.00    +0.000 A 
ATOM      5  C   UNL     1      48.595   6.462  15.592  0.00  0.00    +0.000 A 
ATOM      6  C   UNL     1      48.661   5.577  16.671  0.00  0.00    +0.000 A 
ATOM      7  C   UNL     1      47.996   4.356  16.636  0.00  0.00    +0.000 A 
ATOM      8  C   UNL     1      47.239   3.994  15.516  0.00  0.00    +0.000 A 
ATOM      9  C   UNL     1      47.150   4.870  14.414  0.00  0.00    +0.000 A 
ENDROOT
BRANCH   1  10
ATOM     10  C   UNL     1      45.534   3.744  12.672  0.00  0.00    +0.000 C 
BRANCH  10  11
ATOM     11  C   UNL     1      44.057   4.089  12.874  0.00  0.00    +0.000 C 
BRANCH  11  12
ATOM     12  C   UNL     1      43.223   3.656  11.671  0.00  0.00    +0.000 C 
BRANCH  12  13
ATOM     13  N   UNL     1      43.039   2.209  11.681  0.00  0.00    +0.000 NA
ATOM     14  H   UNL     1      42.113   1.980  11.323  0.00  0.00    +0.000 HD
ATOM     15  H   UNL     1      43.071   1.864  12.638  0.00  0.00    +0.000 HD
ENDBRANCH  12  13
ENDBRANCH  11  12
ENDBRANCH  10  11
ENDBRANCH   1  10
BRANCH   3  16
ATOM     16  C   UNL     1      47.927   8.137  12.988  0.00  0.00    +0.000 C 
BRANCH  16  17
ATOM     17  C   UNL     1      49.350   8.320  12.541  0.00  0.00    +0.000 A 
ATOM     18  C   UNL     1      49.816   7.738  11.357  0.00  0.00    +0.000 A 
ATOM     19  C   UNL     1      51.169   7.806  11.035  0.00  0.00    +0.000 A 
ATOM     20  C   UNL     1      52.018   8.464  11.908  0.00  0.00    +0.000 A 
ATOM     21  N   UNL     1      51.606   9.058  13.045  0.00  0.00    +0.000 NA
ATOM     22  C   UNL     1      50.286   8.979  13.333  0.00  0.00    +0.000 A 
ENDBRANCH  16  17
ENDBRANCH   3  16
TORSDOF 6
ENDMDL
MODEL 9
REMARK VINA RESULT:    -4.993      2.940      5.975
REMARK INTER + INTRA:          -7.367
REMARK INTER:                  -6.954
REMARK INTRA:                  -0.413
REMARK UNBOUND:                -0.768
REMARK  Name = 
REMARK  6 active torsions:
REMARK  status: ('A' for Active; 'I' for Inactive)
REMARK    1  A    between atoms: N_1  and  C_2
REMARK    2  A    between atoms: C_2  and  C_3
REMARK    3  A    between atoms: C_3  and  C_4
REMARK    4  A    between atoms: C_4  and  C_5
REMARK    5  A    between atoms: N_7  and  C_8
REMARK    6  A    between atoms: C_8  and  C_9
REMARK                            x       y       z     vdW  Elec       q    Type
REMARK                         _______ _______ _______ _____ _____    ______ ____
ROOT
ATOM      1  C   UNL     1      47.450   4.846  15.653  0.00  0.00    +0.000 A 
ATOM      2  C   UNL     1      46.782   4.766  14.447  0.00  0.00    +0.000 A 
ATOM      3  N   UNL     1      47.289   5.716  13.598  0.00  0.00    +0.000 N 
ATOM      4  C   UNL     1      48.294   6.422  14.228  0.00  0.00    +0.000 A 
ATOM      5  C   UNL     1      49.089   7.494  13.788  0.00  0.00    +0.000 A 
ATOM      6  C   UNL     1      50.027   8.031  14.674  0.00  0.00    +0.000 A 
ATOM      7  C   UNL     1      50.176   7.515  15.957  0.00  0.00    +0.000 A 
ATOM      8  C   UNL     1      49.380   6.448  16.387  0.00  0.00    +0.000 A 
ATOM      9  C   UNL     1      48.421   5.889  15.517  0.00  0.00    +0.000 A 
ENDROOT
BRANCH   1  10
ATOM     10  C   UNL     1      47.158   4.021  16.869  0.00  0.00    +0.000 C 
BRANCH  10  11
ATOM     11  C   UNL     1      48.357   3.181  17.313  0.00  0.00    +0.000 C 
BRANCH  11  12
ATOM     12  C   UNL     1      48.629   2.048  16.328  0.00  0.00    +0.000 C 
BRANCH  12  13
ATOM     13  N   UNL     1      50.059   1.767  16.266  0.00  0.00    +0.000 NA
ATOM     14  H   UNL     1      50.482   1.945  17.175  0.00  0.00    +0.000 HD
ATOM     15  H   UNL     1      50.507   2.404  15.609  0.00  0.00    +0.000 HD
ENDBRANCH  12  13
ENDBRANCH  11  12
ENDBRANCH  10  11
ENDBRANCH   1  10
BRANCH   3  16
ATOM     16  C   UNL     1      46.694   6.045  12.307  0.00  0.00    +0.000 C 
BRANCH  16  17
ATOM     17  C   UNL     1      45.376   5.369  12.050  0.00  0.00    +0.000 A 
ATOM     18  C   UNL     1      44.196   5.839  12.639  0.00  0.00    +0.000 A 
ATOM     19  C   UNL     1      43.014   5.117  12.497  0.00  0.00    +0.000 A 
ATOM     20  C   UNL     1      43.045   3.945  11.761  0.00  0.00    +0.000 A 
ATOM     21  N   UNL     1      44.154   3.472  11.158  0.00  0.00    +0.000 NA
ATOM     22  C   UNL     1      45.289   4.193  11.310  0.00  0.00    +0.000 A 
ENDBRANCH  16  17
ENDBRANCH   3  16
TORSDOF 6
ENDMDL
