MODEL 1
REMARK VINA RESULT:    -8.173      0.000      0.000
REMARK INTER + INTRA:         -10.646
REMARK INTER:                 -10.084
REMARK INTRA:                  -0.562
REMARK UNBOUND:                -0.562
REMARK  Name = 
REMARK  5 active torsions:
REMARK  status: ('A' for Active; 'I' for Inactive)
REMARK    1  A    between atoms: C_1  and  C_2
REMARK    2  A    between atoms: C_2  and  O_3
REMARK    3  A    between atoms: C_2  and  C_13
REMARK    4  A    between atoms: O_3  and  C_4
REMARK    5  A    between atoms: C_7  and  C_8
REMARK                            x       y       z     vdW  Elec       q    Type
REMARK                         _______ _______ _______ _____ _____    ______ ____
ROOT
ATOM      1  C   UNL     1      44.530   3.842   9.304  0.00  0.00    +0.000 A 
ATOM      2  C   UNL     1      45.441   4.371   8.393  0.00  0.00    +0.000 A 
ATOM      3  C   UNL     1      46.321   3.525   7.716  0.00  0.00    +0.000 A 
ATOM      4  C   UNL     1      46.267   2.166   7.993  0.00  0.00    +0.000 A 
ATOM      5  N   UNL     1      45.409   1.612   8.894  0.00  0.00    +0.000 NA
ATOM      6  C   UNL     1      44.570   2.470   9.529  0.00  0.00    +0.000 A 
ENDROOT
BRANCH   4   7
ATOM      7  C   UNL     1      47.193   1.227   7.281  0.00  0.00    +0.000 C 
ATOM      8  N   UNL     1      48.281   1.807   6.687  0.00  0.00    +0.000 N 
ATOM      9  O   UNL     1      46.997   0.019   7.225  0.00  0.00    +0.000 OA
ATOM     10  H   UNL     1      48.405   2.812   6.739  0.00  0.00    +0.000 HD
ATOM     11  H   UNL     1      48.930   1.234   6.169  0.00  0.00    +0.000 HD
ENDBRANCH   4   7
BRANCH   1  12
ATOM     12  O   UNL     1      43.695   4.743   9.903  0.00  0.00    +0.000 OA
BRANCH  12  14
ATOM     13  C   UNL     1      42.340   5.510  11.782  0.00  0.00    +0.000 C 
ATOM     14  C   UNL     1      43.538   4.670  11.331  0.00  0.00    +0.000 C 
BRANCH  14  15
ATOM     15  C   UNL     1      44.803   5.182  12.011  0.00  0.00    +0.000 A 
ATOM     16  C   UNL     1      45.480   6.291  11.470  0.00  0.00    +0.000 A 
ATOM     17  C   UNL     1      46.659   6.766  12.048  0.00  0.00    +0.000 A 
ATOM     18  C   UNL     1      47.185   6.137  13.175  0.00  0.00    +0.000 A 
ATOM     19  C   UNL     1      46.529   5.032  13.715  0.00  0.00    +0.000 A 
ATOM     20 CL   UNL     1      47.187   4.250  15.100  0.00  0.00    +0.000 Cl
ATOM     21  C   UNL     1      45.351   4.553  13.139  0.00  0.00    +0.000 A 
ENDBRANCH  14  15
ENDBRANCH  12  14
ENDBRANCH   1  12
TORSDOF 4
ENDMDL
MODEL 2
REMARK VINA RESULT:    -8.136      1.173      1.597
REMARK INTER + INTRA:         -10.600
REMARK INTER:                  -9.944
REMARK INTRA:                  -0.656
REMARK UNBOUND:                -0.562
REMARK  Name = 
REMARK  5 active torsions:
REMARK  status: ('A' for Active; 'I' for Inactive)
REMARK    1  A    between atoms: C_1  and  C_2
REMARK    2  A    between atoms: C_2  and  O_3
REMARK    3  A    between atoms: C_2  and  C_13
REMARK    4  A    between atoms: O_3  and  C_4
REMARK    5  A    between atoms: C_7  and  C_8
REMARK                            x       y       z     vdW  Elec       q    Type
REMARK                         _______ _______ _______ _____ _____    ______ ____
ROOT
ATOM      1  C   UNL     1      44.459   3.789   9.295  0.00  0.00    +0.000 A 
ATOM      2  C   UNL     1      45.332   4.331   8.356  0.00  0.00    +0.000 A 
ATOM      3  C   UNL     1      46.226   3.504   7.675  0.00  0.00    +0.000 A 
ATOM      4  C   UNL     1      46.225   2.149   7.977  0.00  0.00    +0.000 A 
ATOM      5  N   UNL     1      45.406   1.583   8.906  0.00  0.00    +0.000 NA
ATOM      6  C   UNL     1      44.551   2.423   9.544  0.00  0.00    +0.000 A 
ENDROOT
BRANCH   4   7
ATOM      7  C   UNL     1      47.167   1.229   7.262  0.00  0.00    +0.000 C 
ATOM      8  N   UNL     1      48.275   1.822   6.721  0.00  0.00    +0.000 N 
ATOM      9  O   UNL     1      46.968   0.025   7.160  0.00  0.00    +0.000 OA
ATOM     10  H   UNL     1      48.402   2.825   6.810  0.00  0.00    +0.000 HD
ATOM     11  H   UNL     1      48.938   1.264   6.204  0.00  0.00    +0.000 HD
ENDBRANCH   4   7
BRANCH   1  12
ATOM     12  O   UNL     1      43.606   4.672   9.896  0.00  0.00    +0.000 OA
BRANCH  12  14
ATOM     13  C   UNL     1      42.326   5.513  11.796  0.00  0.00    +0.000 C 
ATOM     14  C   UNL     1      43.472   4.612  11.327  0.00  0.00    +0.000 C 
BRANCH  14  15
ATOM     15  C   UNL     1      44.773   5.063  11.982  0.00  0.00    +0.000 A 
ATOM     16  C   UNL     1      45.419   4.212  12.898  0.00  0.00    +0.000 A 
ATOM     17  C   UNL     1      46.594   4.607  13.541  0.00  0.00    +0.000 A 
ATOM     18  C   UNL     1      47.142   5.861  13.283  0.00  0.00    +0.000 A 
ATOM     19  C   UNL     1      46.507   6.717  12.385  0.00  0.00    +0.000 A 
ATOM     20 CL   UNL     1      47.179   8.271  12.076  0.00  0.00    +0.000 Cl
ATOM     21  C   UNL     1      45.331   6.328  11.741  0.00  0.00    +0.000 A 
ENDBRANCH  14  15
ENDBRANCH  12  14
ENDBRANCH   1  12
TORSDOF 4
ENDMDL
MODEL 3
REMARK VINA RESULT:    -6.947      3.518      6.003
REMARK INTER + INTRA:          -9.133
REMARK INTER:                  -9.774
REMARK INTRA:                   0.641
REMARK UNBOUND:                -0.562
REMARK  Name = 
REMARK  5 active torsions:
REMARK  status: ('A' for Active; 'I' for Inactive)
REMARK    1  A    between atoms: C_1  and  C_2
REMARK    2  A    between atoms: C_2  and  O_3
REMARK    3  A    between atoms: C_2  and  C_13
REMARK    4  A    between atoms: O_3  and  C_4
REMARK    5  A    between atoms: C_7  and  C_8
REMARK                            x       y       z     vdW  Elec       q    Type
REMARK                         _______ _______ _______ _____ _____    ______ ____
ROOT
ATOM      1  C   UNL     1      45.248   5.058  11.665  0.00  0.00    +0.000 A 
ATOM      2  C   UNL     1      46.388   5.842  11.825  0.00  0.00    +0.000 A 
ATOM      3  C   UNL     1      47.135   5.755  13.000  0.00  0.00    +0.000 A 
ATOM      4  C   UNL     1      46.698   4.887  13.992  0.00  0.00    +0.000 A 
ATOM      5  N   UNL     1      45.577   4.122  13.886  0.00  0.00    +0.000 NA
ATOM      6  C   UNL     1      44.880   4.237  12.726  0.00  0.00    +0.000 A 
ENDROOT
BRANCH   4   7
ATOM      7  C   UNL     1      47.479   4.763  15.265  0.00  0.00    +0.000 C 
ATOM      8  N   UNL     1      46.971   3.887  16.186  0.00  0.00    +0.000 N 
ATOM      9  O   UNL     1      48.502   5.401  15.480  0.00  0.00    +0.000 OA
ATOM     10  H   UNL     1      46.113   3.387  15.983  0.00  0.00    +0.000 HD
ATOM     11  H   UNL     1      47.434   3.775  17.075  0.00  0.00    +0.000 HD
ENDBRANCH   4   7
BRANCH   1  12
ATOM     12  O   UNL     1      44.593   5.195  10.474  0.00  0.00    +0.000 OA
BRANCH  12  14
ATOM     13  C   UNL     1      43.763   2.933  10.865  0.00  0.00    +0.000 C 
ATOM     14  C   UNL     1      44.116   4.002   9.826  0.00  0.00    +0.000 C 
BRANCH  14  15
ATOM     15  C   UNL     1      45.191   3.465   8.889  0.00  0.00    +0.000 A 
ATOM     16  C   UNL     1      45.924   4.360   8.089  0.00  0.00    +0.000 A 
ATOM     17  C   UNL     1      46.893   3.899   7.195  0.00  0.00    +0.000 A 
ATOM     18  C   UNL     1      47.143   2.534   7.081  0.00  0.00    +0.000 A 
ATOM     19  C   UNL     1      46.417   1.635   7.860  0.00  0.00    +0.000 A 
ATOM     20 CL   UNL     1      46.718  -0.053   7.710  0.00  0.00    +0.000 Cl
ATOM     21  C   UNL     1      45.445   2.091   8.754  0.00  0.00    +0.000 A 
ENDBRANCH  14  15
ENDBRANCH  12  14
ENDBRANCH   1  12
TORSDOF 4
ENDMDL
MODEL 4
REMARK VINA RESULT:    -6.789      3.860      6.492
REMARK INTER + INTRA:          -8.938
REMARK INTER:                  -8.326
REMARK INTRA:                  -0.613
REMARK UNBOUND:                -0.562
REMARK  Name = 
REMARK  5 active torsions:
REMARK  status: ('A' for Active; 'I' for Inactive)
REMARK    1  A    between atoms: C_1  and  C_2
REMARK    2  A    between atoms: C_2  and  O_3
REMARK    3  A    between atoms: C_2  and  C_13
REMARK    4  A    between atoms: O_3  and  C_4
REMARK    5  A    between atoms: C_7  and  C_8
REMARK                            x       y       z     vdW  Elec       q    Type
REMARK                         _______ _______ _______ _____ _____    ______ ____
ROOT
ATOM      1  C   UNL     1      45.396   5.374  11.838  0.00  0.00    +0.000 A 
ATOM      2  C   UNL     1      44.406   6.177  11.278  0.00  0.00    +0.000 A 
ATOM      3  C   UNL     1      44.446   7.560  11.455  0.00  0.00    +0.000 A 
ATOM      4  C   UNL     1      45.481   8.094  12.212  0.00  0.00    +0.000 A 
ATOM      5  N   UNL     1      46.454   7.343  12.797  0.00  0.00    +0.000 NA
ATOM      6  C   UNL     1      46.378   6.002  12.599  0.00  0.00    +0.000 A 
ENDROOT
BRANCH   4   7
ATOM      7  C   UNL     1      45.560   9.576  12.418  0.00  0.00    +0.000 C 
ATOM      8  N   UNL     1      46.807  10.068  12.694  0.00  0.00    +0.000 N 
ATOM      9  O   UNL     1      44.581  10.308  12.350  0.00  0.00    +0.000 OA
ATOM     10  H   UNL     1      47.595   9.433  12.759  0.00  0.00    +0.000 HD
ATOM     11  H   UNL     1      46.926  11.055  12.870  0.00  0.00    +0.000 HD
ENDBRANCH   4   7
BRANCH   1  12
ATOM     12  O   UNL     1      45.286   4.034  11.595  0.00  0.00    +0.000 OA
BRANCH  12  14
ATOM     13  C   UNL     1      43.545   2.430  10.998  0.00  0.00    +0.000 C 
ATOM     14  C   UNL     1      44.404   3.612  10.539  0.00  0.00    +0.000 C 
BRANCH  14  15
ATOM     15  C   UNL     1      45.225   3.200   9.322  0.00  0.00    +0.000 A 
ATOM     16  C   UNL     1      45.627   4.178   8.394  0.00  0.00    +0.000 A 
ATOM     17  C   UNL     1      46.351   3.832   7.251  0.00  0.00    +0.000 A 
ATOM     18  C   UNL     1      46.682   2.500   7.013  0.00  0.00    +0.000 A 
ATOM     19  C   UNL     1      46.282   1.520   7.920  0.00  0.00    +0.000 A 
ATOM     20 CL   UNL     1      46.682  -0.127   7.618  0.00  0.00    +0.000 Cl
ATOM     21  C   UNL     1      45.556   1.861   9.063  0.00  0.00    +0.000 A 
ENDBRANCH  14  15
ENDBRANCH  12  14
ENDBRANCH   1  12
TORSDOF 4
ENDMDL
MODEL 5
REMARK VINA RESULT:    -6.582      4.092      6.220
REMARK INTER + INTRA:          -8.683
REMARK INTER:                  -8.046
REMARK INTRA:                  -0.637
REMARK UNBOUND:                -0.562
REMARK  Name = 
REMARK  5 active torsions:
REMARK  status: ('A' for Active; 'I' for Inactive)
REMARK    1  A    between atoms: C_1  and  C_2
REMARK    2  A    between atoms: C_2  and  O_3
REMARK    3  A    between atoms: C_2  and  C_13
REMARK    4  A    between atoms: O_3  and  C_4
REMARK    5  A    between atoms: C_7  and  C_8
REMARK                            x       y       z     vdW  Elec       q    Type
REMARK                         _______ _______ _______ _____ _____    ______ ____
ROOT
ATOM      1  C   UNL     1      46.351   5.768  12.538  0.00  0.00    +0.000 A 
ATOM      2  C   UNL     1      46.747   6.771  11.657  0.00  0.00    +0.000 A 
ATOM      3  C   UNL     1      47.970   7.416  11.839  0.00  0.00    +0.000 A 
ATOM      4  C   UNL     1      48.754   7.042  12.923  0.00  0.00    +0.000 A 
ATOM      5  N   UNL     1      48.393   6.085  13.821  0.00  0.00    +0.000 NA
ATOM      6  C   UNL     1      47.196   5.481  13.606  0.00  0.00    +0.000 A 
ENDROOT
BRANCH   4   7
ATOM      7  C   UNL     1      50.077   7.709  13.148  0.00  0.00    +0.000 C 
ATOM      8  N   UNL     1      50.648   7.491  14.372  0.00  0.00    +0.000 N 
ATOM      9  O   UNL     1      50.618   8.409  12.301  0.00  0.00    +0.000 OA
ATOM     10  H   UNL     1      50.165   6.919  15.057  0.00  0.00    +0.000 HD
ATOM     11  H   UNL     1      51.526   7.932  14.598  0.00  0.00    +0.000 HD
ENDBRANCH   4   7
BRANCH   1  12
ATOM     12  O   UNL     1      45.148   5.178  12.268  0.00  0.00    +0.000 OA
BRANCH  12  14
ATOM     13  C   UNL     1      43.008   5.659  11.198  0.00  0.00    +0.000 C 
ATOM     14  C   UNL     1      44.517   5.480  11.010  0.00  0.00    +0.000 C 
BRANCH  14  15
ATOM     15  C   UNL     1      44.776   4.347  10.024  0.00  0.00    +0.000 A 
ATOM     16  C   UNL     1      44.305   3.053  10.315  0.00  0.00    +0.000 A 
ATOM     17  C   UNL     1      44.553   1.986   9.449  0.00  0.00    +0.000 A 
ATOM     18  C   UNL     1      45.281   2.191   8.279  0.00  0.00    +0.000 A 
ATOM     19  C   UNL     1      45.761   3.466   7.984  0.00  0.00    +0.000 A 
ATOM     20 CL   UNL     1      46.669   3.717   6.543  0.00  0.00    +0.000 Cl
ATOM     21  C   UNL     1      45.517   4.537   8.847  0.00  0.00    +0.000 A 
ENDBRANCH  14  15
ENDBRANCH  12  14
ENDBRANCH   1  12
TORSDOF 4
ENDMDL
MODEL 6
REMARK VINA RESULT:    -6.562      3.941      6.370
REMARK INTER + INTRA:          -8.659
REMARK INTER:                  -8.056
REMARK INTRA:                  -0.603
REMARK UNBOUND:                -0.562
REMARK  Name = 
REMARK  5 active torsions:
REMARK  status: ('A' for Active; 'I' for Inactive)
REMARK    1  A    between atoms: C_1  and  C_2
REMARK    2  A    between atoms: C_2  and  O_3
REMARK    3  A    between atoms: C_2  and  C_13
REMARK    4  A    between atoms: O_3  and  C_4
REMARK    5  A    between atoms: C_7  and  C_8
REMARK                            x       y       z     vdW  Elec       q    Type
REMARK                         _______ _______ _______ _____ _____    ______ ____
ROOT
ATOM      1  C   UNL     1      45.971   4.765  12.693  0.00  0.00    +0.000 A 
ATOM      2  C   UNL     1      45.342   5.964  12.369  0.00  0.00    +0.000 A 
ATOM      3  C   UNL     1      45.928   7.178  12.729  0.00  0.00    +0.000 A 
ATOM      4  C   UNL     1      47.128   7.146  13.426  0.00  0.00    +0.000 A 
ATOM      5  N   UNL     1      47.763   5.996  13.784  0.00  0.00    +0.000 NA
ATOM      6  C   UNL     1      47.160   4.837  13.413  0.00  0.00    +0.000 A 
ENDROOT
BRANCH   4   7
ATOM      7  C   UNL     1      47.790   8.430  13.824  0.00  0.00    +0.000 C 
ATOM      8  N   UNL     1      47.411   8.938  15.037  0.00  0.00    +0.000 N 
ATOM      9  O   UNL     1      48.613   8.998  13.118  0.00  0.00    +0.000 OA
ATOM     10  H   UNL     1      46.714   8.450  15.590  0.00  0.00    +0.000 HD
ATOM     11  H   UNL     1      47.799   9.814  15.354  0.00  0.00    +0.000 HD
ENDBRANCH   4   7
BRANCH   1  12
ATOM     12  O   UNL     1      45.334   3.628  12.282  0.00  0.00    +0.000 OA
BRANCH  12  14
ATOM     13  C   UNL     1      43.255   2.738  11.364  0.00  0.00    +0.000 C 
ATOM     14  C   UNL     1      44.405   3.734  11.189  0.00  0.00    +0.000 C 
BRANCH  14  15
ATOM     15  C   UNL     1      45.125   3.452   9.875  0.00  0.00    +0.000 A 
ATOM     16  C   UNL     1      45.427   4.518   9.007  0.00  0.00    +0.000 A 
ATOM     17  C   UNL     1      46.056   4.291   7.781  0.00  0.00    +0.000 A 
ATOM     18  C   UNL     1      46.391   2.994   7.399  0.00  0.00    +0.000 A 
ATOM     19  C   UNL     1      46.089   1.929   8.245  0.00  0.00    +0.000 A 
ATOM     20 CL   UNL     1      46.493   0.326   7.766  0.00  0.00    +0.000 Cl
ATOM     21  C   UNL     1      45.458   2.150   9.471  0.00  0.00    +0.000 A 
ENDBRANCH  14  15
ENDBRANCH  12  14
ENDBRANCH   1  12
TORSDOF 4
ENDMDL
MODEL 7
REMARK VINA RESULT:    -5.964      4.332      6.611
REMARK INTER + INTRA:          -7.920
REMARK INTER:                  -7.313
REMARK INTRA:                  -0.607
REMARK UNBOUND:                -0.562
REMARK  Name = 
REMARK  5 active torsions:
REMARK  status: ('A' for Active; 'I' for Inactive)
REMARK    1  A    between atoms: C_1  and  C_2
REMARK    2  A    between atoms: C_2  and  O_3
REMARK    3  A    between atoms: C_2  and  C_13
REMARK    4  A    between atoms: O_3  and  C_4
REMARK    5  A    between atoms: C_7  and  C_8
REMARK                            x       y       z     vdW  Elec       q    Type
REMARK                         _______ _______ _______ _____ _____    ______ ____
ROOT
ATOM      1  C   UNL     1      45.822   6.575  12.403  0.00  0.00    +0.000 A 
ATOM      2  C   UNL     1      47.179   6.259  12.368  0.00  0.00    +0.000 A 
ATOM      3  C   UNL     1      48.133   7.267  12.507  0.00  0.00    +0.000 A 
ATOM      4  C   UNL     1      47.689   8.574  12.660  0.00  0.00    +0.000 A 
ATOM      5  N   UNL     1      46.374   8.928  12.674  0.00  0.00    +0.000 NA
ATOM      6  C   UNL     1      45.479   7.916  12.537  0.00  0.00    +0.000 A 
ENDROOT
BRANCH   4   7
ATOM      7  C   UNL     1      48.685   9.682  12.818  0.00  0.00    +0.000 C 
ATOM      8  N   UNL     1      48.276  10.740  13.584  0.00  0.00    +0.000 N 
ATOM      9  O   UNL     1      49.793   9.655  12.298  0.00  0.00    +0.000 OA
ATOM     10  H   UNL     1      47.345  10.737  13.987  0.00  0.00    +0.000 HD
ATOM     11  H   UNL     1      48.889  11.531  13.709  0.00  0.00    +0.000 HD
ENDBRANCH   4   7
BRANCH   1  12
ATOM     12  O   UNL     1      44.962   5.520  12.279  0.00  0.00    +0.000 OA
BRANCH  12  14
ATOM     13  C   UNL     1      42.625   5.269  11.623  0.00  0.00    +0.000 C 
ATOM     14  C   UNL     1      44.063   5.512  11.156  0.00  0.00    +0.000 C 
BRANCH  14  15
ATOM     15  C   UNL     1      44.473   4.415  10.180  0.00  0.00    +0.000 A 
ATOM     16  C   UNL     1      44.058   3.091  10.412  0.00  0.00    +0.000 A 
ATOM     17  C   UNL     1      44.443   2.056   9.557  0.00  0.00    +0.000 A 
ATOM     18  C   UNL     1      45.255   2.326   8.458  0.00  0.00    +0.000 A 
ATOM     19  C   UNL     1      45.682   3.632   8.223  0.00  0.00    +0.000 A 
ATOM     20 CL   UNL     1      46.694   3.963   6.870  0.00  0.00    +0.000 Cl
ATOM     21  C   UNL     1      45.301   4.670   9.076  0.00  0.00    +0.000 A 
ENDBRANCH  14  15
ENDBRANCH  12  14
ENDBRANCH   1  12
TORSDOF 4
ENDMDL
MODEL 8
REMARK VINA RESULT:    -5.720      3.781      5.844
REMARK INTER + INTRA:          -7.620
REMARK INTER:                  -7.075
REMARK INTRA:                  -0.544
REMARK UNBOUND:                -0.562
REMARK  Name = 
REMARK  5 active torsions:
REMARK  status: ('A' for Active; 'I' for Inactive)
REMARK    1  A    between atoms: C_1  and  C_2
REMARK    2  A    between atoms: C_2  and  O_3
REMARK    3  A    between atoms: C_2  and  C_13
REMARK    4  A    between atoms: O_3  and  C_4
REMARK    5  A    between atoms: C_7  and  C_8
REMARK                            x       y       z     vdW  Elec       q    Type
REMARK                         _______ _______ _______ _____ _____    ______ ____
ROOT
ATOM      1  C   UNL     1      47.061   5.481  13.147  0.00  0.00    +0.000 A 
ATOM      2  C   UNL     1      46.437   6.163  12.106  0.00  0.00    +0.000 A 
ATOM      3  C   UNL     1      45.189   5.743  11.646  0.00  0.00    +0.000 A 
ATOM      4  C   UNL     1      44.611   4.630  12.242  0.00  0.00    +0.000 A 
ATOM      5  N   UNL     1      45.198   3.920  13.245  0.00  0.00    +0.000 NA
ATOM      6  C   UNL     1      46.411   4.364  13.663  0.00  0.00    +0.000 A 
ENDROOT
BRANCH   4   7
ATOM      7  C   UNL     1      43.268   4.153  11.778  0.00  0.00    +0.000 C 
ATOM      8  N   UNL     1      42.269   5.088  11.800  0.00  0.00    +0.000 N 
ATOM      9  O   UNL     1      43.066   3.005  11.405  0.00  0.00    +0.000 OA
ATOM     10  H   UNL     1      42.467   6.027  12.129  0.00  0.00    +0.000 HD
ATOM     11  H   UNL     1      41.335   4.826  11.524  0.00  0.00    +0.000 HD
ENDBRANCH   4   7
BRANCH   1  12
ATOM     12  O   UNL     1      48.271   5.977  13.544  0.00  0.00    +0.000 OA
BRANCH  12  14
ATOM     13  C   UNL     1      48.980   8.207  14.237  0.00  0.00    +0.000 C 
ATOM     14  C   UNL     1      48.291   6.902  14.646  0.00  0.00    +0.000 C 
BRANCH  14  15
ATOM     15  C   UNL     1      49.036   6.281  15.822  0.00  0.00    +0.000 A 
ATOM     16  C   UNL     1      50.352   6.691  16.104  0.00  0.00    +0.000 A 
ATOM     17  C   UNL     1      51.075   6.119  17.152  0.00  0.00    +0.000 A 
ATOM     18  C   UNL     1      50.497   5.122  17.936  0.00  0.00    +0.000 A 
ATOM     19  C   UNL     1      49.198   4.700  17.661  0.00  0.00    +0.000 A 
ATOM     20 CL   UNL     1      48.489   3.460  18.622  0.00  0.00    +0.000 Cl
ATOM     21  C   UNL     1      48.471   5.267  16.612  0.00  0.00    +0.000 A 
ENDBRANCH  14  15
ENDBRANCH  12  14
ENDBRANCH   1  12
TORSDOF 4
ENDMDL
MODEL 9
REMARK VINA RESULT:    -5.622      3.557      5.429
REMARK INTER + INTRA:          -7.499
REMARK INTER:                  -6.929
REMARK INTRA:                  -0.569
REMARK UNBOUND:                -0.562
REMARK  Name = 
REMARK  5 active torsions:
REMARK  status: ('A' for Active; 'I' for Inactive)
REMARK    1  A    between atoms: C_1  and  C_2
REMARK    2  A    between atoms: C_2  and  O_3
REMARK    3  A    between atoms: C_2  and  C_13
REMARK    4  A    between atoms: O_3  and  C_4
REMARK    5  A    between atoms: C_7  and  C_8
REMARK                            x       y       z     vdW  Elec       q    Type
REMARK                         _______ _______ _______ _____ _____    ______ ____
ROOT
ATOM      1  C   UNL     1      46.350   5.922  12.918  0.00  0.00    +0.000 A 
ATOM      2  C   UNL     1      45.864   6.139  11.631  0.00  0.00    +0.000 A 
ATOM      3  C   UNL     1      45.121   5.148  10.990  0.00  0.00    +0.000 A 
ATOM      4  C   UNL     1      44.903   3.953  11.662  0.00  0.00    +0.000 A 
ATOM      5  N   UNL     1      45.380   3.691  12.910  0.00  0.00    +0.000 NA
ATOM      6  C   UNL     1      46.098   4.682  13.498  0.00  0.00    +0.000 A 
ENDROOT
BRANCH   4   7
ATOM      7  C   UNL     1      44.104   2.868  11.007  0.00  0.00    +0.000 C 
ATOM      8  N   UNL     1      44.697   2.265   9.932  0.00  0.00    +0.000 N 
ATOM      9  O   UNL     1      42.991   2.537  11.397  0.00  0.00    +0.000 OA
ATOM     10  H   UNL     1      45.614   2.574   9.625  0.00  0.00    +0.000 HD
ATOM     11  H   UNL     1      44.203   1.544   9.429  0.00  0.00    +0.000 HD
ENDBRANCH   4   7
BRANCH   1  12
ATOM     12  O   UNL     1      47.049   6.956  13.474  0.00  0.00    +0.000 OA
BRANCH  12  14
ATOM     13  C   UNL     1      49.127   6.948  14.755  0.00  0.00    +0.000 C 
ATOM     14  C   UNL     1      48.484   6.935  13.365  0.00  0.00    +0.000 C 
BRANCH  14  15
ATOM     15  C   UNL     1      48.954   8.151  12.575  0.00  0.00    +0.000 A 
ATOM     16  C   UNL     1      48.052   9.198  12.312  0.00  0.00    +0.000 A 
ATOM     17  C   UNL     1      48.440  10.311  11.563  0.00  0.00    +0.000 A 
ATOM     18  C   UNL     1      49.736  10.395  11.060  0.00  0.00    +0.000 A 
ATOM     19  C   UNL     1      50.637   9.359  11.305  0.00  0.00    +0.000 A 
ATOM     20 CL   UNL     1      52.235   9.459  10.672  0.00  0.00    +0.000 Cl
ATOM     21  C   UNL     1      50.253   8.243  12.051  0.00  0.00    +0.000 A 
ENDBRANCH  14  15
ENDBRANCH  12  14
ENDBRANCH   1  12
TORSDOF 4
ENDMDL
