MODEL 1
REMARK VINA RESULT:    -6.996      0.000      0.000
REMARK INTER + INTRA:          -9.464
REMARK INTER:                  -8.837
REMARK INTRA:                  -0.628
REMARK UNBOUND:                -0.628
REMARK  Name = 
REMARK  5 active torsions:
REMARK  status: ('A' for Active; 'I' for Inactive)
REMARK    1  A    between atoms: N_1  and  C_2
REMARK    2  A    between atoms: C_2  and  C_3
REMARK    3  A    between atoms: C_7  and  C_8
REMARK    4  A    between atoms: C_8  and  N_9
REMARK    5  A    between atoms: C_14  and  C_15
REMARK                            x       y       z     vdW  Elec       q    Type
REMARK                         _______ _______ _______ _____ _____    ______ ____
ROOT
ATOM      1  N   UNL     1      44.647   5.142  10.649  0.00  0.00    +0.000 N 
ATOM      2  C   UNL     1      43.948   4.189  11.352  0.00  0.00    +0.000 A 
ATOM      3  C   UNL     1      44.122   2.978  10.717  0.00  0.00    +0.000 A 
ATOM      4  C   UNL     1      44.962   3.197   9.592  0.00  0.00    +0.000 A 
ATOM      5  C   UNL     1      45.473   2.395   8.553  0.00  0.00    +0.000 A 
ATOM      6  C   UNL     1      46.288   3.005   7.593  0.00  0.00    +0.000 A 
ATOM      7  C   UNL     1      46.579   4.359   7.740  0.00  0.00    +0.000 A 
ATOM      8  N   UNL     1      46.126   5.168   8.732  0.00  0.00    +0.000 NA
ATOM      9  C   UNL     1      45.309   4.545   9.604  0.00  0.00    +0.000 A 
ENDROOT
BRANCH   6  10
ATOM     10  C   UNL     1      46.848   2.305   6.413  0.00  0.00    +0.000 C 
ATOM     11  N   UNL     1      47.096   3.022   5.277  0.00  0.00    +0.000 N 
ATOM     12  O   UNL     1      47.100   1.102   6.443  0.00  0.00    +0.000 OA
ATOM     13  H   UNL     1      46.940   4.013   5.168  0.00  0.00    +0.000 HD
ATOM     14  H   UNL     1      47.504   2.521   4.499  0.00  0.00    +0.000 HD
ENDBRANCH   6  10
BRANCH   1  15
ATOM     15  C   UNL     1      44.719   6.552  11.003  0.00  0.00    +0.000 C 
BRANCH  15  20
ATOM     16  C   UNL     1      47.667   7.356  11.803  0.00  0.00    +0.000 C 
ATOM     17  C   UNL     1      47.425   8.838  12.141  0.00  0.00    +0.000 C 
ATOM     18  C   UNL     1      45.957   9.238  12.070  0.00  0.00    +0.000 C 
ATOM     19  C   UNL     1      45.071   8.297  12.880  0.00  0.00    +0.000 C 
ATOM     20  C   UNL     1      45.226   6.835  12.438  0.00  0.00    +0.000 C 
ATOM     21  C   UNL     1      46.708   6.437  12.592  0.00  0.00    +0.000 C 
BRANCH  16  22
ATOM     22  C   UNL     1      49.147   7.018  12.060  0.00  0.00    +0.000 C 
BRANCH  22  23
ATOM     23  N   UNL     1      49.399   6.651  13.447  0.00  0.00    +0.000 NA
ATOM     24  H   UNL     1      50.025   7.339  13.869  0.00  0.00    +0.000 HD
ATOM     25  H   UNL     1      49.891   5.758  13.485  0.00  0.00    +0.000 HD
ENDBRANCH  22  23
ENDBRANCH  16  22
ENDBRANCH  15  20
ENDBRANCH   1  15
TORSDOF 5
ENDMDL
MODEL 2
REMARK VINA RESULT:    -6.660      4.827      8.097
REMARK INTER + INTRA:          -9.040
REMARK INTER:                  -8.598
REMARK INTRA:                  -0.442
REMARK UNBOUND:                -0.628
REMARK  Name = 
REMARK  5 active torsions:
REMARK  status: ('A' for Active; 'I' for Inactive)
REMARK    1  A    between atoms: N_1  and  C_2
REMARK    2  A    between atoms: C_2  and  C_3
REMARK    3  A    between atoms: C_7  and  C_8
REMARK    4  A    between atoms: C_8  and  N_9
REMARK    5  A    between atoms: C_14  and  C_15
REMARK                            x       y       z     vdW  Elec       q    Type
REMARK                         _______ _______ _______ _____ _____    ______ ____
ROOT
ATOM      1  N   UNL     1      47.097   5.043  14.082  0.00  0.00    +0.000 N 
ATOM      2  C   UNL     1      47.704   6.214  13.695  0.00  0.00    +0.000 A 
ATOM      3  C   UNL     1      48.444   6.682  14.761  0.00  0.00    +0.000 A 
ATOM      4  C   UNL     1      48.288   5.762  15.832  0.00  0.00    +0.000 A 
ATOM      5  C   UNL     1      48.746   5.687  17.163  0.00  0.00    +0.000 A 
ATOM      6  C   UNL     1      48.353   4.587  17.931  0.00  0.00    +0.000 A 
ATOM      7  C   UNL     1      47.565   3.609  17.327  0.00  0.00    +0.000 A 
ATOM      8  N   UNL     1      47.115   3.628  16.047  0.00  0.00    +0.000 NA
ATOM      9  C   UNL     1      47.481   4.730  15.363  0.00  0.00    +0.000 A 
ENDROOT
BRANCH   6  10
ATOM     10  C   UNL     1      48.706   4.402  19.358  0.00  0.00    +0.000 C 
ATOM     11  N   UNL     1      48.345   3.241  19.982  0.00  0.00    +0.000 N 
ATOM     12  O   UNL     1      49.321   5.264  19.982  0.00  0.00    +0.000 OA
ATOM     13  H   UNL     1      47.857   2.473  19.546  0.00  0.00    +0.000 HD
ATOM     14  H   UNL     1      48.624   3.134  20.948  0.00  0.00    +0.000 HD
ENDBRANCH   6  10
BRANCH   1  15
ATOM     15  C   UNL     1      46.231   4.235  13.235  0.00  0.00    +0.000 C 
BRANCH  15  20
ATOM     16  C   UNL     1      44.953   3.864  10.371  0.00  0.00    +0.000 C 
ATOM     17  C   UNL     1      43.692   3.079  10.775  0.00  0.00    +0.000 C 
ATOM     18  C   UNL     1      43.537   2.924  12.282  0.00  0.00    +0.000 C 
ATOM     19  C   UNL     1      43.655   4.261  13.006  0.00  0.00    +0.000 C 
ATOM     20  C   UNL     1      44.980   4.971  12.697  0.00  0.00    +0.000 C 
ATOM     21  C   UNL     1      45.074   5.179  11.171  0.00  0.00    +0.000 C 
BRANCH  16  22
ATOM     22  C   UNL     1      44.930   4.102   8.850  0.00  0.00    +0.000 C 
BRANCH  22  23
ATOM     23  N   UNL     1      45.876   5.129   8.436  0.00  0.00    +0.000 NA
ATOM     24  H   UNL     1      45.379   6.013   8.309  0.00  0.00    +0.000 HD
ATOM     25  H   UNL     1      46.269   4.891   7.525  0.00  0.00    +0.000 HD
ENDBRANCH  22  23
ENDBRANCH  16  22
ENDBRANCH  15  20
ENDBRANCH   1  15
TORSDOF 5
ENDMDL
MODEL 3
REMARK VINA RESULT:    -6.096      3.990      6.047
REMARK INTER + INTRA:          -8.327
REMARK INTER:                  -7.715
REMARK INTRA:                  -0.612
REMARK UNBOUND:                -0.628
REMARK  Name = 
REMARK  5 active torsions:
REMARK  status: ('A' for Active; 'I' for Inactive)
REMARK    1  A    between atoms: N_1  and  C_2
REMARK    2  A    between atoms: C_2  and  C_3
REMARK    3  A    between atoms: C_7  and  C_8
REMARK    4  A    between atoms: C_8  and  N_9
REMARK    5  A    between atoms: C_14  and  C_15
REMARK                            x       y       z     vdW  Elec       q    Type
REMARK                         _______ _______ _______ _____ _____    ______ ____
ROOT
ATOM      1  N   UNL     1      48.046   6.847  14.177  0.00  0.00    +0.000 N 
ATOM      2  C   UNL     1      47.581   8.087  13.808  0.00  0.00    +0.000 A 
ATOM      3  C   UNL     1      46.457   7.906  13.029  0.00  0.00    +0.000 A 
ATOM      4  C   UNL     1      46.225   6.508  12.926  0.00  0.00    +0.000 A 
ATOM      5  C   UNL     1      45.282   5.696  12.263  0.00  0.00    +0.000 A 
ATOM      6  C   UNL     1      45.397   4.309  12.405  0.00  0.00    +0.000 A 
ATOM      7  C   UNL     1      46.409   3.811  13.223  0.00  0.00    +0.000 A 
ATOM      8  N   UNL     1      47.326   4.552  13.895  0.00  0.00    +0.000 NA
ATOM      9  C   UNL     1      47.203   5.878  13.689  0.00  0.00    +0.000 A 
ENDROOT
BRANCH   6  10
ATOM     10  C   UNL     1      44.519   3.330  11.723  0.00  0.00    +0.000 C 
ATOM     11  N   UNL     1      43.843   2.413  12.477  0.00  0.00    +0.000 N 
ATOM     12  O   UNL     1      44.381   3.336  10.501  0.00  0.00    +0.000 OA
ATOM     13  H   UNL     1      43.879   2.345  13.484  0.00  0.00    +0.000 HD
ATOM     14  H   UNL     1      43.231   1.775  11.985  0.00  0.00    +0.000 HD
ENDBRANCH   6  10
BRANCH   1  15
ATOM     15  C   UNL     1      49.216   6.611  15.010  0.00  0.00    +0.000 C 
BRANCH  15  20
ATOM     16  C   UNL     1      48.900   4.323  17.164  0.00  0.00    +0.000 C 
ATOM     17  C   UNL     1      50.262   4.470  17.867  0.00  0.00    +0.000 C 
ATOM     18  C   UNL     1      51.082   5.645  17.349  0.00  0.00    +0.000 C 
ATOM     19  C   UNL     1      50.278   6.941  17.345  0.00  0.00    +0.000 C 
ATOM     20  C   UNL     1      48.985   6.817  16.526  0.00  0.00    +0.000 C 
ATOM     21  C   UNL     1      48.144   5.668  17.120  0.00  0.00    +0.000 C 
BRANCH  16  22
ATOM     22  C   UNL     1      48.091   3.217  17.866  0.00  0.00    +0.000 C 
BRANCH  22  23
ATOM     23  N   UNL     1      46.679   3.254  17.510  0.00  0.00    +0.000 NA
ATOM     24  H   UNL     1      46.389   4.226  17.384  0.00  0.00    +0.000 HD
ATOM     25  H   UNL     1      46.118   2.888  18.281  0.00  0.00    +0.000 HD
ENDBRANCH  22  23
ENDBRANCH  16  22
ENDBRANCH  15  20
ENDBRANCH   1  15
TORSDOF 5
ENDMDL
MODEL 4
REMARK VINA RESULT:    -5.708      4.537      6.157
REMARK INTER + INTRA:          -7.837
REMARK INTER:                  -7.401
REMARK INTRA:                  -0.437
REMARK UNBOUND:                -0.628
REMARK  Name = 
REMARK  5 active torsions:
REMARK  status: ('A' for Active; 'I' for Inactive)
REMARK    1  A    between atoms: N_1  and  C_2
REMARK    2  A    between atoms: C_2  and  C_3
REMARK    3  A    between atoms: C_7  and  C_8
REMARK    4  A    between atoms: C_8  and  N_9
REMARK    5  A    between atoms: C_14  and  C_15
REMARK                            x       y       z     vdW  Elec       q    Type
REMARK                         _______ _______ _______ _____ _____    ______ ____
ROOT
ATOM      1  N   UNL     1      47.516   5.535  14.597  0.00  0.00    +0.000 N 
ATOM      2  C   UNL     1      48.134   6.680  14.152  0.00  0.00    +0.000 A 
ATOM      3  C   UNL     1      47.658   6.955  12.887  0.00  0.00    +0.000 A 
ATOM      4  C   UNL     1      46.714   5.948  12.553  0.00  0.00    +0.000 A 
ATOM      5  C   UNL     1      45.922   5.653  11.425  0.00  0.00    +0.000 A 
ATOM      6  C   UNL     1      45.094   4.526  11.480  0.00  0.00    +0.000 A 
ATOM      7  C   UNL     1      45.070   3.785  12.659  0.00  0.00    +0.000 A 
ATOM      8  N   UNL     1      45.798   4.039  13.776  0.00  0.00    +0.000 NA
ATOM      9  C   UNL     1      46.614   5.105  13.655  0.00  0.00    +0.000 A 
ENDROOT
BRANCH   6  10
ATOM     10  C   UNL     1      44.253   4.058  10.355  0.00  0.00    +0.000 C 
ATOM     11  N   UNL     1      44.346   4.697   9.151  0.00  0.00    +0.000 N 
ATOM     12  O   UNL     1      43.484   3.106  10.482  0.00  0.00    +0.000 OA
ATOM     13  H   UNL     1      44.961   5.472   8.948  0.00  0.00    +0.000 HD
ATOM     14  H   UNL     1      43.779   4.337   8.395  0.00  0.00    +0.000 HD
ENDBRANCH   6  10
BRANCH   1  15
ATOM     15  C   UNL     1      47.745   4.917  15.895  0.00  0.00    +0.000 C 
BRANCH  15  20
ATOM     16  C   UNL     1      47.780   5.550  18.989  0.00  0.00    +0.000 C 
ATOM     17  C   UNL     1      48.688   4.397  19.457  0.00  0.00    +0.000 C 
ATOM     18  C   UNL     1      49.244   3.567  18.307  0.00  0.00    +0.000 C 
ATOM     19  C   UNL     1      49.901   4.440  17.243  0.00  0.00    +0.000 C 
ATOM     20  C   UNL     1      48.939   5.500  16.690  0.00  0.00    +0.000 C 
ATOM     21  C   UNL     1      48.450   6.371  17.866  0.00  0.00    +0.000 C 
BRANCH  16  22
ATOM     22  C   UNL     1      47.405   6.417  20.205  0.00  0.00    +0.000 C 
BRANCH  22  23
ATOM     23  N   UNL     1      48.567   7.050  20.814  0.00  0.00    +0.000 NA
ATOM     24  H   UNL     1      49.395   6.847  20.250  0.00  0.00    +0.000 HD
ATOM     25  H   UNL     1      48.742   6.642  21.732  0.00  0.00    +0.000 HD
ENDBRANCH  22  23
ENDBRANCH  16  22
ENDBRANCH  15  20
ENDBRANCH   1  15
TORSDOF 5
ENDMDL
MODEL 5
REMARK VINA RESULT:    -5.553      3.247      6.627
REMARK INTER + INTRA:          -7.642
REMARK INTER:                  -7.169
REMARK INTRA:                  -0.473
REMARK UNBOUND:                -0.628
REMARK  Name = 
REMARK  5 active torsions:
REMARK  status: ('A' for Active; 'I' for Inactive)
REMARK    1  A    between atoms: N_1  and  C_2
REMARK    2  A    between atoms: C_2  and  C_3
REMARK    3  A    between atoms: C_7  and  C_8
REMARK    4  A    between atoms: C_8  and  N_9
REMARK    5  A    between atoms: C_14  and  C_15
REMARK                            x       y       z     vdW  Elec       q    Type
REMARK                         _______ _______ _______ _____ _____    ______ ____
ROOT
ATOM      1  N   UNL     1      45.919   7.482  12.492  0.00  0.00    +0.000 N 
ATOM      2  C   UNL     1      45.227   8.659  12.326  0.00  0.00    +0.000 A 
ATOM      3  C   UNL     1      46.145   9.664  12.103  0.00  0.00    +0.000 A 
ATOM      4  C   UNL     1      47.440   9.080  12.127  0.00  0.00    +0.000 A 
ATOM      5  C   UNL     1      48.758   9.562  12.002  0.00  0.00    +0.000 A 
ATOM      6  C   UNL     1      49.805   8.639  12.095  0.00  0.00    +0.000 A 
ATOM      7  C   UNL     1      49.485   7.294  12.267  0.00  0.00    +0.000 A 
ATOM      8  N   UNL     1      48.233   6.780  12.374  0.00  0.00    +0.000 NA
ATOM      9  C   UNL     1      47.263   7.714  12.326  0.00  0.00    +0.000 A 
ENDROOT
BRANCH   6  10
ATOM     10  C   UNL     1      51.240   9.003  12.042  0.00  0.00    +0.000 C 
ATOM     11  N   UNL     1      52.173   8.057  12.359  0.00  0.00    +0.000 N 
ATOM     12  O   UNL     1      51.603  10.131  11.711  0.00  0.00    +0.000 OA
ATOM     13  H   UNL     1      51.971   7.104  12.622  0.00  0.00    +0.000 HD
ATOM     14  H   UNL     1      53.145   8.329  12.287  0.00  0.00    +0.000 HD
ENDBRANCH   6  10
BRANCH   1  15
ATOM     15  C   UNL     1      45.307   6.186  12.742  0.00  0.00    +0.000 C 
BRANCH  15  20
ATOM     16  C   UNL     1      44.534   3.894  10.711  0.00  0.00    +0.000 C 
ATOM     17  C   UNL     1      43.652   3.041  11.641  0.00  0.00    +0.000 C 
ATOM     18  C   UNL     1      43.439   3.671  13.011  0.00  0.00    +0.000 C 
ATOM     19  C   UNL     1      42.958   5.114  12.904  0.00  0.00    +0.000 C 
ATOM     20  C   UNL     1      43.920   5.985  12.084  0.00  0.00    +0.000 C 
ATOM     21  C   UNL     1      44.059   5.363  10.679  0.00  0.00    +0.000 C 
BRANCH  16  22
ATOM     22  C   UNL     1      44.554   3.253   9.311  0.00  0.00    +0.000 C 
BRANCH  22  23
ATOM     23  N   UNL     1      44.673   1.802   9.369  0.00  0.00    +0.000 NA
ATOM     24  H   UNL     1      44.414   1.408   8.462  0.00  0.00    +0.000 HD
ATOM     25  H   UNL     1      44.005   1.427  10.043  0.00  0.00    +0.000 HD
ENDBRANCH  22  23
ENDBRANCH  16  22
ENDBRANCH  15  20
ENDBRANCH   1  15
TORSDOF 5
ENDMDL
MODEL 6
REMARK VINA RESULT:    -5.447      1.696      2.580
REMARK INTER + INTRA:          -7.508
REMARK INTER:                  -7.568
REMARK INTRA:                   0.060
REMARK UNBOUND:                -0.628
REMARK  Name = 
REMARK  5 active torsions:
REMARK  status: ('A' for Active; 'I' for Inactive)
REMARK    1  A    between atoms: N_1  and  C_2
REMARK    2  A    between atoms: C_2  and  C_3
REMARK    3  A    between atoms: C_7  and  C_8
REMARK    4  A    between atoms: C_8  and  N_9
REMARK    5  A    between atoms: C_14  and  C_15
REMARK                            x       y       z     vdW  Elec       q    Type
REMARK                         _______ _______ _______ _____ _____    ______ ____
ROOT
ATOM      1  N   UNL     1      44.485   4.424  10.385  0.00  0.00    +0.000 N 
ATOM      2  C   UNL     1      43.886   3.325  10.955  0.00  0.00    +0.000 A 
ATOM      3  C   UNL     1      44.286   2.209  10.252  0.00  0.00    +0.000 A 
ATOM      4  C   UNL     1      45.165   2.639   9.222  0.00  0.00    +0.000 A 
ATOM      5  C   UNL     1      45.867   2.008   8.175  0.00  0.00    +0.000 A 
ATOM      6  C   UNL     1      46.650   2.807   7.335  0.00  0.00    +0.000 A 
ATOM      7  C   UNL     1      46.724   4.172   7.604  0.00  0.00    +0.000 A 
ATOM      8  N   UNL     1      46.082   4.821   8.609  0.00  0.00    +0.000 NA
ATOM      9  C   UNL     1      45.305   4.017   9.360  0.00  0.00    +0.000 A 
ENDROOT
BRANCH   6  10
ATOM     10  C   UNL     1      47.395   2.295   6.161  0.00  0.00    +0.000 C 
ATOM     11  N   UNL     1      47.339   2.994   4.989  0.00  0.00    +0.000 N 
ATOM     12  O   UNL     1      48.065   1.266   6.227  0.00  0.00    +0.000 OA
ATOM     13  H   UNL     1      46.834   3.857   4.848  0.00  0.00    +0.000 HD
ATOM     14  H   UNL     1      47.880   2.634   4.214  0.00  0.00    +0.000 HD
ENDBRANCH   6  10
BRANCH   1  15
ATOM     15  C   UNL     1      44.319   5.795  10.844  0.00  0.00    +0.000 C 
BRANCH  15  20
ATOM     16  C   UNL     1      44.574   8.807  11.758  0.00  0.00    +0.000 C 
ATOM     17  C   UNL     1      45.473   8.605  12.992  0.00  0.00    +0.000 C 
ATOM     18  C   UNL     1      45.927   7.163  13.174  0.00  0.00    +0.000 C 
ATOM     19  C   UNL     1      46.541   6.595  11.898  0.00  0.00    +0.000 C 
ATOM     20  C   UNL     1      45.580   6.683  10.705  0.00  0.00    +0.000 C 
ATOM     21  C   UNL     1      45.196   8.163  10.500  0.00  0.00    +0.000 C 
BRANCH  16  22
ATOM     22  C   UNL     1      44.305  10.312  11.575  0.00  0.00    +0.000 C 
BRANCH  22  23
ATOM     23  N   UNL     1      43.068  10.736  12.216  0.00  0.00    +0.000 NA
ATOM     24  H   UNL     1      43.188  10.707  13.230  0.00  0.00    +0.000 HD
ATOM     25  H   UNL     1      42.322  10.074  11.999  0.00  0.00    +0.000 HD
ENDBRANCH  22  23
ENDBRANCH  16  22
ENDBRANCH  15  20
ENDBRANCH   1  15
TORSDOF 5
ENDMDL
MODEL 7
REMARK VINA RESULT:    -5.053      5.342      8.364
REMARK INTER + INTRA:          -7.010
REMARK INTER:                  -6.667
REMARK INTRA:                  -0.344
REMARK UNBOUND:                -0.628
REMARK  Name = 
REMARK  5 active torsions:
REMARK  status: ('A' for Active; 'I' for Inactive)
REMARK    1  A    between atoms: N_1  and  C_2
REMARK    2  A    between atoms: C_2  and  C_3
REMARK    3  A    between atoms: C_7  and  C_8
REMARK    4  A    between atoms: C_8  and  N_9
REMARK    5  A    between atoms: C_14  and  C_15
REMARK                            x       y       z     vdW  Elec       q    Type
REMARK                         _______ _______ _______ _____ _____    ______ ____
ROOT
ATOM      1  N   UNL     1      47.881   5.052  15.808  0.00  0.00    +0.000 N 
ATOM      2  C   UNL     1      47.054   4.026  16.201  0.00  0.00    +0.000 A 
ATOM      3  C   UNL     1      47.726   3.273  17.141  0.00  0.00    +0.000 A 
ATOM      4  C   UNL     1      49.004   3.863  17.332  0.00  0.00    +0.000 A 
ATOM      5  C   UNL     1      50.140   3.561  18.110  0.00  0.00    +0.000 A 
ATOM      6  C   UNL     1      51.247   4.410  18.012  0.00  0.00    +0.000 A 
ATOM      7  C   UNL     1      51.151   5.526  17.183  0.00  0.00    +0.000 A 
ATOM      8  N   UNL     1      50.075   5.868  16.430  0.00  0.00    +0.000 NA
ATOM      9  C   UNL     1      49.053   4.994  16.523  0.00  0.00    +0.000 A 
ENDROOT
BRANCH   6  10
ATOM     10  C   UNL     1      52.529   4.189  18.722  0.00  0.00    +0.000 C 
ATOM     11  N   UNL     1      52.501   3.876  20.051  0.00  0.00    +0.000 N 
ATOM     12  O   UNL     1      53.607   4.271  18.137  0.00  0.00    +0.000 OA
ATOM     13  H   UNL     1      51.665   3.767  20.607  0.00  0.00    +0.000 HD
ATOM     14  H   UNL     1      53.390   3.704  20.501  0.00  0.00    +0.000 HD
ENDBRANCH   6  10
BRANCH   1  15
ATOM     15  C   UNL     1      47.535   6.072  14.830  0.00  0.00    +0.000 C 
BRANCH  15  20
ATOM     16  C   UNL     1      45.019   5.898  12.928  0.00  0.00    +0.000 C 
ATOM     17  C   UNL     1      45.336   7.091  12.007  0.00  0.00    +0.000 C 
ATOM     18  C   UNL     1      46.686   7.733  12.299  0.00  0.00    +0.000 C 
ATOM     19  C   UNL     1      47.810   6.702  12.337  0.00  0.00    +0.000 C 
ATOM     20  C   UNL     1      47.540   5.590  13.359  0.00  0.00    +0.000 C 
ATOM     21  C   UNL     1      46.204   4.910  12.994  0.00  0.00    +0.000 C 
BRANCH  16  22
ATOM     22  C   UNL     1      43.719   5.226  12.449  0.00  0.00    +0.000 C 
BRANCH  22  23
ATOM     23  N   UNL     1      42.628   5.390  13.399  0.00  0.00    +0.000 NA
ATOM     24  H   UNL     1      41.745   5.453  12.889  0.00  0.00    +0.000 HD
ATOM     25  H   UNL     1      42.732   6.275  13.897  0.00  0.00    +0.000 HD
ENDBRANCH  22  23
ENDBRANCH  16  22
ENDBRANCH  15  20
ENDBRANCH   1  15
TORSDOF 5
ENDMDL
MODEL 8
REMARK VINA RESULT:    -4.922      4.138      7.143
REMARK INTER + INTRA:          -6.844
REMARK INTER:                  -6.425
REMARK INTRA:                  -0.419
REMARK UNBOUND:                -0.628
REMARK  Name = 
REMARK  5 active torsions:
REMARK  status: ('A' for Active; 'I' for Inactive)
REMARK    1  A    between atoms: N_1  and  C_2
REMARK    2  A    between atoms: C_2  and  C_3
REMARK    3  A    between atoms: C_7  and  C_8
REMARK    4  A    between atoms: C_8  and  N_9
REMARK    5  A    between atoms: C_14  and  C_15
REMARK                            x       y       z     vdW  Elec       q    Type
REMARK                         _______ _______ _______ _____ _____    ______ ____
ROOT
ATOM      1  N   UNL     1      47.355   7.906  12.011  0.00  0.00    +0.000 N 
ATOM      2  C   UNL     1      46.496   8.958  12.226  0.00  0.00    +0.000 A 
ATOM      3  C   UNL     1      47.224  10.126  12.144  0.00  0.00    +0.000 A 
ATOM      4  C   UNL     1      48.572   9.776  11.862  0.00  0.00    +0.000 A 
ATOM      5  C   UNL     1      49.777  10.487  11.695  0.00  0.00    +0.000 A 
ATOM      6  C   UNL     1      50.939   9.755  11.428  0.00  0.00    +0.000 A 
ATOM      7  C   UNL     1      50.832   8.372  11.303  0.00  0.00    +0.000 A 
ATOM      8  N   UNL     1      49.693   7.645  11.437  0.00  0.00    +0.000 NA
ATOM      9  C   UNL     1      48.612   8.390  11.740  0.00  0.00    +0.000 A 
ENDROOT
BRANCH   6  10
ATOM     10  C   UNL     1      52.285  10.357  11.287  0.00  0.00    +0.000 C 
ATOM     11  N   UNL     1      53.056  10.518  12.404  0.00  0.00    +0.000 N 
ATOM     12  O   UNL     1      52.721  10.702  10.190  0.00  0.00    +0.000 OA
ATOM     13  H   UNL     1      52.790  10.247  13.339  0.00  0.00    +0.000 HD
ATOM     14  H   UNL     1      53.980  10.906  12.271  0.00  0.00    +0.000 HD
ENDBRANCH   6  10
BRANCH   1  15
ATOM     15  C   UNL     1      46.969   6.503  12.011  0.00  0.00    +0.000 C 
BRANCH  15  20
ATOM     16  C   UNL     1      44.567   4.457  11.881  0.00  0.00    +0.000 C 
ATOM     17  C   UNL     1      45.226   3.271  12.609  0.00  0.00    +0.000 C 
ATOM     18  C   UNL     1      46.612   3.595  13.151  0.00  0.00    +0.000 C 
ATOM     19  C   UNL     1      46.612   4.872  13.986  0.00  0.00    +0.000 C 
ATOM     20  C   UNL     1      46.075   6.076  13.200  0.00  0.00    +0.000 C 
ATOM     21  C   UNL     1      44.644   5.746  12.727  0.00  0.00    +0.000 C 
BRANCH  16  22
ATOM     22  C   UNL     1      43.119   4.079  11.517  0.00  0.00    +0.000 C 
BRANCH  22  23
ATOM     23  N   UNL     1      42.905   2.639  11.520  0.00  0.00    +0.000 NA
ATOM     24  H   UNL     1      42.097   2.417  10.935  0.00  0.00    +0.000 HD
ATOM     25  H   UNL     1      42.669   2.325  12.462  0.00  0.00    +0.000 HD
ENDBRANCH  22  23
ENDBRANCH  16  22
ENDBRANCH  15  20
ENDBRANCH   1  15
TORSDOF 5
ENDMDL
MODEL 9
REMARK VINA RESULT:    -4.857      6.258      8.569
REMARK INTER + INTRA:          -6.762
REMARK INTER:                  -6.324
REMARK INTRA:                  -0.438
REMARK UNBOUND:                -0.628
REMARK  Name = 
REMARK  5 active torsions:
REMARK  status: ('A' for Active; 'I' for Inactive)
REMARK    1  A    between atoms: N_1  and  C_2
REMARK    2  A    between atoms: C_2  and  C_3
REMARK    3  A    between atoms: C_7  and  C_8
REMARK    4  A    between atoms: C_8  and  N_9
REMARK    5  A    between atoms: C_14  and  C_15
REMARK                            x       y       z     vdW  Elec       q    Type
REMARK                         _______ _______ _______ _____ _____    ______ ____
ROOT
ATOM      1  N   UNL     1      48.715   4.866  17.320  0.00  0.00    +0.000 N 
ATOM      2  C   UNL     1      47.692   4.142  16.756  0.00  0.00    +0.000 A 
ATOM      3  C   UNL     1      48.137   2.850  16.570  0.00  0.00    +0.000 A 
ATOM      4  C   UNL     1      49.475   2.782  17.043  0.00  0.00    +0.000 A 
ATOM      5  C   UNL     1      50.467   1.783  17.102  0.00  0.00    +0.000 A 
ATOM      6  C   UNL     1      51.708   2.122  17.652  0.00  0.00    +0.000 A 
ATOM      7  C   UNL     1      51.880   3.413  18.145  0.00  0.00    +0.000 A 
ATOM      8  N   UNL     1      50.951   4.403  18.127  0.00  0.00    +0.000 NA
ATOM      9  C   UNL     1      49.790   4.041  17.546  0.00  0.00    +0.000 A 
ENDROOT
BRANCH   6  10
ATOM     10  C   UNL     1      52.863   1.197  17.727  0.00  0.00    +0.000 C 
ATOM     11  N   UNL     1      52.664  -0.069  18.200  0.00  0.00    +0.000 N 
ATOM     12  O   UNL     1      53.986   1.544  17.365  0.00  0.00    +0.000 OA
ATOM     13  H   UNL     1      51.777  -0.447  18.501  0.00  0.00    +0.000 HD
ATOM     14  H   UNL     1      53.467  -0.685  18.214  0.00  0.00    +0.000 HD
ENDBRANCH   6  10
BRANCH   1  15
ATOM     15  C   UNL     1      48.639   6.275  17.678  0.00  0.00    +0.000 C 
BRANCH  15  20
ATOM     16  C   UNL     1      48.396   7.604  14.823  0.00  0.00    +0.000 C 
ATOM     17  C   UNL     1      48.174   9.064  15.260  0.00  0.00    +0.000 C 
ATOM     18  C   UNL     1      48.275   9.262  16.766  0.00  0.00    +0.000 C 
ATOM     19  C   UNL     1      49.561   8.667  17.332  0.00  0.00    +0.000 C 
ATOM     20  C   UNL     1      49.701   7.175  17.001  0.00  0.00    +0.000 C 
ATOM     21  C   UNL     1      49.669   7.014  15.468  0.00  0.00    +0.000 C 
BRANCH  16  22
ATOM     22  C   UNL     1      48.434   7.541  13.285  0.00  0.00    +0.000 C 
BRANCH  22  23
ATOM     23  N   UNL     1      49.333   6.505  12.795  0.00  0.00    +0.000 NA
ATOM     24  H   UNL     1      50.176   6.942  12.418  0.00  0.00    +0.000 HD
ATOM     25  H   UNL     1      48.898   6.009  12.016  0.00  0.00    +0.000 HD
ENDBRANCH  22  23
ENDBRANCH  16  22
ENDBRANCH  15  20
ENDBRANCH   1  15
TORSDOF 5
ENDMDL
