MODEL 1
REMARK VINA RESULT:    -8.580      0.000      0.000
REMARK INTER + INTRA:         -11.664
REMARK INTER:                 -10.837
REMARK INTRA:                  -0.827
REMARK UNBOUND:                -0.827
REMARK  Name = 
REMARK  5 active torsions:
REMARK  status: ('A' for Active; 'I' for Inactive)
REMARK    1  A    between atoms: C_2  and  C_3
REMARK    2  A    between atoms: N_7  and  C_8
REMARK    3  A    between atoms: C_8  and  C_9
REMARK    4  A    between atoms: C_13  and  C_14
REMARK    5  A    between atoms: C_24  and  N_25
REMARK                            x       y       z     vdW  Elec       q    Type
REMARK                         _______ _______ _______ _____ _____    ______ ____
ROOT
ATOM      1  C   UNL     1      44.008   4.808  11.150  0.00  0.00    +0.000 C 
ATOM      2  C   UNL     1      42.690   4.859  11.914  0.00  0.00    +0.000 C 
ATOM      3  C   UNL     1      43.059   5.974  10.994  0.00  0.00    +0.000 C 
ENDROOT
BRANCH   1   8
ATOM      4  C   UNL     1      46.742   2.714   7.312  0.00  0.00    +0.000 A 
ATOM      5  N   UNL     1      46.523   4.046   7.496  0.00  0.00    +0.000 NA
ATOM      6  C   UNL     1      45.678   4.354   8.514  0.00  0.00    +0.000 A 
ATOM      7  C   UNL     1      45.080   3.395   9.321  0.00  0.00    +0.000 A 
ATOM      8  N   UNL     1      44.073   3.649  10.247  0.00  0.00    +0.000 N 
ATOM      9  N   UNL     1      45.358   2.080   9.148  0.00  0.00    +0.000 NA
ATOM     10  C   UNL     1      46.193   1.736   8.146  0.00  0.00    +0.000 A 
ATOM     11  H   UNL     1      43.903   2.749  10.698  0.00  0.00    +0.000 HD
BRANCH  10  12
ATOM     12  N   UNL     1      46.360   0.363   7.977  0.00  0.00    +0.000 N 
ATOM     13  H   UNL     1      47.279   0.111   8.340  0.00  0.00    +0.000 HD
ATOM     14  H   UNL     1      46.219   0.037   7.027  0.00  0.00    +0.000 HD
ENDBRANCH  10  12
BRANCH   4  16
ATOM     15  N   UNL     1      48.236   2.058   5.291  0.00  0.00    +0.000 NA
ATOM     16  C   UNL     1      47.552   2.359   6.185  0.00  0.00    +0.000 C 
ENDBRANCH   4  16
ENDBRANCH   1   8
BRANCH   1  17
ATOM     17  C   UNL     1      45.314   5.018  11.905  0.00  0.00    +0.000 A 
ATOM     18  C   UNL     1      45.678   4.229  13.005  0.00  0.00    +0.000 A 
ATOM     19  C   UNL     1      46.788   4.552  13.786  0.00  0.00    +0.000 A 
ATOM     20  C   UNL     1      47.541   5.691  13.489  0.00  0.00    +0.000 A 
ATOM     21  C   UNL     1      47.220   6.514  12.401  0.00  0.00    +0.000 A 
ATOM     22  C   UNL     1      46.127   6.129  11.606  0.00  0.00    +0.000 A 
BRANCH  21  23
ATOM     23  C   UNL     1      47.930   7.792  12.149  0.00  0.00    +0.000 A 
ATOM     24  C   UNL     1      49.292   7.820  11.797  0.00  0.00    +0.000 A 
ATOM     25  C   UNL     1      49.936   9.029  11.486  0.00  0.00    +0.000 A 
ATOM     26  C   UNL     1      49.233  10.226  11.540  0.00  0.00    +0.000 A 
ATOM     27  C   UNL     1      47.890  10.224  11.893  0.00  0.00    +0.000 A 
ATOM     28  C   UNL     1      47.247   9.019  12.192  0.00  0.00    +0.000 A 
ENDBRANCH  21  23
ENDBRANCH   1  17
TORSDOF 5
ENDMDL
MODEL 2
REMARK VINA RESULT:    -7.437      3.504      7.029
REMARK INTER + INTRA:         -10.220
REMARK INTER:                 -10.358
REMARK INTRA:                   0.137
REMARK UNBOUND:                -0.827
REMARK  Name = 
REMARK  5 active torsions:
REMARK  status: ('A' for Active; 'I' for Inactive)
REMARK    1  A    between atoms: C_2  and  C_3
REMARK    2  A    between atoms: N_7  and  C_8
REMARK    3  A    between atoms: C_8  and  C_9
REMARK    4  A    between atoms: C_13  and  C_14
REMARK    5  A    between atoms: C_24  and  N_25
REMARK                            x       y       z     vdW  Elec       q    Type
REMARK                         _______ _______ _______ _____ _____    ______ ____
ROOT
ATOM      1  C   UNL     1      45.340   6.133  12.169  0.00  0.00    +0.000 C 
ATOM      2  C   UNL     1      46.540   6.851  11.561  0.00  0.00    +0.000 C 
ATOM      3  C   UNL     1      45.198   7.501  11.541  0.00  0.00    +0.000 C 
ENDROOT
BRANCH   1   8
ATOM      4  C   UNL     1      48.031   3.329  15.557  0.00  0.00    +0.000 A 
ATOM      5  N   UNL     1      47.599   2.901  14.337  0.00  0.00    +0.000 NA
ATOM      6  C   UNL     1      46.811   3.781  13.666  0.00  0.00    +0.000 A 
ATOM      7  C   UNL     1      46.469   5.029  14.168  0.00  0.00    +0.000 A 
ATOM      8  N   UNL     1      45.523   5.882  13.606  0.00  0.00    +0.000 N 
ATOM      9  N   UNL     1      46.956   5.449  15.360  0.00  0.00    +0.000 NA
ATOM     10  C   UNL     1      47.742   4.602  16.056  0.00  0.00    +0.000 A 
ATOM     11  H   UNL     1      45.556   6.723  14.183  0.00  0.00    +0.000 HD
BRANCH  10  12
ATOM     12  N   UNL     1      48.131   5.070  17.309  0.00  0.00    +0.000 N 
ATOM     13  H   UNL     1      49.084   5.424  17.231  0.00  0.00    +0.000 HD
ATOM     14  H   UNL     1      48.033   4.394  18.059  0.00  0.00    +0.000 HD
ENDBRANCH  10  12
BRANCH   4  16
ATOM     15  N   UNL     1      49.422   1.634  16.949  0.00  0.00    +0.000 NA
ATOM     16  C   UNL     1      48.783   2.383  16.326  0.00  0.00    +0.000 C 
ENDBRANCH   4  16
ENDBRANCH   1   8
BRANCH   1  17
ATOM     17  C   UNL     1      44.751   4.928  11.448  0.00  0.00    +0.000 A 
ATOM     18  C   UNL     1      43.770   4.113  12.029  0.00  0.00    +0.000 A 
ATOM     19  C   UNL     1      43.376   2.920  11.425  0.00  0.00    +0.000 A 
ATOM     20  C   UNL     1      43.980   2.509  10.233  0.00  0.00    +0.000 A 
ATOM     21  C   UNL     1      44.967   3.286   9.610  0.00  0.00    +0.000 A 
ATOM     22  C   UNL     1      45.301   4.507  10.221  0.00  0.00    +0.000 A 
BRANCH  21  23
ATOM     23  C   UNL     1      45.707   2.804   8.419  0.00  0.00    +0.000 A 
ATOM     24  C   UNL     1      46.036   3.670   7.358  0.00  0.00    +0.000 A 
ATOM     25  C   UNL     1      46.803   3.223   6.269  0.00  0.00    +0.000 A 
ATOM     26  C   UNL     1      47.234   1.904   6.216  0.00  0.00    +0.000 A 
ATOM     27  C   UNL     1      46.914   1.030   7.247  0.00  0.00    +0.000 A 
ATOM     28  C   UNL     1      46.161   1.478   8.335  0.00  0.00    +0.000 A 
ENDBRANCH  21  23
ENDBRANCH   1  17
TORSDOF 5
ENDMDL
MODEL 3
REMARK VINA RESULT:    -7.086      3.909      7.720
REMARK INTER + INTRA:          -9.777
REMARK INTER:                 -10.036
REMARK INTRA:                   0.258
REMARK UNBOUND:                -0.827
REMARK  Name = 
REMARK  5 active torsions:
REMARK  status: ('A' for Active; 'I' for Inactive)
REMARK    1  A    between atoms: C_2  and  C_3
REMARK    2  A    between atoms: N_7  and  C_8
REMARK    3  A    between atoms: C_8  and  C_9
REMARK    4  A    between atoms: C_13  and  C_14
REMARK    5  A    between atoms: C_24  and  N_25
REMARK                            x       y       z     vdW  Elec       q    Type
REMARK                         _______ _______ _______ _____ _____    ______ ____
ROOT
ATOM      1  C   UNL     1      46.499   6.056  12.640  0.00  0.00    +0.000 C 
ATOM      2  C   UNL     1      47.684   6.938  12.261  0.00  0.00    +0.000 C 
ATOM      3  C   UNL     1      46.540   7.518  13.022  0.00  0.00    +0.000 C 
ENDROOT
BRANCH   1   8
ATOM      4  C   UNL     1      48.220   4.952  17.374  0.00  0.00    +0.000 A 
ATOM      5  N   UNL     1      48.558   6.050  16.642  0.00  0.00    +0.000 NA
ATOM      6  C   UNL     1      48.067   6.071  15.376  0.00  0.00    +0.000 A 
ATOM      7  C   UNL     1      47.271   5.059  14.854  0.00  0.00    +0.000 A 
ATOM      8  N   UNL     1      46.901   4.946  13.516  0.00  0.00    +0.000 N 
ATOM      9  N   UNL     1      46.906   4.004  15.622  0.00  0.00    +0.000 NA
ATOM     10  C   UNL     1      47.376   3.950  16.885  0.00  0.00    +0.000 A 
ATOM     11  H   UNL     1      46.282   4.135  13.486  0.00  0.00    +0.000 HD
BRANCH  10  12
ATOM     12  N   UNL     1      47.030   2.794  17.582  0.00  0.00    +0.000 N 
ATOM     13  H   UNL     1      47.514   2.009  17.150  0.00  0.00    +0.000 HD
ATOM     14  H   UNL     1      46.031   2.634  17.659  0.00  0.00    +0.000 HD
ENDBRANCH  10  12
BRANCH   4  16
ATOM     15  N   UNL     1      49.301   4.762  19.727  0.00  0.00    +0.000 NA
ATOM     16  C   UNL     1      48.804   4.860  18.678  0.00  0.00    +0.000 C 
ENDBRANCH   4  16
ENDBRANCH   1   8
BRANCH   1  17
ATOM     17  C   UNL     1      45.531   5.606  11.555  0.00  0.00    +0.000 A 
ATOM     18  C   UNL     1      44.142   5.748  11.684  0.00  0.00    +0.000 A 
ATOM     19  C   UNL     1      43.271   5.170  10.760  0.00  0.00    +0.000 A 
ATOM     20  C   UNL     1      43.780   4.417   9.699  0.00  0.00    +0.000 A 
ATOM     21  C   UNL     1      45.160   4.243   9.523  0.00  0.00    +0.000 A 
ATOM     22  C   UNL     1      46.008   4.883  10.444  0.00  0.00    +0.000 A 
BRANCH  21  23
ATOM     23  C   UNL     1      45.711   3.345   8.480  0.00  0.00    +0.000 A 
ATOM     24  C   UNL     1      46.208   3.848   7.263  0.00  0.00    +0.000 A 
ATOM     25  C   UNL     1      46.797   2.997   6.314  0.00  0.00    +0.000 A 
ATOM     26  C   UNL     1      46.881   1.632   6.558  0.00  0.00    +0.000 A 
ATOM     27  C   UNL     1      46.389   1.112   7.748  0.00  0.00    +0.000 A 
ATOM     28  C   UNL     1      45.813   1.961   8.698  0.00  0.00    +0.000 A 
ENDBRANCH  21  23
ENDBRANCH   1  17
TORSDOF 5
ENDMDL
MODEL 4
REMARK VINA RESULT:    -6.955      1.640      3.569
REMARK INTER + INTRA:          -9.611
REMARK INTER:                  -9.361
REMARK INTRA:                  -0.250
REMARK UNBOUND:                -0.827
REMARK  Name = 
REMARK  5 active torsions:
REMARK  status: ('A' for Active; 'I' for Inactive)
REMARK    1  A    between atoms: C_2  and  C_3
REMARK    2  A    between atoms: N_7  and  C_8
REMARK    3  A    between atoms: C_8  and  C_9
REMARK    4  A    between atoms: C_13  and  C_14
REMARK    5  A    between atoms: C_24  and  N_25
REMARK                            x       y       z     vdW  Elec       q    Type
REMARK                         _______ _______ _______ _____ _____    ______ ____
ROOT
ATOM      1  C   UNL     1      43.806   5.004  11.613  0.00  0.00    +0.000 C 
ATOM      2  C   UNL     1      42.642   4.901  12.592  0.00  0.00    +0.000 C 
ATOM      3  C   UNL     1      42.647   5.972  11.554  0.00  0.00    +0.000 C 
ENDROOT
BRANCH   1   8
ATOM      4  C   UNL     1      46.108   3.104   7.408  0.00  0.00    +0.000 A 
ATOM      5  N   UNL     1      45.653   4.380   7.557  0.00  0.00    +0.000 NA
ATOM      6  C   UNL     1      44.980   4.619   8.712  0.00  0.00    +0.000 A 
ATOM      7  C   UNL     1      44.770   3.649   9.683  0.00  0.00    +0.000 A 
ATOM      8  N   UNL     1      43.935   3.794  10.787  0.00  0.00    +0.000 N 
ATOM      9  N   UNL     1      45.280   2.403   9.532  0.00  0.00    +0.000 NA
ATOM     10  C   UNL     1      45.954   2.128   8.396  0.00  0.00    +0.000 A 
ATOM     11  H   UNL     1      44.052   2.929  11.316  0.00  0.00    +0.000 HD
BRANCH  10  12
ATOM     12  N   UNL     1      46.371   0.804   8.277  0.00  0.00    +0.000 N 
ATOM     13  H   UNL     1      47.195   0.680   8.863  0.00  0.00    +0.000 HD
ATOM     14  H   UNL     1      46.529   0.499   7.322  0.00  0.00    +0.000 HD
ENDBRANCH  10  12
BRANCH   4  16
ATOM     15  N   UNL     1      47.274   2.541   5.157  0.00  0.00    +0.000 NA
ATOM     16  C   UNL     1      46.736   2.802   6.157  0.00  0.00    +0.000 C 
ENDBRANCH   4  16
ENDBRANCH   1   8
BRANCH   1  17
ATOM     17  C   UNL     1      45.156   5.501  12.113  0.00  0.00    +0.000 A 
ATOM     18  C   UNL     1      46.013   6.271  11.315  0.00  0.00    +0.000 A 
ATOM     19  C   UNL     1      47.312   6.564  11.729  0.00  0.00    +0.000 A 
ATOM     20  C   UNL     1      47.784   6.066  12.947  0.00  0.00    +0.000 A 
ATOM     21  C   UNL     1      46.969   5.290  13.783  0.00  0.00    +0.000 A 
ATOM     22  C   UNL     1      45.649   5.060  13.357  0.00  0.00    +0.000 A 
BRANCH  21  23
ATOM     23  C   UNL     1      47.493   4.650  15.013  0.00  0.00    +0.000 A 
ATOM     24  C   UNL     1      47.470   3.252  15.182  0.00  0.00    +0.000 A 
ATOM     25  C   UNL     1      48.038   2.650  16.317  0.00  0.00    +0.000 A 
ATOM     26  C   UNL     1      48.619   3.435  17.305  0.00  0.00    +0.000 A 
ATOM     27  C   UNL     1      48.645   4.816  17.164  0.00  0.00    +0.000 A 
ATOM     28  C   UNL     1      48.090   5.414  16.030  0.00  0.00    +0.000 A 
ENDBRANCH  21  23
ENDBRANCH   1  17
TORSDOF 5
ENDMDL
MODEL 5
REMARK VINA RESULT:    -6.856      3.355      7.071
REMARK INTER + INTRA:          -9.486
REMARK INTER:                  -8.528
REMARK INTRA:                  -0.958
REMARK UNBOUND:                -0.827
REMARK  Name = 
REMARK  5 active torsions:
REMARK  status: ('A' for Active; 'I' for Inactive)
REMARK    1  A    between atoms: C_2  and  C_3
REMARK    2  A    between atoms: N_7  and  C_8
REMARK    3  A    between atoms: C_8  and  C_9
REMARK    4  A    between atoms: C_13  and  C_14
REMARK    5  A    between atoms: C_24  and  N_25
REMARK                            x       y       z     vdW  Elec       q    Type
REMARK                         _______ _______ _______ _____ _____    ______ ____
ROOT
ATOM      1  C   UNL     1      46.219   5.296  13.277  0.00  0.00    +0.000 C 
ATOM      2  C   UNL     1      45.953   4.461  14.525  0.00  0.00    +0.000 C 
ATOM      3  C   UNL     1      47.154   4.181  13.686  0.00  0.00    +0.000 C 
ENDROOT
BRANCH   1   8
ATOM      4  C   UNL     1      48.507   9.623  11.656  0.00  0.00    +0.000 A 
ATOM      5  N   UNL     1      49.019   8.365  11.546  0.00  0.00    +0.000 NA
ATOM      6  C   UNL     1      48.286   7.392  12.147  0.00  0.00    +0.000 A 
ATOM      7  C   UNL     1      47.097   7.643  12.819  0.00  0.00    +0.000 A 
ATOM      8  N   UNL     1      46.413   6.717  13.601  0.00  0.00    +0.000 N 
ATOM      9  N   UNL     1      46.584   8.897  12.867  0.00  0.00    +0.000 NA
ATOM     10  C   UNL     1      47.286   9.890  12.282  0.00  0.00    +0.000 A 
ATOM     11  H   UNL     1      45.567   7.204  13.899  0.00  0.00    +0.000 HD
BRANCH  10  12
ATOM     12  N   UNL     1      46.740  11.161  12.448  0.00  0.00    +0.000 N 
ATOM     13  H   UNL     1      45.943  11.245  11.818  0.00  0.00    +0.000 HD
ATOM     14  H   UNL     1      47.402  11.920  12.334  0.00  0.00    +0.000 HD
ENDBRANCH  10  12
BRANCH   4  16
ATOM     15  N   UNL     1      49.990  11.516  10.673  0.00  0.00    +0.000 NA
ATOM     16  C   UNL     1      49.310  10.679  11.115  0.00  0.00    +0.000 C 
ENDBRANCH   4  16
ENDBRANCH   1   8
BRANCH   1  17
ATOM     17  C   UNL     1      45.336   5.104  12.052  0.00  0.00    +0.000 A 
ATOM     18  C   UNL     1      43.958   5.367  12.073  0.00  0.00    +0.000 A 
ATOM     19  C   UNL     1      43.144   5.018  10.996  0.00  0.00    +0.000 A 
ATOM     20  C   UNL     1      43.695   4.373   9.885  0.00  0.00    +0.000 A 
ATOM     21  C   UNL     1      45.065   4.086   9.813  0.00  0.00    +0.000 A 
ATOM     22  C   UNL     1      45.863   4.500  10.894  0.00  0.00    +0.000 A 
BRANCH  21  23
ATOM     23  C   UNL     1      45.642   3.292   8.702  0.00  0.00    +0.000 A 
ATOM     24  C   UNL     1      46.137   3.908   7.537  0.00  0.00    +0.000 A 
ATOM     25  C   UNL     1      46.751   3.154   6.523  0.00  0.00    +0.000 A 
ATOM     26  C   UNL     1      46.863   1.775   6.652  0.00  0.00    +0.000 A 
ATOM     27  C   UNL     1      46.375   1.145   7.789  0.00  0.00    +0.000 A 
ATOM     28  C   UNL     1      45.774   1.897   8.802  0.00  0.00    +0.000 A 
ENDBRANCH  21  23
ENDBRANCH   1  17
TORSDOF 5
ENDMDL
MODEL 6
REMARK VINA RESULT:    -6.644      4.456      8.130
REMARK INTER + INTRA:          -9.218
REMARK INTER:                  -8.368
REMARK INTRA:                  -0.850
REMARK UNBOUND:                -0.827
REMARK  Name = 
REMARK  5 active torsions:
REMARK  status: ('A' for Active; 'I' for Inactive)
REMARK    1  A    between atoms: C_2  and  C_3
REMARK    2  A    between atoms: N_7  and  C_8
REMARK    3  A    between atoms: C_8  and  C_9
REMARK    4  A    between atoms: C_13  and  C_14
REMARK    5  A    between atoms: C_24  and  N_25
REMARK                            x       y       z     vdW  Elec       q    Type
REMARK                         _______ _______ _______ _____ _____    ______ ____
ROOT
ATOM      1  C   UNL     1      49.077   7.931  12.516  0.00  0.00    +0.000 C 
ATOM      2  C   UNL     1      50.114   8.001  11.400  0.00  0.00    +0.000 C 
ATOM      3  C   UNL     1      49.804   9.219  12.203  0.00  0.00    +0.000 C 
ENDROOT
BRANCH   1   8
ATOM      4  C   UNL     1      48.656   6.951  17.560  0.00  0.00    +0.000 A 
ATOM      5  N   UNL     1      48.766   8.186  16.998  0.00  0.00    +0.000 NA
ATOM      6  C   UNL     1      48.979   8.191  15.656  0.00  0.00    +0.000 A 
ATOM      7  C   UNL     1      49.070   7.031  14.899  0.00  0.00    +0.000 A 
ATOM      8  N   UNL     1      49.468   6.979  13.566  0.00  0.00    +0.000 N 
ATOM      9  N   UNL     1      48.903   5.817  15.476  0.00  0.00    +0.000 NA
ATOM     10  C   UNL     1      48.691   5.773  16.808  0.00  0.00    +0.000 A 
ATOM     11  H   UNL     1      49.373   5.997  13.305  0.00  0.00    +0.000 HD
BRANCH  10  12
ATOM     12  N   UNL     1      48.616   4.488  17.340  0.00  0.00    +0.000 N 
ATOM     13  H   UNL     1      49.073   3.850  16.690  0.00  0.00    +0.000 HD
ATOM     14  H   UNL     1      47.677   4.186  17.579  0.00  0.00    +0.000 HD
ENDBRANCH  10  12
BRANCH   4  16
ATOM     15  N   UNL     1      48.451   6.867  20.148  0.00  0.00    +0.000 NA
ATOM     16  C   UNL     1      48.528   6.917  18.986  0.00  0.00    +0.000 C 
ENDBRANCH   4  16
ENDBRANCH   1   8
BRANCH   1  17
ATOM     17  C   UNL     1      47.603   7.812  12.154  0.00  0.00    +0.000 A 
ATOM     18  C   UNL     1      46.626   8.654  12.704  0.00  0.00    +0.000 A 
ATOM     19  C   UNL     1      45.268   8.412  12.495  0.00  0.00    +0.000 A 
ATOM     20  C   UNL     1      44.865   7.303  11.748  0.00  0.00    +0.000 A 
ATOM     21  C   UNL     1      45.800   6.428  11.177  0.00  0.00    +0.000 A 
ATOM     22  C   UNL     1      47.160   6.733  11.364  0.00  0.00    +0.000 A 
BRANCH  21  23
ATOM     23  C   UNL     1      45.389   5.179  10.491  0.00  0.00    +0.000 A 
ATOM     24  C   UNL     1      44.671   4.173  11.164  0.00  0.00    +0.000 A 
ATOM     25  C   UNL     1      44.219   3.028  10.487  0.00  0.00    +0.000 A 
ATOM     26  C   UNL     1      44.494   2.865   9.135  0.00  0.00    +0.000 A 
ATOM     27  C   UNL     1      45.208   3.841   8.453  0.00  0.00    +0.000 A 
ATOM     28  C   UNL     1      45.647   4.985   9.124  0.00  0.00    +0.000 A 
ENDBRANCH  21  23
ENDBRANCH   1  17
TORSDOF 5
ENDMDL
MODEL 7
REMARK VINA RESULT:    -6.247      3.508      6.459
REMARK INTER + INTRA:          -8.717
REMARK INTER:                  -7.903
REMARK INTRA:                  -0.814
REMARK UNBOUND:                -0.827
REMARK  Name = 
REMARK  5 active torsions:
REMARK  status: ('A' for Active; 'I' for Inactive)
REMARK    1  A    between atoms: C_2  and  C_3
REMARK    2  A    between atoms: N_7  and  C_8
REMARK    3  A    between atoms: C_8  and  C_9
REMARK    4  A    between atoms: C_13  and  C_14
REMARK    5  A    between atoms: C_24  and  N_25
REMARK                            x       y       z     vdW  Elec       q    Type
REMARK                         _______ _______ _______ _____ _____    ______ ____
ROOT
ATOM      1  C   UNL     1      48.056   8.033  13.035  0.00  0.00    +0.000 C 
ATOM      2  C   UNL     1      48.691   9.221  12.322  0.00  0.00    +0.000 C 
ATOM      3  C   UNL     1      49.268   7.857  12.149  0.00  0.00    +0.000 C 
ENDROOT
BRANCH   1   8
ATOM      4  C   UNL     1      44.492   4.389  12.251  0.00  0.00    +0.000 A 
ATOM      5  N   UNL     1      45.826   4.261  12.006  0.00  0.00    +0.000 NA
ATOM      6  C   UNL     1      46.555   5.394  12.184  0.00  0.00    +0.000 A 
ATOM      7  C   UNL     1      45.997   6.598  12.592  0.00  0.00    +0.000 A 
ATOM      8  N   UNL     1      46.664   7.820  12.609  0.00  0.00    +0.000 N 
ATOM      9  N   UNL     1      44.676   6.683  12.880  0.00  0.00    +0.000 NA
ATOM     10  C   UNL     1      43.920   5.578  12.714  0.00  0.00    +0.000 A 
ATOM     11  H   UNL     1      45.993   8.477  13.007  0.00  0.00    +0.000 HD
BRANCH  10  12
ATOM     12  N   UNL     1      42.559   5.767  12.946  0.00  0.00    +0.000 N 
ATOM     13  H   UNL     1      42.393   5.659  13.946  0.00  0.00    +0.000 HD
ATOM     14  H   UNL     1      41.952   5.175  12.389  0.00  0.00    +0.000 HD
ENDBRANCH  10  12
BRANCH   4  16
ATOM     15  N   UNL     1      43.011   2.308  11.781  0.00  0.00    +0.000 NA
ATOM     16  C   UNL     1      43.688   3.236  11.979  0.00  0.00    +0.000 C 
ENDBRANCH   4  16
ENDBRANCH   1   8
BRANCH   1  17
ATOM     17  C   UNL     1      48.220   7.895  14.542  0.00  0.00    +0.000 A 
ATOM     18  C   UNL     1      48.160   8.997  15.406  0.00  0.00    +0.000 A 
ATOM     19  C   UNL     1      48.488   8.871  16.756  0.00  0.00    +0.000 A 
ATOM     20  C   UNL     1      48.905   7.636  17.260  0.00  0.00    +0.000 A 
ATOM     21  C   UNL     1      48.983   6.502  16.439  0.00  0.00    +0.000 A 
ATOM     22  C   UNL     1      48.595   6.655  15.097  0.00  0.00    +0.000 A 
BRANCH  21  23
ATOM     23  C   UNL     1      49.544   5.219  16.926  0.00  0.00    +0.000 A 
ATOM     24  C   UNL     1      48.768   4.045  16.967  0.00  0.00    +0.000 A 
ATOM     25  C   UNL     1      49.330   2.818  17.358  0.00  0.00    +0.000 A 
ATOM     26  C   UNL     1      50.667   2.751  17.730  0.00  0.00    +0.000 A 
ATOM     27  C   UNL     1      51.449   3.899  17.706  0.00  0.00    +0.000 A 
ATOM     28  C   UNL     1      50.893   5.116  17.307  0.00  0.00    +0.000 A 
ENDBRANCH  21  23
ENDBRANCH   1  17
TORSDOF 5
ENDMDL
MODEL 8
REMARK VINA RESULT:    -6.245      2.324      4.781
REMARK INTER + INTRA:          -8.715
REMARK INTER:                  -7.663
REMARK INTRA:                  -1.052
REMARK UNBOUND:                -0.827
REMARK  Name = 
REMARK  5 active torsions:
REMARK  status: ('A' for Active; 'I' for Inactive)
REMARK    1  A    between atoms: C_2  and  C_3
REMARK    2  A    between atoms: N_7  and  C_8
REMARK    3  A    between atoms: C_8  and  C_9
REMARK    4  A    between atoms: C_13  and  C_14
REMARK    5  A    between atoms: C_24  and  N_25
REMARK                            x       y       z     vdW  Elec       q    Type
REMARK                         _______ _______ _______ _____ _____    ______ ____
ROOT
ATOM      1  C   UNL     1      45.578   8.304  12.150  0.00  0.00    +0.000 C 
ATOM      2  C   UNL     1      44.862   9.586  12.560  0.00  0.00    +0.000 C 
ATOM      3  C   UNL     1      45.429   9.458  11.186  0.00  0.00    +0.000 C 
ENDROOT
BRANCH   1   8
ATOM      4  C   UNL     1      44.839   3.574  10.236  0.00  0.00    +0.000 A 
ATOM      5  N   UNL     1      45.328   4.642   9.546  0.00  0.00    +0.000 NA
ATOM      6  C   UNL     1      45.329   5.816  10.230  0.00  0.00    +0.000 A 
ATOM      7  C   UNL     1      44.876   5.933  11.537  0.00  0.00    +0.000 A 
ATOM      8  N   UNL     1      44.685   7.137  12.209  0.00  0.00    +0.000 N 
ATOM      9  N   UNL     1      44.444   4.843  12.216  0.00  0.00    +0.000 NA
ATOM     10  C   UNL     1      44.428   3.659  11.569  0.00  0.00    +0.000 A 
ATOM     11  H   UNL     1      44.403   6.865  13.152  0.00  0.00    +0.000 HD
BRANCH  10  12
ATOM     12  N   UNL     1      43.891   2.605  12.304  0.00  0.00    +0.000 N 
ATOM     13  H   UNL     1      42.953   2.421  11.950  0.00  0.00    +0.000 HD
ATOM     14  H   UNL     1      43.902   2.744  13.308  0.00  0.00    +0.000 HD
ENDBRANCH  10  12
BRANCH   4  16
ATOM     15  N   UNL     1      44.683   1.356   8.893  0.00  0.00    +0.000 NA
ATOM     16  C   UNL     1      44.738   2.346   9.505  0.00  0.00    +0.000 C 
ENDBRANCH   4  16
ENDBRANCH   1   8
BRANCH   1  17
ATOM     17  C   UNL     1      46.953   8.002  12.730  0.00  0.00    +0.000 A 
ATOM     18  C   UNL     1      48.138   8.306  12.046  0.00  0.00    +0.000 A 
ATOM     19  C   UNL     1      49.374   7.862  12.515  0.00  0.00    +0.000 A 
ATOM     20  C   UNL     1      49.440   7.081  13.673  0.00  0.00    +0.000 A 
ATOM     21  C   UNL     1      48.286   6.748  14.395  0.00  0.00    +0.000 A 
ATOM     22  C   UNL     1      47.064   7.256  13.921  0.00  0.00    +0.000 A 
BRANCH  21  23
ATOM     23  C   UNL     1      48.325   5.817  15.549  0.00  0.00    +0.000 A 
ATOM     24  C   UNL     1      47.552   4.641  15.572  0.00  0.00    +0.000 A 
ATOM     25  C   UNL     1      47.654   3.727  16.634  0.00  0.00    +0.000 A 
ATOM     26  C   UNL     1      48.512   3.986  17.695  0.00  0.00    +0.000 A 
ATOM     27  C   UNL     1      49.278   5.144  17.698  0.00  0.00    +0.000 A 
ATOM     28  C   UNL     1      49.185   6.047  16.636  0.00  0.00    +0.000 A 
ENDBRANCH  21  23
ENDBRANCH   1  17
TORSDOF 5
ENDMDL
MODEL 9
REMARK VINA RESULT:    -6.044      6.145      8.442
REMARK INTER + INTRA:          -8.461
REMARK INTER:                  -7.619
REMARK INTRA:                  -0.842
REMARK UNBOUND:                -0.827
REMARK  Name = 
REMARK  5 active torsions:
REMARK  status: ('A' for Active; 'I' for Inactive)
REMARK    1  A    between atoms: C_2  and  C_3
REMARK    2  A    between atoms: N_7  and  C_8
REMARK    3  A    between atoms: C_8  and  C_9
REMARK    4  A    between atoms: C_13  and  C_14
REMARK    5  A    between atoms: C_24  and  N_25
REMARK                            x       y       z     vdW  Elec       q    Type
REMARK                         _______ _______ _______ _____ _____    ______ ____
ROOT
ATOM      1  C   UNL     1      48.249   4.580  17.241  0.00  0.00    +0.000 C 
ATOM      2  C   UNL     1      47.126   4.896  18.223  0.00  0.00    +0.000 C 
ATOM      3  C   UNL     1      47.079   3.640  17.420  0.00  0.00    +0.000 C 
ENDROOT
BRANCH   1   8
ATOM      4  C   UNL     1      52.441   1.597  17.577  0.00  0.00    +0.000 A 
ATOM      5  N   UNL     1      51.166   1.156  17.388  0.00  0.00    +0.000 NA
ATOM      6  C   UNL     1      50.210   2.120  17.445  0.00  0.00    +0.000 A 
ATOM      7  C   UNL     1      50.497   3.460  17.669  0.00  0.00    +0.000 A 
ATOM      8  N   UNL     1      49.547   4.447  17.919  0.00  0.00    +0.000 N 
ATOM      9  N   UNL     1      51.779   3.878  17.800  0.00  0.00    +0.000 NA
ATOM     10  C   UNL     1      52.755   2.948  17.750  0.00  0.00    +0.000 A 
ATOM     11  H   UNL     1      50.083   5.312  17.983  0.00  0.00    +0.000 HD
BRANCH  10  12
ATOM     12  N   UNL     1      54.038   3.442  17.980  0.00  0.00    +0.000 N 
ATOM     13  H   UNL     1      54.536   2.766  18.557  0.00  0.00    +0.000 HD
ATOM     14  H   UNL     1      54.063   4.377  18.373  0.00  0.00    +0.000 HD
ENDBRANCH  10  12
BRANCH   4  16
ATOM     15  N   UNL     1      54.274  -0.243  17.618  0.00  0.00    +0.000 NA
ATOM     16  C   UNL     1      53.457   0.588  17.617  0.00  0.00    +0.000 C 
ENDBRANCH   4  16
ENDBRANCH   1   8
BRANCH   1  17
ATOM     17  C   UNL     1      48.357   5.383  15.952  0.00  0.00    +0.000 A 
ATOM     18  C   UNL     1      49.082   6.580  15.873  0.00  0.00    +0.000 A 
ATOM     19  C   UNL     1      49.020   7.385  14.736  0.00  0.00    +0.000 A 
ATOM     20  C   UNL     1      48.208   7.012  13.661  0.00  0.00    +0.000 A 
ATOM     21  C   UNL     1      47.462   5.825  13.688  0.00  0.00    +0.000 A 
ATOM     22  C   UNL     1      47.590   5.014  14.829  0.00  0.00    +0.000 A 
BRANCH  21  23
ATOM     23  C   UNL     1      46.500   5.480  12.614  0.00  0.00    +0.000 A 
ATOM     24  C   UNL     1      46.440   6.217  11.416  0.00  0.00    +0.000 A 
ATOM     25  C   UNL     1      45.579   5.836  10.373  0.00  0.00    +0.000 A 
ATOM     26  C   UNL     1      44.755   4.727  10.520  0.00  0.00    +0.000 A 
ATOM     27  C   UNL     1      44.792   3.991  11.697  0.00  0.00    +0.000 A 
ATOM     28  C   UNL     1      45.656   4.363  12.729  0.00  0.00    +0.000 A 
ENDBRANCH  21  23
ENDBRANCH   1  17
TORSDOF 5
ENDMDL
