MODEL 1
REMARK VINA RESULT:    -7.878      0.000      0.000
REMARK INTER + INTRA:         -11.369
REMARK INTER:                 -10.641
REMARK INTRA:                  -0.728
REMARK UNBOUND:                -0.728
REMARK  Name = 
REMARK  6 active torsions:
REMARK  status: ('A' for Active; 'I' for Inactive)
REMARK    1  A    between atoms: C_2  and  C_3
REMARK    2  A    between atoms: C_6  and  N_7
REMARK    3  A    between atoms: N_7  and  C_8
REMARK    4  A    between atoms: C_8  and  C_9
REMARK    5  A    between atoms: C_12  and  O_13
REMARK    6  A    between atoms: O_13  and  C_14
REMARK                            x       y       z     vdW  Elec       q    Type
REMARK                         _______ _______ _______ _____ _____    ______ ____
ROOT
ATOM      1  C   UNL     1      43.865   4.849  11.285  0.00  0.00    +0.000 C 
ATOM      2  C   UNL     1      42.555   5.157  12.013  0.00  0.00    +0.000 C 
ATOM      3  C   UNL     1      43.194   6.207  11.170  0.00  0.00    +0.000 C 
ENDROOT
BRANCH   1   4
ATOM      4  C   UNL     1      45.120   4.778  12.145  0.00  0.00    +0.000 A 
ATOM      5  C   UNL     1      45.758   5.943  12.593  0.00  0.00    +0.000 A 
ATOM      6  C   UNL     1      46.765   5.887  13.560  0.00  0.00    +0.000 A 
ATOM      7  C   UNL     1      47.161   4.659  14.095  0.00  0.00    +0.000 A 
ATOM      8  C   UNL     1      46.651   3.486  13.547  0.00  0.00    +0.000 A 
ATOM      9  C   UNL     1      45.636   3.550  12.591  0.00  0.00    +0.000 A 
BRANCH   7  10
ATOM     10  O   UNL     1      48.077   4.718  15.099  0.00  0.00    +0.000 OA
BRANCH  10  11
ATOM     11  C   UNL     1      47.756   4.091  16.337  0.00  0.00    +0.000 C 
ATOM     12  F   UNL     1      46.451   4.135  16.674  0.00  0.00    +0.000 F 
ATOM     13  F   UNL     1      48.139   2.795  16.279  0.00  0.00    +0.000 F 
ATOM     14  F   UNL     1      48.456   4.692  17.326  0.00  0.00    +0.000 F 
ENDBRANCH  10  11
ENDBRANCH   7  10
ENDBRANCH   1   4
BRANCH   1  15
ATOM     15  N   UNL     1      43.789   3.806  10.271  0.00  0.00    +0.000 N 
ATOM     16  H   UNL     1      42.881   3.467   9.979  0.00  0.00    +0.000 HD
BRANCH  15  20
ATOM     17  C   UNL     1      46.594   2.576   7.550  0.00  0.00    +0.000 A 
ATOM     18  C   UNL     1      45.940   1.699   8.397  0.00  0.00    +0.000 A 
ATOM     19  N   UNL     1      45.012   2.116   9.297  0.00  0.00    +0.000 NA
ATOM     20  C   UNL     1      44.742   3.442   9.334  0.00  0.00    +0.000 A 
ATOM     21  C   UNL     1      45.419   4.314   8.486  0.00  0.00    +0.000 A 
ATOM     22  N   UNL     1      46.353   3.908   7.577  0.00  0.00    +0.000 NA
BRANCH  17  24
ATOM     23  N   UNL     1      48.311   1.673   5.828  0.00  0.00    +0.000 NA
ATOM     24  C   UNL     1      47.564   2.093   6.611  0.00  0.00    +0.000 C 
ENDBRANCH  17  24
ENDBRANCH  15  20
ENDBRANCH   1  15
TORSDOF 6
ENDMDL
MODEL 2
REMARK VINA RESULT:    -7.542      1.676      2.059
REMARK INTER + INTRA:         -10.916
REMARK INTER:                 -10.148
REMARK INTRA:                  -0.768
REMARK UNBOUND:                -0.728
REMARK  Name = 
REMARK  6 active torsions:
REMARK  status: ('A' for Active; 'I' for Inactive)
REMARK    1  A    between atoms: C_2  and  C_3
REMARK    2  A    between atoms: C_6  and  N_7
REMARK    3  A    between atoms: N_7  and  C_8
REMARK    4  A    between atoms: C_8  and  C_9
REMARK    5  A    between atoms: C_12  and  O_13
REMARK    6  A    between atoms: O_13  and  C_14
REMARK                            x       y       z     vdW  Elec       q    Type
REMARK                         _______ _______ _______ _____ _____    ______ ____
ROOT
ATOM      1  C   UNL     1      43.833   5.141  11.118  0.00  0.00    +0.000 C 
ATOM      2  C   UNL     1      42.676   5.349  12.096  0.00  0.00    +0.000 C 
ATOM      3  C   UNL     1      42.985   6.401  11.087  0.00  0.00    +0.000 C 
ENDROOT
BRANCH   1   4
ATOM      4  C   UNL     1      45.238   5.279  11.688  0.00  0.00    +0.000 A 
ATOM      5  C   UNL     1      46.095   6.305  11.267  0.00  0.00    +0.000 A 
ATOM      6  C   UNL     1      47.288   6.572  11.944  0.00  0.00    +0.000 A 
ATOM      7  C   UNL     1      47.653   5.809  13.054  0.00  0.00    +0.000 A 
ATOM      8  C   UNL     1      46.897   4.689  13.386  0.00  0.00    +0.000 A 
ATOM      9  C   UNL     1      45.699   4.437  12.714  0.00  0.00    +0.000 A 
BRANCH   7  10
ATOM     10  O   UNL     1      48.780   6.208  13.702  0.00  0.00    +0.000 OA
BRANCH  10  11
ATOM     11  C   UNL     1      48.634   7.021  14.863  0.00  0.00    +0.000 C 
ATOM     12  F   UNL     1      47.748   8.031  14.741  0.00  0.00    +0.000 F 
ATOM     13  F   UNL     1      48.250   6.237  15.896  0.00  0.00    +0.000 F 
ATOM     14  F   UNL     1      49.835   7.563  15.171  0.00  0.00    +0.000 F 
ENDBRANCH  10  11
ENDBRANCH   7  10
ENDBRANCH   1   4
BRANCH   1  15
ATOM     15  N   UNL     1      43.680   4.026  10.194  0.00  0.00    +0.000 N 
ATOM     16  H   UNL     1      42.755   3.776   9.870  0.00  0.00    +0.000 HD
BRANCH  15  20
ATOM     17  C   UNL     1      46.503   2.489   7.654  0.00  0.00    +0.000 A 
ATOM     18  C   UNL     1      46.072   3.802   7.585  0.00  0.00    +0.000 A 
ATOM     19  N   UNL     1      45.135   4.302   8.431  0.00  0.00    +0.000 NA
ATOM     20  C   UNL     1      44.631   3.458   9.361  0.00  0.00    +0.000 A 
ATOM     21  C   UNL     1      45.064   2.136   9.409  0.00  0.00    +0.000 A 
ATOM     22  N   UNL     1      46.006   1.620   8.566  0.00  0.00    +0.000 NA
BRANCH  17  24
ATOM     23  N   UNL     1      48.295   1.650   5.977  0.00  0.00    +0.000 NA
ATOM     24  C   UNL     1      47.499   2.002   6.744  0.00  0.00    +0.000 C 
ENDBRANCH  17  24
ENDBRANCH  15  20
ENDBRANCH   1  15
TORSDOF 6
ENDMDL
MODEL 3
REMARK VINA RESULT:    -7.265      5.005      7.209
REMARK INTER + INTRA:         -10.541
REMARK INTER:                  -9.856
REMARK INTRA:                  -0.685
REMARK UNBOUND:                -0.728
REMARK  Name = 
REMARK  6 active torsions:
REMARK  status: ('A' for Active; 'I' for Inactive)
REMARK    1  A    between atoms: C_2  and  C_3
REMARK    2  A    between atoms: C_6  and  N_7
REMARK    3  A    between atoms: N_7  and  C_8
REMARK    4  A    between atoms: C_8  and  C_9
REMARK    5  A    between atoms: C_12  and  O_13
REMARK    6  A    between atoms: O_13  and  C_14
REMARK                            x       y       z     vdW  Elec       q    Type
REMARK                         _______ _______ _______ _____ _____    ______ ____
ROOT
ATOM      1  C   UNL     1      44.227   4.832  11.662  0.00  0.00    +0.000 C 
ATOM      2  C   UNL     1      42.702   4.736  11.739  0.00  0.00    +0.000 C 
ATOM      3  C   UNL     1      43.541   3.794  12.533  0.00  0.00    +0.000 C 
ENDROOT
BRANCH   1   4
ATOM      4  C   UNL     1      44.875   4.326  10.381  0.00  0.00    +0.000 A 
ATOM      5  C   UNL     1      44.711   3.000   9.959  0.00  0.00    +0.000 A 
ATOM      6  C   UNL     1      45.109   2.594   8.682  0.00  0.00    +0.000 A 
ATOM      7  C   UNL     1      45.689   3.509   7.802  0.00  0.00    +0.000 A 
ATOM      8  C   UNL     1      46.004   4.784   8.260  0.00  0.00    +0.000 A 
ATOM      9  C   UNL     1      45.591   5.187   9.532  0.00  0.00    +0.000 A 
BRANCH   7  10
ATOM     10  O   UNL     1      45.950   3.042   6.551  0.00  0.00    +0.000 OA
BRANCH  10  11
ATOM     11  C   UNL     1      47.165   2.328   6.342  0.00  0.00    +0.000 C 
ATOM     12  F   UNL     1      48.156   2.628   7.207  0.00  0.00    +0.000 F 
ATOM     13  F   UNL     1      46.909   1.003   6.427  0.00  0.00    +0.000 F 
ATOM     14  F   UNL     1      47.616   2.589   5.094  0.00  0.00    +0.000 F 
ENDBRANCH  10  11
ENDBRANCH   7  10
ENDBRANCH   1   4
BRANCH   1  15
ATOM     15  N   UNL     1      44.802   6.073  12.162  0.00  0.00    +0.000 N 
ATOM     16  H   UNL     1      44.202   6.877  12.294  0.00  0.00    +0.000 HD
BRANCH  15  20
ATOM     17  C   UNL     1      48.290   6.769  14.195  0.00  0.00    +0.000 A 
ATOM     18  C   UNL     1      47.592   7.771  13.545  0.00  0.00    +0.000 A 
ATOM     19  N   UNL     1      46.437   7.530  12.872  0.00  0.00    +0.000 NA
ATOM     20  C   UNL     1      45.983   6.256  12.863  0.00  0.00    +0.000 A 
ATOM     21  C   UNL     1      46.704   5.256  13.511  0.00  0.00    +0.000 A 
ATOM     22  N   UNL     1      47.865   5.483  14.191  0.00  0.00    +0.000 NA
BRANCH  17  24
ATOM     23  N   UNL     1      50.489   7.258  15.482  0.00  0.00    +0.000 NA
ATOM     24  C   UNL     1      49.504   7.067  14.898  0.00  0.00    +0.000 C 
ENDBRANCH  17  24
ENDBRANCH  15  20
ENDBRANCH   1  15
TORSDOF 6
ENDMDL
MODEL 4
REMARK VINA RESULT:    -6.982      4.957      7.292
REMARK INTER + INTRA:         -10.158
REMARK INTER:                  -9.540
REMARK INTRA:                  -0.618
REMARK UNBOUND:                -0.728
REMARK  Name = 
REMARK  6 active torsions:
REMARK  status: ('A' for Active; 'I' for Inactive)
REMARK    1  A    between atoms: C_2  and  C_3
REMARK    2  A    between atoms: C_6  and  N_7
REMARK    3  A    between atoms: N_7  and  C_8
REMARK    4  A    between atoms: C_8  and  C_9
REMARK    5  A    between atoms: C_12  and  O_13
REMARK    6  A    between atoms: O_13  and  C_14
REMARK                            x       y       z     vdW  Elec       q    Type
REMARK                         _______ _______ _______ _____ _____    ______ ____
ROOT
ATOM      1  C   UNL     1      44.548   4.237  11.611  0.00  0.00    +0.000 C 
ATOM      2  C   UNL     1      43.116   4.664  11.940  0.00  0.00    +0.000 C 
ATOM      3  C   UNL     1      43.568   3.283  12.272  0.00  0.00    +0.000 C 
ENDROOT
BRANCH   1   4
ATOM      4  C   UNL     1      44.861   3.984  10.142  0.00  0.00    +0.000 A 
ATOM      5  C   UNL     1      45.447   4.977   9.344  0.00  0.00    +0.000 A 
ATOM      6  C   UNL     1      45.941   4.680   8.071  0.00  0.00    +0.000 A 
ATOM      7  C   UNL     1      45.851   3.382   7.566  0.00  0.00    +0.000 A 
ATOM      8  C   UNL     1      45.132   2.426   8.277  0.00  0.00    +0.000 A 
ATOM      9  C   UNL     1      44.653   2.725   9.554  0.00  0.00    +0.000 A 
BRANCH   7  10
ATOM     10  O   UNL     1      46.448   3.172   6.362  0.00  0.00    +0.000 OA
BRANCH  10  11
ATOM     11  C   UNL     1      47.378   2.099   6.251  0.00  0.00    +0.000 C 
ATOM     12  F   UNL     1      46.838   0.868   6.357  0.00  0.00    +0.000 F 
ATOM     13  F   UNL     1      48.006   2.190   5.057  0.00  0.00    +0.000 F 
ATOM     14  F   UNL     1      48.308   2.225   7.225  0.00  0.00    +0.000 F 
ENDBRANCH  10  11
ENDBRANCH   7  10
ENDBRANCH   1   4
BRANCH   1  15
ATOM     15  N   UNL     1      45.595   4.960  12.319  0.00  0.00    +0.000 N 
ATOM     16  H   UNL     1      45.646   5.967  12.232  0.00  0.00    +0.000 HD
BRANCH  15  20
ATOM     17  C   UNL     1      47.767   3.908  15.630  0.00  0.00    +0.000 A 
ATOM     18  C   UNL     1      47.291   5.190  15.426  0.00  0.00    +0.000 A 
ATOM     19  N   UNL     1      46.572   5.530  14.325  0.00  0.00    +0.000 NA
ATOM     20  C   UNL     1      46.332   4.553  13.420  0.00  0.00    +0.000 A 
ATOM     21  C   UNL     1      46.830   3.270  13.632  0.00  0.00    +0.000 A 
ATOM     22  N   UNL     1      47.552   2.915  14.734  0.00  0.00    +0.000 NA
BRANCH  17  24
ATOM     23  N   UNL     1      49.133   3.284  17.745  0.00  0.00    +0.000 NA
ATOM     24  C   UNL     1      48.517   3.590  16.809  0.00  0.00    +0.000 C 
ENDBRANCH  17  24
ENDBRANCH  15  20
ENDBRANCH   1  15
TORSDOF 6
ENDMDL
MODEL 5
REMARK VINA RESULT:    -6.633      4.972      7.054
REMARK INTER + INTRA:          -9.688
REMARK INTER:                  -9.743
REMARK INTRA:                   0.055
REMARK UNBOUND:                -0.728
REMARK  Name = 
REMARK  6 active torsions:
REMARK  status: ('A' for Active; 'I' for Inactive)
REMARK    1  A    between atoms: C_2  and  C_3
REMARK    2  A    between atoms: C_6  and  N_7
REMARK    3  A    between atoms: N_7  and  C_8
REMARK    4  A    between atoms: C_8  and  C_9
REMARK    5  A    between atoms: C_12  and  O_13
REMARK    6  A    between atoms: O_13  and  C_14
REMARK                            x       y       z     vdW  Elec       q    Type
REMARK                         _______ _______ _______ _____ _____    ______ ____
ROOT
ATOM      1  C   UNL     1      44.516   3.876  11.725  0.00  0.00    +0.000 C 
ATOM      2  C   UNL     1      43.068   4.267  12.024  0.00  0.00    +0.000 C 
ATOM      3  C   UNL     1      43.517   2.866  12.263  0.00  0.00    +0.000 C 
ENDROOT
BRANCH   1   4
ATOM      4  C   UNL     1      44.895   3.745  10.257  0.00  0.00    +0.000 A 
ATOM      5  C   UNL     1      45.279   4.864   9.504  0.00  0.00    +0.000 A 
ATOM      6  C   UNL     1      45.841   4.720   8.233  0.00  0.00    +0.000 A 
ATOM      7  C   UNL     1      46.024   3.450   7.684  0.00  0.00    +0.000 A 
ATOM      8  C   UNL     1      45.504   2.344   8.347  0.00  0.00    +0.000 A 
ATOM      9  C   UNL     1      44.955   2.493   9.623  0.00  0.00    +0.000 A 
BRANCH   7  10
ATOM     10  O   UNL     1      46.668   3.410   6.486  0.00  0.00    +0.000 OA
BRANCH  10  11
ATOM     11  C   UNL     1      47.457   2.263   6.187  0.00  0.00    +0.000 C 
ATOM     12  F   UNL     1      46.802   1.087   6.269  0.00  0.00    +0.000 F 
ATOM     13  F   UNL     1      47.952   2.391   4.935  0.00  0.00    +0.000 F 
ATOM     14  F   UNL     1      48.500   2.213   7.047  0.00  0.00    +0.000 F 
ENDBRANCH  10  11
ENDBRANCH   7  10
ENDBRANCH   1   4
BRANCH   1  15
ATOM     15  N   UNL     1      45.525   4.544  12.536  0.00  0.00    +0.000 N 
ATOM     16  H   UNL     1      46.253   3.993  12.972  0.00  0.00    +0.000 HD
BRANCH  15  20
ATOM     17  C   UNL     1      46.795   8.438  12.462  0.00  0.00    +0.000 A 
ATOM     18  C   UNL     1      47.660   7.368  12.319  0.00  0.00    +0.000 A 
ATOM     19  N   UNL     1      47.230   6.080  12.346  0.00  0.00    +0.000 NA
ATOM     20  C   UNL     1      45.903   5.877  12.517  0.00  0.00    +0.000 A 
ATOM     21  C   UNL     1      45.047   6.964  12.675  0.00  0.00    +0.000 A 
ATOM     22  N   UNL     1      45.466   8.263  12.649  0.00  0.00    +0.000 NA
BRANCH  17  24
ATOM     23  N   UNL     1      47.642  10.889  12.391  0.00  0.00    +0.000 NA
ATOM     24  C   UNL     1      47.291   9.783  12.423  0.00  0.00    +0.000 C 
ENDBRANCH  17  24
ENDBRANCH  15  20
ENDBRANCH   1  15
TORSDOF 6
ENDMDL
MODEL 6
REMARK VINA RESULT:    -6.620      2.738      3.186
REMARK INTER + INTRA:          -9.670
REMARK INTER:                  -9.177
REMARK INTRA:                  -0.493
REMARK UNBOUND:                -0.728
REMARK  Name = 
REMARK  6 active torsions:
REMARK  status: ('A' for Active; 'I' for Inactive)
REMARK    1  A    between atoms: C_2  and  C_3
REMARK    2  A    between atoms: C_6  and  N_7
REMARK    3  A    between atoms: N_7  and  C_8
REMARK    4  A    between atoms: C_8  and  C_9
REMARK    5  A    between atoms: C_12  and  O_13
REMARK    6  A    between atoms: O_13  and  C_14
REMARK                            x       y       z     vdW  Elec       q    Type
REMARK                         _______ _______ _______ _____ _____    ______ ____
ROOT
ATOM      1  C   UNL     1      43.990   5.284  11.521  0.00  0.00    +0.000 C 
ATOM      2  C   UNL     1      43.954   4.226  12.625  0.00  0.00    +0.000 C 
ATOM      3  C   UNL     1      42.925   5.304  12.604  0.00  0.00    +0.000 C 
ENDROOT
BRANCH   1   4
ATOM      4  C   UNL     1      45.087   6.335  11.623  0.00  0.00    +0.000 A 
ATOM      5  C   UNL     1      44.781   7.703  11.644  0.00  0.00    +0.000 A 
ATOM      6  C   UNL     1      45.753   8.654  11.964  0.00  0.00    +0.000 A 
ATOM      7  C   UNL     1      47.057   8.256  12.262  0.00  0.00    +0.000 A 
ATOM      8  C   UNL     1      47.414   6.922  12.090  0.00  0.00    +0.000 A 
ATOM      9  C   UNL     1      46.435   5.975  11.783  0.00  0.00    +0.000 A 
BRANCH   7  10
ATOM     10  O   UNL     1      47.903   9.245  12.656  0.00  0.00    +0.000 OA
BRANCH  10  11
ATOM     11  C   UNL     1      48.333   9.259  14.014  0.00  0.00    +0.000 C 
ATOM     12  F   UNL     1      47.426   8.800  14.901  0.00  0.00    +0.000 F 
ATOM     13  F   UNL     1      49.454   8.510  14.122  0.00  0.00    +0.000 F 
ATOM     14  F   UNL     1      48.642  10.529  14.362  0.00  0.00    +0.000 F 
ENDBRANCH  10  11
ENDBRANCH   7  10
ENDBRANCH   1   4
BRANCH   1  15
ATOM     15  N   UNL     1      43.776   4.787  10.169  0.00  0.00    +0.000 N 
ATOM     16  H   UNL     1      43.026   5.175   9.612  0.00  0.00    +0.000 HD
BRANCH  15  20
ATOM     17  C   UNL     1      46.370   2.683   7.795  0.00  0.00    +0.000 A 
ATOM     18  C   UNL     1      45.532   2.072   8.710  0.00  0.00    +0.000 A 
ATOM     19  N   UNL     1      44.676   2.777   9.493  0.00  0.00    +0.000 NA
ATOM     20  C   UNL     1      44.669   4.122   9.343  0.00  0.00    +0.000 A 
ATOM     21  C   UNL     1      45.529   4.725   8.429  0.00  0.00    +0.000 A 
ATOM     22  N   UNL     1      46.394   4.027   7.635  0.00  0.00    +0.000 NA
BRANCH  17  24
ATOM     23  N   UNL     1      47.967   1.301   6.289  0.00  0.00    +0.000 NA
ATOM     24  C   UNL     1      47.256   1.900   6.984  0.00  0.00    +0.000 C 
ENDBRANCH  17  24
ENDBRANCH  15  20
ENDBRANCH   1  15
TORSDOF 6
ENDMDL
MODEL 7
REMARK VINA RESULT:    -6.261      5.095      7.044
REMARK INTER + INTRA:          -9.184
REMARK INTER:                  -8.718
REMARK INTRA:                  -0.466
REMARK UNBOUND:                -0.728
REMARK  Name = 
REMARK  6 active torsions:
REMARK  status: ('A' for Active; 'I' for Inactive)
REMARK    1  A    between atoms: C_2  and  C_3
REMARK    2  A    between atoms: C_6  and  N_7
REMARK    3  A    between atoms: N_7  and  C_8
REMARK    4  A    between atoms: C_8  and  C_9
REMARK    5  A    between atoms: C_12  and  O_13
REMARK    6  A    between atoms: O_13  and  C_14
REMARK                            x       y       z     vdW  Elec       q    Type
REMARK                         _______ _______ _______ _____ _____    ______ ____
ROOT
ATOM      1  C   UNL     1      45.016   4.905  11.971  0.00  0.00    +0.000 C 
ATOM      2  C   UNL     1      43.805   4.515  12.820  0.00  0.00    +0.000 C 
ATOM      3  C   UNL     1      45.120   3.862  13.071  0.00  0.00    +0.000 C 
ENDROOT
BRANCH   1   4
ATOM      4  C   UNL     1      45.036   4.390  10.539  0.00  0.00    +0.000 A 
ATOM      5  C   UNL     1      45.525   5.181   9.490  0.00  0.00    +0.000 A 
ATOM      6  C   UNL     1      45.755   4.638   8.223  0.00  0.00    +0.000 A 
ATOM      7  C   UNL     1      45.492   3.289   7.978  0.00  0.00    +0.000 A 
ATOM      8  C   UNL     1      44.858   2.532   8.958  0.00  0.00    +0.000 A 
ATOM      9  C   UNL     1      44.643   3.078  10.225  0.00  0.00    +0.000 A 
BRANCH   7  10
ATOM     10  O   UNL     1      45.841   2.833   6.744  0.00  0.00    +0.000 OA
BRANCH  10  11
ATOM     11  C   UNL     1      47.102   2.186   6.601  0.00  0.00    +0.000 C 
ATOM     12  F   UNL     1      48.092   2.698   7.360  0.00  0.00    +0.000 F 
ATOM     13  F   UNL     1      46.956   0.878   6.912  0.00  0.00    +0.000 F 
ATOM     14  F   UNL     1      47.491   2.268   5.308  0.00  0.00    +0.000 F 
ENDBRANCH  10  11
ENDBRANCH   7  10
ENDBRANCH   1   4
BRANCH   1  15
ATOM     15  N   UNL     1      45.456   6.287  12.105  0.00  0.00    +0.000 N 
ATOM     16  H   UNL     1      44.773   7.005  12.313  0.00  0.00    +0.000 HD
BRANCH  15  20
ATOM     17  C   UNL     1      49.183   7.831  12.815  0.00  0.00    +0.000 A 
ATOM     18  C   UNL     1      48.232   8.493  12.060  0.00  0.00    +0.000 A 
ATOM     19  N   UNL     1      46.999   7.973  11.829  0.00  0.00    +0.000 NA
ATOM     20  C   UNL     1      46.728   6.765  12.375  0.00  0.00    +0.000 A 
ATOM     21  C   UNL     1      47.700   6.104  13.121  0.00  0.00    +0.000 A 
ATOM     22  N   UNL     1      48.943   6.616  13.362  0.00  0.00    +0.000 NA
BRANCH  17  24
ATOM     23  N   UNL     1      51.492   8.932  13.249  0.00  0.00    +0.000 NA
ATOM     24  C   UNL     1      50.472   8.419  13.039  0.00  0.00    +0.000 C 
ENDBRANCH  17  24
ENDBRANCH  15  20
ENDBRANCH   1  15
TORSDOF 6
ENDMDL
MODEL 8
REMARK VINA RESULT:    -6.207      4.594      7.029
REMARK INTER + INTRA:          -9.112
REMARK INTER:                  -8.288
REMARK INTRA:                  -0.824
REMARK UNBOUND:                -0.728
REMARK  Name = 
REMARK  6 active torsions:
REMARK  status: ('A' for Active; 'I' for Inactive)
REMARK    1  A    between atoms: C_2  and  C_3
REMARK    2  A    between atoms: C_6  and  N_7
REMARK    3  A    between atoms: N_7  and  C_8
REMARK    4  A    between atoms: C_8  and  C_9
REMARK    5  A    between atoms: C_12  and  O_13
REMARK    6  A    between atoms: O_13  and  C_14
REMARK                            x       y       z     vdW  Elec       q    Type
REMARK                         _______ _______ _______ _____ _____    ______ ____
ROOT
ATOM      1  C   UNL     1      46.220   7.366  12.248  0.00  0.00    +0.000 C 
ATOM      2  C   UNL     1      46.310   8.851  11.889  0.00  0.00    +0.000 C 
ATOM      3  C   UNL     1      45.303   8.395  12.889  0.00  0.00    +0.000 C 
ENDROOT
BRANCH   1   4
ATOM      4  C   UNL     1      45.594   6.452  11.204  0.00  0.00    +0.000 A 
ATOM      5  C   UNL     1      46.272   6.132  10.020  0.00  0.00    +0.000 A 
ATOM      6  C   UNL     1      45.807   5.124   9.172  0.00  0.00    +0.000 A 
ATOM      7  C   UNL     1      44.645   4.419   9.488  0.00  0.00    +0.000 A 
ATOM      8  C   UNL     1      43.876   4.830  10.572  0.00  0.00    +0.000 A 
ATOM      9  C   UNL     1      44.354   5.829  11.423  0.00  0.00    +0.000 A 
BRANCH   7  10
ATOM     10  O   UNL     1      44.329   3.392   8.653  0.00  0.00    +0.000 OA
BRANCH  10  11
ATOM     11  C   UNL     1      44.993   2.146   8.840  0.00  0.00    +0.000 C 
ATOM     12  F   UNL     1      44.188   1.064   8.804  0.00  0.00    +0.000 F 
ATOM     13  F   UNL     1      45.938   2.009   7.883  0.00  0.00    +0.000 F 
ATOM     14  F   UNL     1      45.611   2.157  10.043  0.00  0.00    +0.000 F 
ENDBRANCH  10  11
ENDBRANCH   7  10
ENDBRANCH   1   4
BRANCH   1  15
ATOM     15  N   UNL     1      47.400   6.805  12.890  0.00  0.00    +0.000 N 
ATOM     16  H   UNL     1      48.297   7.252  12.753  0.00  0.00    +0.000 HD
BRANCH  15  20
ATOM     17  C   UNL     1      47.714   4.406  16.196  0.00  0.00    +0.000 A 
ATOM     18  C   UNL     1      48.484   5.542  16.022  0.00  0.00    +0.000 A 
ATOM     19  N   UNL     1      48.373   6.331  14.922  0.00  0.00    +0.000 NA
ATOM     20  C   UNL     1      47.467   5.962  13.988  0.00  0.00    +0.000 A 
ATOM     21  C   UNL     1      46.710   4.808  14.170  0.00  0.00    +0.000 A 
ATOM     22  N   UNL     1      46.810   4.007  15.271  0.00  0.00    +0.000 NA
BRANCH  17  24
ATOM     23  N   UNL     1      47.997   2.915  18.301  0.00  0.00    +0.000 NA
ATOM     24  C   UNL     1      47.859   3.603  17.376  0.00  0.00    +0.000 C 
ENDBRANCH  17  24
ENDBRANCH  15  20
ENDBRANCH   1  15
TORSDOF 6
ENDMDL
MODEL 9
REMARK VINA RESULT:    -5.928      5.046      7.649
REMARK INTER + INTRA:          -8.735
REMARK INTER:                  -8.427
REMARK INTRA:                  -0.308
REMARK UNBOUND:                -0.728
REMARK  Name = 
REMARK  6 active torsions:
REMARK  status: ('A' for Active; 'I' for Inactive)
REMARK    1  A    between atoms: C_2  and  C_3
REMARK    2  A    between atoms: C_6  and  N_7
REMARK    3  A    between atoms: N_7  and  C_8
REMARK    4  A    between atoms: C_8  and  C_9
REMARK    5  A    between atoms: C_12  and  O_13
REMARK    6  A    between atoms: O_13  and  C_14
REMARK                            x       y       z     vdW  Elec       q    Type
REMARK                         _______ _______ _______ _____ _____    ______ ____
ROOT
ATOM      1  C   UNL     1      46.941   6.761  12.889  0.00  0.00    +0.000 C 
ATOM      2  C   UNL     1      47.318   8.009  12.091  0.00  0.00    +0.000 C 
ATOM      3  C   UNL     1      46.392   8.130  13.251  0.00  0.00    +0.000 C 
ENDROOT
BRANCH   1   4
ATOM      4  C   UNL     1      45.973   5.793  12.221  0.00  0.00    +0.000 A 
ATOM      5  C   UNL     1      45.452   6.054  10.946  0.00  0.00    +0.000 A 
ATOM      6  C   UNL     1      44.751   5.073  10.239  0.00  0.00    +0.000 A 
ATOM      7  C   UNL     1      44.550   3.811  10.799  0.00  0.00    +0.000 A 
ATOM      8  C   UNL     1      44.919   3.589  12.121  0.00  0.00    +0.000 A 
ATOM      9  C   UNL     1      45.631   4.568  12.817  0.00  0.00    +0.000 A 
BRANCH   7  10
ATOM     10  O   UNL     1      43.944   2.896   9.994  0.00  0.00    +0.000 OA
BRANCH  10  11
ATOM     11  C   UNL     1      44.728   2.267   8.985  0.00  0.00    +0.000 C 
ATOM     12  F   UNL     1      46.055   2.250   9.226  0.00  0.00    +0.000 F 
ATOM     13  F   UNL     1      44.302   0.992   8.837  0.00  0.00    +0.000 F 
ATOM     14  F   UNL     1      44.531   2.913   7.812  0.00  0.00    +0.000 F 
ENDBRANCH  10  11
ENDBRANCH   7  10
ENDBRANCH   1   4
BRANCH   1  15
ATOM     15  N   UNL     1      48.040   6.106  13.585  0.00  0.00    +0.000 N 
ATOM     16  H   UNL     1      48.937   6.022  13.123  0.00  0.00    +0.000 HD
BRANCH  15  20
ATOM     17  C   UNL     1      48.440   5.347  17.591  0.00  0.00    +0.000 A 
ATOM     18  C   UNL     1      47.893   4.433  16.709  0.00  0.00    +0.000 A 
ATOM     19  N   UNL     1      47.764   4.693  15.382  0.00  0.00    +0.000 NA
ATOM     20  C   UNL     1      48.199   5.898  14.945  0.00  0.00    +0.000 A 
ATOM     21  C   UNL     1      48.734   6.814  15.848  0.00  0.00    +0.000 A 
ATOM     22  N   UNL     1      48.871   6.564  17.183  0.00  0.00    +0.000 NA
BRANCH  17  24
ATOM     23  N   UNL     1      48.659   4.824  20.122  0.00  0.00    +0.000 NA
ATOM     24  C   UNL     1      48.563   5.030  18.984  0.00  0.00    +0.000 C 
ENDBRANCH  17  24
ENDBRANCH  15  20
ENDBRANCH   1  15
TORSDOF 6
ENDMDL
