MODEL 1
REMARK VINA RESULT:    -8.373      0.000      0.000
REMARK INTER + INTRA:         -13.186
REMARK INTER:                 -11.800
REMARK INTRA:                  -1.386
REMARK UNBOUND:                -1.386
REMARK  Name = 
REMARK  8 active torsions:
REMARK  status: ('A' for Active; 'I' for Inactive)
REMARK    1  A    between atoms: C_1  and  C_2
REMARK    2  A    between atoms: C_2  and  N_3
REMARK    3  A    between atoms: C_2  and  C_25
REMARK    4  A    between atoms: N_3  and  C_4
REMARK    5  A    between atoms: C_4  and  C_5
REMARK    6  A    between atoms: C_8  and  C_9
REMARK    7  A    between atoms: C_9  and  N_10
REMARK    8  A    between atoms: C_11  and  C_13
REMARK                            x       y       z     vdW  Elec       q    Type
REMARK                         _______ _______ _______ _____ _____    ______ ____
ROOT
ATOM      1  C   UNL     1      44.658   5.706  10.851  0.00  0.00    +0.000 A 
ATOM      2  C   UNL     1      46.044   5.760  10.635  0.00  0.00    +0.000 A 
ATOM      3  C   UNL     1      46.865   6.543  11.447  0.00  0.00    +0.000 A 
ATOM      4  C   UNL     1      46.317   7.303  12.489  0.00  0.00    +0.000 A 
ATOM      5  C   UNL     1      44.929   7.295  12.672  0.00  0.00    +0.000 A 
ATOM      6  C   UNL     1      44.108   6.500  11.868  0.00  0.00    +0.000 A 
ENDROOT
BRANCH   1   7
ATOM      7  C   UNL     1      43.776   4.815  10.006  0.00  0.00    +0.000 C 
BRANCH   7   8
ATOM      8  N   UNL     1      44.455   4.433   8.766  0.00  0.00    +0.000 NA
ATOM      9  H   UNL     1      43.962   4.861   7.983  0.00  0.00    +0.000 HD
BRANCH   8  11
ATOM     10  C   UNL     1      44.610   2.178   9.823  0.00  0.00    +0.000 C 
ATOM     11  C   UNL     1      44.514   2.985   8.523  0.00  0.00    +0.000 C 
BRANCH  11  12
ATOM     12  C   UNL     1      45.706   2.632   7.647  0.00  0.00    +0.000 A 
ATOM     13  C   UNL     1      46.134   3.437   6.583  0.00  0.00    +0.000 A 
ATOM     14  C   UNL     1      47.272   3.092   5.861  0.00  0.00    +0.000 A 
ATOM     15  C   UNL     1      47.960   1.949   6.228  0.00  0.00    +0.000 A 
ATOM     16  N   UNL     1      47.586   1.143   7.244  0.00  0.00    +0.000 NA
ATOM     17  C   UNL     1      46.474   1.503   7.927  0.00  0.00    +0.000 A 
ENDBRANCH  11  12
ENDBRANCH   8  11
ENDBRANCH   7   8
ENDBRANCH   1   7
BRANCH   4  18
ATOM     18  C   UNL     1      47.196   8.134  13.387  0.00  0.00    +0.000 C 
BRANCH  18  19
ATOM     19  N   UNL     1      47.552   7.414  14.581  0.00  0.00    +0.000 N 
ATOM     20  C   UNL     1      48.808   6.894  14.746  0.00  0.00    +0.000 C 
ATOM     21  O   UNL     1      49.693   7.041  13.908  0.00  0.00    +0.000 OA
ATOM     22  H   UNL     1      46.788   7.072  15.156  0.00  0.00    +0.000 HD
BRANCH  20  23
ATOM     23  C   UNL     1      49.064   6.202  16.016  0.00  0.00    +0.000 A 
ATOM     24  C   UNL     1      50.081   6.646  16.850  0.00  0.00    +0.000 A 
ATOM     25  S   UNL     1      50.209   5.762  18.302  0.00  0.00    +0.000 S 
ATOM     26  C   UNL     1      48.939   4.725  17.843  0.00  0.00    +0.000 A 
ATOM     27  N   UNL     1      48.552   3.697  18.649  0.00  0.00    +0.000 NA
ATOM     28  C   UNL     1      47.599   2.976  18.165  0.00  0.00    +0.000 A 
ATOM     29  N   UNL     1      46.993   3.187  16.953  0.00  0.00    +0.000 N 
ATOM     30  C   UNL     1      47.330   4.232  16.123  0.00  0.00    +0.000 A 
ATOM     31  O   UNL     1      46.736   4.415  15.068  0.00  0.00    +0.000 OA
ATOM     32  C   UNL     1      48.413   5.060  16.610  0.00  0.00    +0.000 A 
ATOM     33  H   UNL     1      46.242   2.589  16.640  0.00  0.00    +0.000 HD
ENDBRANCH  20  23
ENDBRANCH  18  19
ENDBRANCH   4  18
TORSDOF 7
ENDMDL
MODEL 2
REMARK VINA RESULT:    -7.901      1.787      2.054
REMARK INTER + INTRA:         -12.519
REMARK INTER:                 -11.497
REMARK INTRA:                  -1.022
REMARK UNBOUND:                -1.386
REMARK  Name = 
REMARK  8 active torsions:
REMARK  status: ('A' for Active; 'I' for Inactive)
REMARK    1  A    between atoms: C_1  and  C_2
REMARK    2  A    between atoms: C_2  and  N_3
REMARK    3  A    between atoms: C_2  and  C_25
REMARK    4  A    between atoms: N_3  and  C_4
REMARK    5  A    between atoms: C_4  and  C_5
REMARK    6  A    between atoms: C_8  and  C_9
REMARK    7  A    between atoms: C_9  and  N_10
REMARK    8  A    between atoms: C_11  and  C_13
REMARK                            x       y       z     vdW  Elec       q    Type
REMARK                         _______ _______ _______ _____ _____    ______ ____
ROOT
ATOM      1  C   UNL     1      45.150   5.339  11.410  0.00  0.00    +0.000 A 
ATOM      2  C   UNL     1      45.957   6.398  10.965  0.00  0.00    +0.000 A 
ATOM      3  C   UNL     1      47.052   6.828  11.715  0.00  0.00    +0.000 A 
ATOM      4  C   UNL     1      47.360   6.216  12.938  0.00  0.00    +0.000 A 
ATOM      5  C   UNL     1      46.525   5.197  13.412  0.00  0.00    +0.000 A 
ATOM      6  C   UNL     1      45.436   4.757  12.653  0.00  0.00    +0.000 A 
ENDROOT
BRANCH   1   7
ATOM      7  C   UNL     1      43.997   4.837  10.571  0.00  0.00    +0.000 C 
BRANCH   7   8
ATOM      8  N   UNL     1      44.436   4.537   9.207  0.00  0.00    +0.000 NA
ATOM      9  H   UNL     1      43.816   5.015   8.554  0.00  0.00    +0.000 HD
BRANCH   8  11
ATOM     10  C   UNL     1      44.379   2.210  10.107  0.00  0.00    +0.000 C 
ATOM     11  C   UNL     1      44.432   3.108   8.865  0.00  0.00    +0.000 C 
BRANCH  11  12
ATOM     12  C   UNL     1      45.668   2.741   8.058  0.00  0.00    +0.000 A 
ATOM     13  C   UNL     1      46.434   3.689   7.366  0.00  0.00    +0.000 A 
ATOM     14  C   UNL     1      47.592   3.298   6.700  0.00  0.00    +0.000 A 
ATOM     15  C   UNL     1      47.959   1.964   6.750  0.00  0.00    +0.000 A 
ATOM     16  N   UNL     1      47.253   1.017   7.403  0.00  0.00    +0.000 NA
ATOM     17  C   UNL     1      46.131   1.426   8.039  0.00  0.00    +0.000 A 
ENDBRANCH  11  12
ENDBRANCH   8  11
ENDBRANCH   7   8
ENDBRANCH   1   7
BRANCH   4  18
ATOM     18  C   UNL     1      48.553   6.656  13.745  0.00  0.00    +0.000 C 
BRANCH  18  19
ATOM     19  N   UNL     1      48.211   6.830  15.132  0.00  0.00    +0.000 N 
ATOM     20  C   UNL     1      49.128   6.602  16.122  0.00  0.00    +0.000 C 
ATOM     21  O   UNL     1      50.285   6.271  15.879  0.00  0.00    +0.000 OA
ATOM     22  H   UNL     1      47.221   6.855  15.360  0.00  0.00    +0.000 HD
BRANCH  20  23
ATOM     23  C   UNL     1      48.672   6.838  17.498  0.00  0.00    +0.000 A 
ATOM     24  C   UNL     1      48.265   8.110  17.881  0.00  0.00    +0.000 A 
ATOM     25  S   UNL     1      47.722   8.196  19.495  0.00  0.00    +0.000 S 
ATOM     26  C   UNL     1      48.059   6.547  19.751  0.00  0.00    +0.000 A 
ATOM     27  N   UNL     1      47.844   5.972  20.966  0.00  0.00    +0.000 NA
ATOM     28  C   UNL     1      48.169   4.725  21.027  0.00  0.00    +0.000 A 
ATOM     29  N   UNL     1      48.684   3.997  19.985  0.00  0.00    +0.000 N 
ATOM     30  C   UNL     1      48.887   4.530  18.732  0.00  0.00    +0.000 A 
ATOM     31  O   UNL     1      49.307   3.837  17.814  0.00  0.00    +0.000 OA
ATOM     32  C   UNL     1      48.559   5.935  18.617  0.00  0.00    +0.000 A 
ATOM     33  H   UNL     1      48.906   3.019  20.098  0.00  0.00    +0.000 HD
ENDBRANCH  20  23
ENDBRANCH  18  19
ENDBRANCH   4  18
TORSDOF 7
ENDMDL
MODEL 3
REMARK VINA RESULT:    -7.839      2.499      3.099
REMARK INTER + INTRA:         -12.433
REMARK INTER:                 -11.253
REMARK INTRA:                  -1.180
REMARK UNBOUND:                -1.386
REMARK  Name = 
REMARK  8 active torsions:
REMARK  status: ('A' for Active; 'I' for Inactive)
REMARK    1  A    between atoms: C_1  and  C_2
REMARK    2  A    between atoms: C_2  and  N_3
REMARK    3  A    between atoms: C_2  and  C_25
REMARK    4  A    between atoms: N_3  and  C_4
REMARK    5  A    between atoms: C_4  and  C_5
REMARK    6  A    between atoms: C_8  and  C_9
REMARK    7  A    between atoms: C_9  and  N_10
REMARK    8  A    between atoms: C_11  and  C_13
REMARK                            x       y       z     vdW  Elec       q    Type
REMARK                         _______ _______ _______ _____ _____    ______ ____
ROOT
ATOM      1  C   UNL     1      45.273   5.540  11.651  0.00  0.00    +0.000 A 
ATOM      2  C   UNL     1      45.543   4.863  12.851  0.00  0.00    +0.000 A 
ATOM      3  C   UNL     1      46.616   5.238  13.660  0.00  0.00    +0.000 A 
ATOM      4  C   UNL     1      47.455   6.294  13.281  0.00  0.00    +0.000 A 
ATOM      5  C   UNL     1      47.224   6.936  12.059  0.00  0.00    +0.000 A 
ATOM      6  C   UNL     1      46.140   6.569  11.255  0.00  0.00    +0.000 A 
ENDROOT
BRANCH   1   7
ATOM      7  C   UNL     1      44.079   5.169  10.803  0.00  0.00    +0.000 C 
BRANCH   7   8
ATOM      8  N   UNL     1      44.499   4.753   9.463  0.00  0.00    +0.000 NA
ATOM      9  H   UNL     1      43.983   5.304   8.777  0.00  0.00    +0.000 HD
BRANCH   8  11
ATOM     10  C   UNL     1      44.100   2.489  10.434  0.00  0.00    +0.000 C 
ATOM     11  C   UNL     1      44.269   3.333   9.165  0.00  0.00    +0.000 C 
BRANCH  11  12
ATOM     12  C   UNL     1      45.420   2.758   8.354  0.00  0.00    +0.000 A 
ATOM     13  C   UNL     1      46.237   3.543   7.529  0.00  0.00    +0.000 A 
ATOM     14  C   UNL     1      47.315   2.967   6.864  0.00  0.00    +0.000 A 
ATOM     15  C   UNL     1      47.554   1.616   7.048  0.00  0.00    +0.000 A 
ATOM     16  N   UNL     1      46.795   0.821   7.832  0.00  0.00    +0.000 NA
ATOM     17  C   UNL     1      45.753   1.408   8.464  0.00  0.00    +0.000 A 
ENDBRANCH  11  12
ENDBRANCH   8  11
ENDBRANCH   7   8
ENDBRANCH   1   7
BRANCH   4  18
ATOM     18  C   UNL     1      48.603   6.724  14.158  0.00  0.00    +0.000 C 
BRANCH  18  19
ATOM     19  N   UNL     1      48.196   6.835  15.534  0.00  0.00    +0.000 N 
ATOM     20  C   UNL     1      48.999   6.387  16.548  0.00  0.00    +0.000 C 
ATOM     21  O   UNL     1      50.107   5.901  16.340  0.00  0.00    +0.000 OA
ATOM     22  H   UNL     1      47.208   6.995  15.709  0.00  0.00    +0.000 HD
BRANCH  20  23
ATOM     23  C   UNL     1      48.491   6.577  17.913  0.00  0.00    +0.000 A 
ATOM     24  C   UNL     1      48.403   5.490  18.773  0.00  0.00    +0.000 A 
ATOM     25  S   UNL     1      47.841   5.896  20.330  0.00  0.00    +0.000 S 
ATOM     26  C   UNL     1      47.650   7.530  19.892  0.00  0.00    +0.000 A 
ATOM     27  N   UNL     1      47.164   8.438  20.783  0.00  0.00    +0.000 NA
ATOM     28  C   UNL     1      47.045   9.632  20.310  0.00  0.00    +0.000 A 
ATOM     29  N   UNL     1      47.372  10.005  19.031  0.00  0.00    +0.000 N 
ATOM     30  C   UNL     1      47.897   9.127  18.109  0.00  0.00    +0.000 A 
ATOM     31  O   UNL     1      48.218   9.507  16.991  0.00  0.00    +0.000 OA
ATOM     32  C   UNL     1      48.029   7.767  18.585  0.00  0.00    +0.000 A 
ATOM     33  H   UNL     1      47.265  10.963  18.729  0.00  0.00    +0.000 HD
ENDBRANCH  20  23
ENDBRANCH  18  19
ENDBRANCH   4  18
TORSDOF 7
ENDMDL
MODEL 4
REMARK VINA RESULT:    -7.447      2.905      3.750
REMARK INTER + INTRA:         -11.881
REMARK INTER:                 -10.865
REMARK INTRA:                  -1.016
REMARK UNBOUND:                -1.386
REMARK  Name = 
REMARK  8 active torsions:
REMARK  status: ('A' for Active; 'I' for Inactive)
REMARK    1  A    between atoms: C_1  and  C_2
REMARK    2  A    between atoms: C_2  and  N_3
REMARK    3  A    between atoms: C_2  and  C_25
REMARK    4  A    between atoms: N_3  and  C_4
REMARK    5  A    between atoms: C_4  and  C_5
REMARK    6  A    between atoms: C_8  and  C_9
REMARK    7  A    between atoms: C_9  and  N_10
REMARK    8  A    between atoms: C_11  and  C_13
REMARK                            x       y       z     vdW  Elec       q    Type
REMARK                         _______ _______ _______ _____ _____    ______ ____
ROOT
ATOM      1  C   UNL     1      46.609   4.636  13.507  0.00  0.00    +0.000 A 
ATOM      2  C   UNL     1      47.253   5.789  13.032  0.00  0.00    +0.000 A 
ATOM      3  C   UNL     1      48.113   6.520  13.853  0.00  0.00    +0.000 A 
ATOM      4  C   UNL     1      48.341   6.119  15.176  0.00  0.00    +0.000 A 
ATOM      5  C   UNL     1      47.659   5.001  15.671  0.00  0.00    +0.000 A 
ATOM      6  C   UNL     1      46.808   4.262  14.844  0.00  0.00    +0.000 A 
ENDROOT
BRANCH   1   7
ATOM      7  C   UNL     1      45.721   3.815  12.600  0.00  0.00    +0.000 C 
BRANCH   7   8
ATOM      8  N   UNL     1      44.824   4.677  11.828  0.00  0.00    +0.000 NA
ATOM      9  H   UNL     1      44.161   5.111  12.470  0.00  0.00    +0.000 HD
BRANCH   8  11
ATOM     10  C   UNL     1      43.380   2.709  11.313  0.00  0.00    +0.000 C 
ATOM     11  C   UNL     1      44.054   3.981  10.788  0.00  0.00    +0.000 C 
BRANCH  11  12
ATOM     12  C   UNL     1      44.946   3.605   9.615  0.00  0.00    +0.000 A 
ATOM     13  C   UNL     1      45.210   2.277   9.255  0.00  0.00    +0.000 A 
ATOM     14  C   UNL     1      45.981   1.998   8.130  0.00  0.00    +0.000 A 
ATOM     15  C   UNL     1      46.465   3.062   7.388  0.00  0.00    +0.000 A 
ATOM     16  N   UNL     1      46.238   4.356   7.696  0.00  0.00    +0.000 NA
ATOM     17  C   UNL     1      45.487   4.595   8.796  0.00  0.00    +0.000 A 
ENDBRANCH  11  12
ENDBRANCH   8  11
ENDBRANCH   7   8
ENDBRANCH   1   7
BRANCH   4  18
ATOM     18  C   UNL     1      49.286   6.885  16.065  0.00  0.00    +0.000 C 
BRANCH  18  19
ATOM     19  N   UNL     1      50.357   6.047  16.535  0.00  0.00    +0.000 N 
ATOM     20  C   UNL     1      50.329   5.500  17.790  0.00  0.00    +0.000 C 
ATOM     21  O   UNL     1      49.385   5.670  18.558  0.00  0.00    +0.000 OA
ATOM     22  H   UNL     1      51.237   6.099  16.030  0.00  0.00    +0.000 HD
BRANCH  20  23
ATOM     23  C   UNL     1      51.464   4.641  18.151  0.00  0.00    +0.000 A 
ATOM     24  C   UNL     1      52.558   5.184  18.810  0.00  0.00    +0.000 A 
ATOM     25  S   UNL     1      53.761   4.040  19.196  0.00  0.00    +0.000 S 
ATOM     26  C   UNL     1      52.881   2.787  18.452  0.00  0.00    +0.000 A 
ATOM     27  N   UNL     1      53.377   1.520  18.404  0.00  0.00    +0.000 NA
ATOM     28  C   UNL     1      52.619   0.678  17.787  0.00  0.00    +0.000 A 
ATOM     29  N   UNL     1      51.409   0.982  17.218  0.00  0.00    +0.000 N 
ATOM     30  C   UNL     1      50.855   2.242  17.272  0.00  0.00    +0.000 A 
ATOM     31  O   UNL     1      49.752   2.465  16.791  0.00  0.00    +0.000 OA
ATOM     32  C   UNL     1      51.679   3.230  17.935  0.00  0.00    +0.000 A 
ATOM     33  H   UNL     1      50.860   0.270  16.760  0.00  0.00    +0.000 HD
ENDBRANCH  20  23
ENDBRANCH  18  19
ENDBRANCH   4  18
TORSDOF 7
ENDMDL
MODEL 5
REMARK VINA RESULT:    -7.241      2.852      8.517
REMARK INTER + INTRA:         -11.590
REMARK INTER:                  -9.931
REMARK INTRA:                  -1.659
REMARK UNBOUND:                -1.386
REMARK  Name = 
REMARK  8 active torsions:
REMARK  status: ('A' for Active; 'I' for Inactive)
REMARK    1  A    between atoms: C_1  and  C_2
REMARK    2  A    between atoms: C_2  and  N_3
REMARK    3  A    between atoms: C_2  and  C_25
REMARK    4  A    between atoms: N_3  and  C_4
REMARK    5  A    between atoms: C_4  and  C_5
REMARK    6  A    between atoms: C_8  and  C_9
REMARK    7  A    between atoms: C_9  and  N_10
REMARK    8  A    between atoms: C_11  and  C_13
REMARK                            x       y       z     vdW  Elec       q    Type
REMARK                         _______ _______ _______ _____ _____    ______ ____
ROOT
ATOM      1  C   UNL     1      48.666   7.823  16.189  0.00  0.00    +0.000 A 
ATOM      2  C   UNL     1      48.226   8.982  15.530  0.00  0.00    +0.000 A 
ATOM      3  C   UNL     1      47.831   8.940  14.192  0.00  0.00    +0.000 A 
ATOM      4  C   UNL     1      47.880   7.736  13.476  0.00  0.00    +0.000 A 
ATOM      5  C   UNL     1      48.371   6.590  14.113  0.00  0.00    +0.000 A 
ATOM      6  C   UNL     1      48.753   6.630  15.457  0.00  0.00    +0.000 A 
ENDROOT
BRANCH   1   7
ATOM      7  C   UNL     1      49.041   7.859  17.653  0.00  0.00    +0.000 C 
BRANCH   7   8
ATOM      8  N   UNL     1      47.933   7.392  18.487  0.00  0.00    +0.000 NA
ATOM      9  H   UNL     1      47.675   8.140  19.131  0.00  0.00    +0.000 HD
BRANCH   8  11
ATOM     10  C   UNL     1      49.593   6.282  19.983  0.00  0.00    +0.000 C 
ATOM     11  C   UNL     1      48.231   6.195  19.285  0.00  0.00    +0.000 C 
BRANCH  11  12
ATOM     12  C   UNL     1      48.215   4.947  18.416  0.00  0.00    +0.000 A 
ATOM     13  C   UNL     1      49.349   4.150  18.207  0.00  0.00    +0.000 A 
ATOM     14  C   UNL     1      49.253   2.984  17.454  0.00  0.00    +0.000 A 
ATOM     15  C   UNL     1      48.018   2.640  16.932  0.00  0.00    +0.000 A 
ATOM     16  N   UNL     1      46.900   3.376  17.106  0.00  0.00    +0.000 NA
ATOM     17  C   UNL     1      47.024   4.505  17.841  0.00  0.00    +0.000 A 
ENDBRANCH  11  12
ENDBRANCH   8  11
ENDBRANCH   7   8
ENDBRANCH   1   7
BRANCH   4  18
ATOM     18  C   UNL     1      47.434   7.673  12.038  0.00  0.00    +0.000 C 
BRANCH  18  19
ATOM     19  N   UNL     1      46.764   6.432  11.753  0.00  0.00    +0.000 N 
ATOM     20  C   UNL     1      45.398   6.350  11.749  0.00  0.00    +0.000 C 
ATOM     21  O   UNL     1      44.682   7.327  11.956  0.00  0.00    +0.000 OA
ATOM     22  H   UNL     1      47.317   5.583  11.829  0.00  0.00    +0.000 HD
BRANCH  20  23
ATOM     23  C   UNL     1      44.825   5.038  11.420  0.00  0.00    +0.000 A 
ATOM     24  C   UNL     1      44.049   4.370  12.357  0.00  0.00    +0.000 A 
ATOM     25  S   UNL     1      43.424   2.887  11.795  0.00  0.00    +0.000 S 
ATOM     26  C   UNL     1      44.210   3.066  10.295  0.00  0.00    +0.000 A 
ATOM     27  N   UNL     1      44.109   2.104   9.336  0.00  0.00    +0.000 NA
ATOM     28  C   UNL     1      44.776   2.356   8.261  0.00  0.00    +0.000 A 
ATOM     29  N   UNL     1      45.532   3.482   8.053  0.00  0.00    +0.000 N 
ATOM     30  C   UNL     1      45.635   4.493   8.982  0.00  0.00    +0.000 A 
ATOM     31  O   UNL     1      46.282   5.504   8.742  0.00  0.00    +0.000 OA
ATOM     32  C   UNL     1      44.921   4.248  10.217  0.00  0.00    +0.000 A 
ATOM     33  H   UNL     1      46.020   3.622   7.180  0.00  0.00    +0.000 HD
ENDBRANCH  20  23
ENDBRANCH  18  19
ENDBRANCH   4  18
TORSDOF 7
ENDMDL
MODEL 6
REMARK VINA RESULT:    -6.868      3.850      5.102
REMARK INTER + INTRA:         -11.065
REMARK INTER:                  -9.933
REMARK INTRA:                  -1.132
REMARK UNBOUND:                -1.386
REMARK  Name = 
REMARK  8 active torsions:
REMARK  status: ('A' for Active; 'I' for Inactive)
REMARK    1  A    between atoms: C_1  and  C_2
REMARK    2  A    between atoms: C_2  and  N_3
REMARK    3  A    between atoms: C_2  and  C_25
REMARK    4  A    between atoms: N_3  and  C_4
REMARK    5  A    between atoms: C_4  and  C_5
REMARK    6  A    between atoms: C_8  and  C_9
REMARK    7  A    between atoms: C_9  and  N_10
REMARK    8  A    between atoms: C_11  and  C_13
REMARK                            x       y       z     vdW  Elec       q    Type
REMARK                         _______ _______ _______ _____ _____    ______ ____
ROOT
ATOM      1  C   UNL     1      45.507   5.662  11.659  0.00  0.00    +0.000 A 
ATOM      2  C   UNL     1      45.984   4.861  12.708  0.00  0.00    +0.000 A 
ATOM      3  C   UNL     1      47.045   5.286  13.509  0.00  0.00    +0.000 A 
ATOM      4  C   UNL     1      47.665   6.519  13.270  0.00  0.00    +0.000 A 
ATOM      5  C   UNL     1      47.229   7.296  12.190  0.00  0.00    +0.000 A 
ATOM      6  C   UNL     1      46.157   6.876  11.397  0.00  0.00    +0.000 A 
ENDROOT
BRANCH   1   7
ATOM      7  C   UNL     1      44.323   5.225  10.827  0.00  0.00    +0.000 C 
BRANCH   7   8
ATOM      8  N   UNL     1      44.747   4.825   9.484  0.00  0.00    +0.000 NA
ATOM      9  H   UNL     1      44.310   5.450   8.807  0.00  0.00    +0.000 HD
BRANCH   8  11
ATOM     10  C   UNL     1      44.106   2.572  10.342  0.00  0.00    +0.000 C 
ATOM     11  C   UNL     1      44.395   3.447   9.118  0.00  0.00    +0.000 C 
BRANCH  11  12
ATOM     12  C   UNL     1      45.513   2.798   8.316  0.00  0.00    +0.000 A 
ATOM     13  C   UNL     1      46.346   3.519   7.450  0.00  0.00    +0.000 A 
ATOM     14  C   UNL     1      47.393   2.878   6.795  0.00  0.00    +0.000 A 
ATOM     15  C   UNL     1      47.586   1.527   7.030  0.00  0.00    +0.000 A 
ATOM     16  N   UNL     1      46.810   0.793   7.855  0.00  0.00    +0.000 NA
ATOM     17  C   UNL     1      45.798   1.443   8.476  0.00  0.00    +0.000 A 
ENDBRANCH  11  12
ENDBRANCH   8  11
ENDBRANCH   7   8
ENDBRANCH   1   7
BRANCH   4  18
ATOM     18  C   UNL     1      48.795   7.000  14.143  0.00  0.00    +0.000 C 
BRANCH  18  19
ATOM     19  N   UNL     1      49.975   7.274  13.366  0.00  0.00    +0.000 N 
ATOM     20  C   UNL     1      50.354   8.558  13.083  0.00  0.00    +0.000 C 
ATOM     21  O   UNL     1      49.731   9.532  13.500  0.00  0.00    +0.000 OA
ATOM     22  H   UNL     1      50.349   6.508  12.814  0.00  0.00    +0.000 HD
BRANCH  20  23
ATOM     23  C   UNL     1      51.589   8.717  12.304  0.00  0.00    +0.000 A 
ATOM     24  C   UNL     1      51.523   9.158  10.989  0.00  0.00    +0.000 A 
ATOM     25  S   UNL     1      53.048   9.332  10.249  0.00  0.00    +0.000 S 
ATOM     26  C   UNL     1      53.847   8.777  11.647  0.00  0.00    +0.000 A 
ATOM     27  N   UNL     1      55.203   8.654  11.673  0.00  0.00    +0.000 NA
ATOM     28  C   UNL     1      55.672   8.196  12.784  0.00  0.00    +0.000 A 
ATOM     29  N   UNL     1      54.913   7.853  13.873  0.00  0.00    +0.000 N 
ATOM     30  C   UNL     1      53.543   7.993  13.902  0.00  0.00    +0.000 A 
ATOM     31  O   UNL     1      52.904   7.718  14.909  0.00  0.00    +0.000 OA
ATOM     32  C   UNL     1      52.965   8.482  12.669  0.00  0.00    +0.000 A 
ATOM     33  H   UNL     1      55.347   7.511  14.718  0.00  0.00    +0.000 HD
ENDBRANCH  20  23
ENDBRANCH  18  19
ENDBRANCH   4  18
TORSDOF 7
ENDMDL
MODEL 7
REMARK VINA RESULT:    -6.856      3.329      8.146
REMARK INTER + INTRA:         -11.048
REMARK INTER:                  -9.527
REMARK INTRA:                  -1.520
REMARK UNBOUND:                -1.386
REMARK  Name = 
REMARK  8 active torsions:
REMARK  status: ('A' for Active; 'I' for Inactive)
REMARK    1  A    between atoms: C_1  and  C_2
REMARK    2  A    between atoms: C_2  and  N_3
REMARK    3  A    between atoms: C_2  and  C_25
REMARK    4  A    between atoms: N_3  and  C_4
REMARK    5  A    between atoms: C_4  and  C_5
REMARK    6  A    between atoms: C_8  and  C_9
REMARK    7  A    between atoms: C_9  and  N_10
REMARK    8  A    between atoms: C_11  and  C_13
REMARK                            x       y       z     vdW  Elec       q    Type
REMARK                         _______ _______ _______ _____ _____    ______ ____
ROOT
ATOM      1  C   UNL     1      48.659   7.760  16.349  0.00  0.00    +0.000 A 
ATOM      2  C   UNL     1      48.233   8.967  15.773  0.00  0.00    +0.000 A 
ATOM      3  C   UNL     1      48.121   9.101  14.389  0.00  0.00    +0.000 A 
ATOM      4  C   UNL     1      48.446   8.032  13.544  0.00  0.00    +0.000 A 
ATOM      5  C   UNL     1      48.924   6.844  14.111  0.00  0.00    +0.000 A 
ATOM      6  C   UNL     1      49.022   6.706  15.499  0.00  0.00    +0.000 A 
ENDROOT
BRANCH   1   7
ATOM      7  C   UNL     1      48.727   7.598  17.851  0.00  0.00    +0.000 C 
BRANCH   7   8
ATOM      8  N   UNL     1      49.848   6.738  18.232  0.00  0.00    +0.000 NA
ATOM      9  H   UNL     1      50.282   6.376  17.383  0.00  0.00    +0.000 HD
BRANCH   8  11
ATOM     10  C   UNL     1      50.542   5.277  20.132  0.00  0.00    +0.000 C 
ATOM     11  C   UNL     1      49.479   5.591  19.073  0.00  0.00    +0.000 C 
BRANCH  11  12
ATOM     12  C   UNL     1      49.262   4.347  18.226  0.00  0.00    +0.000 A 
ATOM     13  C   UNL     1      47.992   3.916  17.819  0.00  0.00    +0.000 A 
ATOM     14  C   UNL     1      47.864   2.807  16.989  0.00  0.00    +0.000 A 
ATOM     15  C   UNL     1      49.017   2.157  16.581  0.00  0.00    +0.000 A 
ATOM     16  N   UNL     1      50.259   2.534  16.948  0.00  0.00    +0.000 NA
ATOM     17  C   UNL     1      50.351   3.615  17.757  0.00  0.00    +0.000 A 
ENDBRANCH  11  12
ENDBRANCH   8  11
ENDBRANCH   7   8
ENDBRANCH   1   7
BRANCH   4  18
ATOM     18  C   UNL     1      48.306   8.156  12.049  0.00  0.00    +0.000 C 
BRANCH  18  19
ATOM     19  N   UNL     1      47.608   7.027  11.494  0.00  0.00    +0.000 N 
ATOM     20  C   UNL     1      46.242   7.012  11.409  0.00  0.00    +0.000 C 
ATOM     21  O   UNL     1      45.553   7.962  11.770  0.00  0.00    +0.000 OA
ATOM     22  H   UNL     1      48.125   6.155  11.427  0.00  0.00    +0.000 HD
BRANCH  20  23
ATOM     23  C   UNL     1      45.641   5.818  10.800  0.00  0.00    +0.000 A 
ATOM     24  C   UNL     1      45.813   5.575   9.444  0.00  0.00    +0.000 A 
ATOM     25  S   UNL     1      45.093   4.124   8.913  0.00  0.00    +0.000 S 
ATOM     26  C   UNL     1      44.485   3.796  10.470  0.00  0.00    +0.000 A 
ATOM     27  N   UNL     1      43.730   2.687  10.704  0.00  0.00    +0.000 NA
ATOM     28  C   UNL     1      43.313   2.578  11.920  0.00  0.00    +0.000 A 
ATOM     29  N   UNL     1      43.583   3.470  12.925  0.00  0.00    +0.000 N 
ATOM     30  C   UNL     1      44.368   4.587  12.740  0.00  0.00    +0.000 A 
ATOM     31  O   UNL     1      44.624   5.338  13.672  0.00  0.00    +0.000 OA
ATOM     32  C   UNL     1      44.843   4.767  11.384  0.00  0.00    +0.000 A 
ATOM     33  H   UNL     1      43.234   3.317  13.860  0.00  0.00    +0.000 HD
ENDBRANCH  20  23
ENDBRANCH  18  19
ENDBRANCH   4  18
TORSDOF 7
ENDMDL
MODEL 8
REMARK VINA RESULT:    -6.741      3.754      5.155
REMARK INTER + INTRA:         -10.886
REMARK INTER:                  -9.542
REMARK INTRA:                  -1.344
REMARK UNBOUND:                -1.386
REMARK  Name = 
REMARK  8 active torsions:
REMARK  status: ('A' for Active; 'I' for Inactive)
REMARK    1  A    between atoms: C_1  and  C_2
REMARK    2  A    between atoms: C_2  and  N_3
REMARK    3  A    between atoms: C_2  and  C_25
REMARK    4  A    between atoms: N_3  and  C_4
REMARK    5  A    between atoms: C_4  and  C_5
REMARK    6  A    between atoms: C_8  and  C_9
REMARK    7  A    between atoms: C_9  and  N_10
REMARK    8  A    between atoms: C_11  and  C_13
REMARK                            x       y       z     vdW  Elec       q    Type
REMARK                         _______ _______ _______ _____ _____    ______ ____
ROOT
ATOM      1  C   UNL     1      45.491   6.636  11.761  0.00  0.00    +0.000 A 
ATOM      2  C   UNL     1      45.216   7.923  12.251  0.00  0.00    +0.000 A 
ATOM      3  C   UNL     1      46.111   8.573  13.101  0.00  0.00    +0.000 A 
ATOM      4  C   UNL     1      47.301   7.945  13.493  0.00  0.00    +0.000 A 
ATOM      5  C   UNL     1      47.553   6.640  13.052  0.00  0.00    +0.000 A 
ATOM      6  C   UNL     1      46.662   5.995  12.189  0.00  0.00    +0.000 A 
ENDROOT
BRANCH   1   7
ATOM      7  C   UNL     1      44.547   5.955  10.797  0.00  0.00    +0.000 C 
BRANCH   7   8
ATOM      8  N   UNL     1      45.287   5.167   9.810  0.00  0.00    +0.000 NA
ATOM      9  H   UNL     1      45.469   5.755   8.997  0.00  0.00    +0.000 HD
BRANCH   8  11
ATOM     10  C   UNL     1      44.070   3.103  10.506  0.00  0.00    +0.000 C 
ATOM     11  C   UNL     1      44.591   3.959   9.347  0.00  0.00    +0.000 C 
BRANCH  11  12
ATOM     12  C   UNL     1      45.508   3.101   8.489  0.00  0.00    +0.000 A 
ATOM     13  C   UNL     1      46.357   3.637   7.511  0.00  0.00    +0.000 A 
ATOM     14  C   UNL     1      47.221   2.805   6.805  0.00  0.00    +0.000 A 
ATOM     15  C   UNL     1      47.218   1.453   7.102  0.00  0.00    +0.000 A 
ATOM     16  N   UNL     1      46.418   0.892   8.035  0.00  0.00    +0.000 NA
ATOM     17  C   UNL     1      45.588   1.726   8.703  0.00  0.00    +0.000 A 
ENDBRANCH  11  12
ENDBRANCH   8  11
ENDBRANCH   7   8
ENDBRANCH   1   7
BRANCH   4  18
ATOM     18  C   UNL     1      48.286   8.645  14.392  0.00  0.00    +0.000 C 
BRANCH  18  19
ATOM     19  N   UNL     1      49.586   8.726  13.779  0.00  0.00    +0.000 N 
ATOM     20  C   UNL     1      49.965   9.832  13.068  0.00  0.00    +0.000 C 
ATOM     21  O   UNL     1      49.237  10.814  12.945  0.00  0.00    +0.000 OA
ATOM     22  H   UNL     1      50.091   7.853  13.656  0.00  0.00    +0.000 HD
BRANCH  20  23
ATOM     23  C   UNL     1      51.324   9.813  12.510  0.00  0.00    +0.000 A 
ATOM     24  C   UNL     1      52.240  10.784  12.893  0.00  0.00    +0.000 A 
ATOM     25  S   UNL     1      53.780  10.585  12.189  0.00  0.00    +0.000 S 
ATOM     26  C   UNL     1      53.260   9.222  11.311  0.00  0.00    +0.000 A 
ATOM     27  N   UNL     1      54.107   8.573  10.466  0.00  0.00    +0.000 NA
ATOM     28  C   UNL     1      53.574   7.576   9.845  0.00  0.00    +0.000 A 
ATOM     29  N   UNL     1      52.274   7.163   9.993  0.00  0.00    +0.000 N 
ATOM     30  C   UNL     1      51.394   7.770  10.861  0.00  0.00    +0.000 A 
ATOM     31  O   UNL     1      50.254   7.346  11.000  0.00  0.00    +0.000 OA
ATOM     32  C   UNL     1      51.938   8.911  11.566  0.00  0.00    +0.000 A 
ATOM     33  H   UNL     1      51.924   6.365   9.484  0.00  0.00    +0.000 HD
ENDBRANCH  20  23
ENDBRANCH  18  19
ENDBRANCH   4  18
TORSDOF 7
ENDMDL
MODEL 9
REMARK VINA RESULT:    -6.350      4.975      7.576
REMARK INTER + INTRA:         -10.334
REMARK INTER:                  -9.283
REMARK INTRA:                  -1.051
REMARK UNBOUND:                -1.386
REMARK  Name = 
REMARK  8 active torsions:
REMARK  status: ('A' for Active; 'I' for Inactive)
REMARK    1  A    between atoms: C_1  and  C_2
REMARK    2  A    between atoms: C_2  and  N_3
REMARK    3  A    between atoms: C_2  and  C_25
REMARK    4  A    between atoms: N_3  and  C_4
REMARK    5  A    between atoms: C_4  and  C_5
REMARK    6  A    between atoms: C_8  and  C_9
REMARK    7  A    between atoms: C_9  and  N_10
REMARK    8  A    between atoms: C_11  and  C_13
REMARK                            x       y       z     vdW  Elec       q    Type
REMARK                         _______ _______ _______ _____ _____    ______ ____
ROOT
ATOM      1  C   UNL     1      50.220   9.063  11.446  0.00  0.00    +0.000 A 
ATOM      2  C   UNL     1      49.364  10.115  11.807  0.00  0.00    +0.000 A 
ATOM      3  C   UNL     1      48.051   9.866  12.206  0.00  0.00    +0.000 A 
ATOM      4  C   UNL     1      47.556   8.556  12.243  0.00  0.00    +0.000 A 
ATOM      5  C   UNL     1      48.389   7.508  11.831  0.00  0.00    +0.000 A 
ATOM      6  C   UNL     1      49.709   7.757  11.444  0.00  0.00    +0.000 A 
ENDROOT
BRANCH   1   7
ATOM      7  C   UNL     1      51.659   9.329  11.066  0.00  0.00    +0.000 C 
BRANCH   7   8
ATOM      8  N   UNL     1      52.223   8.195  10.332  0.00  0.00    +0.000 NA
ATOM      9  H   UNL     1      52.678   7.572  10.999  0.00  0.00    +0.000 HD
BRANCH   8  11
ATOM     10  C   UNL     1      52.766   9.759   8.466  0.00  0.00    +0.000 C 
ATOM     11  C   UNL     1      53.213   8.561   9.311  0.00  0.00    +0.000 C 
BRANCH  11  12
ATOM     12  C   UNL     1      53.486   7.390   8.378  0.00  0.00    +0.000 A 
ATOM     13  C   UNL     1      53.879   6.126   8.839  0.00  0.00    +0.000 A 
ATOM     14  C   UNL     1      54.050   5.078   7.940  0.00  0.00    +0.000 A 
ATOM     15  C   UNL     1      53.816   5.321   6.597  0.00  0.00    +0.000 A 
ATOM     16  N   UNL     1      53.437   6.521   6.108  0.00  0.00    +0.000 NA
ATOM     17  C   UNL     1      53.281   7.521   7.006  0.00  0.00    +0.000 A 
ENDBRANCH  11  12
ENDBRANCH   8  11
ENDBRANCH   7   8
ENDBRANCH   1   7
BRANCH   4  18
ATOM     18  C   UNL     1      46.147   8.271  12.696  0.00  0.00    +0.000 C 
BRANCH  18  19
ATOM     19  N   UNL     1      45.768   6.915  12.402  0.00  0.00    +0.000 N 
ATOM     20  C   UNL     1      44.637   6.637  11.683  0.00  0.00    +0.000 C 
ATOM     21  O   UNL     1      43.913   7.520  11.231  0.00  0.00    +0.000 OA
ATOM     22  H   UNL     1      46.197   6.186  12.964  0.00  0.00    +0.000 HD
BRANCH  20  23
ATOM     23  C   UNL     1      44.364   5.217  11.423  0.00  0.00    +0.000 A 
ATOM     24  C   UNL     1      43.624   4.478  12.336  0.00  0.00    +0.000 A 
ATOM     25  S   UNL     1      43.360   2.864  11.856  0.00  0.00    +0.000 S 
ATOM     26  C   UNL     1      44.267   3.085  10.432  0.00  0.00    +0.000 A 
ATOM     27  N   UNL     1      44.462   2.056   9.562  0.00  0.00    +0.000 NA
ATOM     28  C   UNL     1      45.191   2.356   8.542  0.00  0.00    +0.000 A 
ATOM     29  N   UNL     1      45.739   3.590   8.305  0.00  0.00    +0.000 N 
ATOM     30  C   UNL     1      45.541   4.667   9.140  0.00  0.00    +0.000 A 
ATOM     31  O   UNL     1      46.010   5.766   8.873  0.00  0.00    +0.000 OA
ATOM     32  C   UNL     1      44.747   4.376  10.315  0.00  0.00    +0.000 A 
ATOM     33  H   UNL     1      46.291   3.761   7.477  0.00  0.00    +0.000 HD
ENDBRANCH  20  23
ENDBRANCH  18  19
ENDBRANCH   4  18
TORSDOF 7
ENDMDL
