MODEL 1
REMARK VINA RESULT:    -8.483      0.000      0.000
REMARK INTER + INTRA:         -11.942
REMARK INTER:                 -10.963
REMARK INTRA:                  -0.979
REMARK UNBOUND:                -0.979
REMARK  Name = 
REMARK  5 active torsions:
REMARK  status: ('A' for Active; 'I' for Inactive)
REMARK    1  A    between atoms: C_2  and  C_4
REMARK    2  A    between atoms: C_7  and  S_8
REMARK    3  A    between atoms: S_8  and  C_9
REMARK    4  A    between atoms: C_9  and  C_10
REMARK    5  A    between atoms: C_15  and  C_16
REMARK                            x       y       z     vdW  Elec       q    Type
REMARK                         _______ _______ _______ _____ _____    ______ ____
ROOT
ATOM      1  C   UNL     1      45.131   5.300  11.965  0.00  0.00    +0.000 A 
ATOM      2  C   UNL     1      45.293   4.580  13.153  0.00  0.00    +0.000 A 
ATOM      3  C   UNL     1      46.362   4.861  13.997  0.00  0.00    +0.000 A 
ATOM      4  C   UNL     1      47.267   5.870  13.667  0.00  0.00    +0.000 A 
ATOM      5  F   UNL     1      48.258   6.109  14.539  0.00  0.00    +0.000 F 
ATOM      6  C   UNL     1      47.152   6.623  12.485  0.00  0.00    +0.000 A 
ATOM      7  C   UNL     1      46.060   6.312  11.645  0.00  0.00    +0.000 A 
ENDROOT
BRANCH   6   8
ATOM      8  C   UNL     1      48.120   7.693  12.128  0.00  0.00    +0.000 A 
ATOM      9  C   UNL     1      47.759   9.056  12.145  0.00  0.00    +0.000 A 
ATOM     10  C   UNL     1      48.663  10.068  11.796  0.00  0.00    +0.000 A 
ATOM     11  C   UNL     1      49.965   9.739  11.437  0.00  0.00    +0.000 A 
ATOM     12  C   UNL     1      50.344   8.407  11.426  0.00  0.00    +0.000 A 
ATOM     13  F   UNL     1      51.599   8.083  11.088  0.00  0.00    +0.000 F 
ATOM     14  C   UNL     1      49.444   7.394  11.758  0.00  0.00    +0.000 A 
ENDBRANCH   6   8
BRANCH   1  15
ATOM     15  C   UNL     1      43.967   5.004  11.045  0.00  0.00    +0.000 C 
BRANCH  15  16
ATOM     16  S   UNL     1      43.779   3.213  10.762  0.00  0.00    +0.000 S 
BRANCH  16  20
ATOM     17  C   UNL     1      46.701   2.628   7.338  0.00  0.00    +0.000 A 
ATOM     18  C   UNL     1      46.233   3.910   7.621  0.00  0.00    +0.000 A 
ATOM     19  C   UNL     1      45.337   4.089   8.677  0.00  0.00    +0.000 A 
ATOM     20  C   UNL     1      44.934   2.982   9.423  0.00  0.00    +0.000 A 
ATOM     21  N   UNL     1      45.378   1.735   9.161  0.00  0.00    +0.000 NA
ATOM     22  C   UNL     1      46.241   1.582   8.122  0.00  0.00    +0.000 A 
BRANCH  17  24
ATOM     23  N   UNL     1      47.638   3.181   5.158  0.00  0.00    +0.000 N 
ATOM     24  C   UNL     1      47.629   2.328   6.227  0.00  0.00    +0.000 C 
ATOM     25  O   UNL     1      48.385   1.365   6.272  0.00  0.00    +0.000 OA
ATOM     26  H   UNL     1      48.345   3.009   4.452  0.00  0.00    +0.000 HD
ATOM     27  H   UNL     1      47.219   4.100   5.181  0.00  0.00    +0.000 HD
ENDBRANCH  17  24
ENDBRANCH  16  20
ENDBRANCH  15  16
ENDBRANCH   1  15
TORSDOF 5
ENDMDL
MODEL 2
REMARK VINA RESULT:    -8.456      2.316      4.435
REMARK INTER + INTRA:         -11.907
REMARK INTER:                 -11.094
REMARK INTRA:                  -0.813
REMARK UNBOUND:                -0.979
REMARK  Name = 
REMARK  5 active torsions:
REMARK  status: ('A' for Active; 'I' for Inactive)
REMARK    1  A    between atoms: C_2  and  C_4
REMARK    2  A    between atoms: C_7  and  S_8
REMARK    3  A    between atoms: S_8  and  C_9
REMARK    4  A    between atoms: C_9  and  C_10
REMARK    5  A    between atoms: C_15  and  C_16
REMARK                            x       y       z     vdW  Elec       q    Type
REMARK                         _______ _______ _______ _____ _____    ______ ____
ROOT
ATOM      1  C   UNL     1      45.367   4.863  12.633  0.00  0.00    +0.000 A 
ATOM      2  C   UNL     1      46.015   5.935  12.011  0.00  0.00    +0.000 A 
ATOM      3  C   UNL     1      47.142   6.502  12.597  0.00  0.00    +0.000 A 
ATOM      4  C   UNL     1      47.635   5.995  13.799  0.00  0.00    +0.000 A 
ATOM      5  F   UNL     1      48.742   6.569  14.294  0.00  0.00    +0.000 F 
ATOM      6  C   UNL     1      47.021   4.920  14.467  0.00  0.00    +0.000 A 
ATOM      7  C   UNL     1      45.877   4.368  13.852  0.00  0.00    +0.000 A 
ENDROOT
BRANCH   6   8
ATOM      8  C   UNL     1      47.541   4.384  15.752  0.00  0.00    +0.000 A 
ATOM      9  C   UNL     1      48.009   3.059  15.868  0.00  0.00    +0.000 A 
ATOM     10  C   UNL     1      48.487   2.544  17.081  0.00  0.00    +0.000 A 
ATOM     11  C   UNL     1      48.527   3.353  18.209  0.00  0.00    +0.000 A 
ATOM     12  C   UNL     1      48.083   4.663  18.114  0.00  0.00    +0.000 A 
ATOM     13  F   UNL     1      48.124   5.451  19.196  0.00  0.00    +0.000 F 
ATOM     14  C   UNL     1      47.592   5.177  16.914  0.00  0.00    +0.000 A 
ENDBRANCH   6   8
BRANCH   1  15
ATOM     15  C   UNL     1      44.144   4.238  11.999  0.00  0.00    +0.000 C 
BRANCH  15  16
ATOM     16  S   UNL     1      43.775   4.988  10.379  0.00  0.00    +0.000 S 
BRANCH  16  20
ATOM     17  C   UNL     1      46.459   2.475   7.717  0.00  0.00    +0.000 A 
ATOM     18  C   UNL     1      45.669   1.844   8.678  0.00  0.00    +0.000 A 
ATOM     19  C   UNL     1      44.842   2.618   9.494  0.00  0.00    +0.000 A 
ATOM     20  C   UNL     1      44.824   4.002   9.327  0.00  0.00    +0.000 A 
ATOM     21  N   UNL     1      45.582   4.628   8.402  0.00  0.00    +0.000 NA
ATOM     22  C   UNL     1      46.388   3.856   7.626  0.00  0.00    +0.000 A 
BRANCH  17  24
ATOM     23  N   UNL     1      48.469   2.434   6.342  0.00  0.00    +0.000 N 
ATOM     24  C   UNL     1      47.387   1.750   6.824  0.00  0.00    +0.000 C 
ATOM     25  O   UNL     1      47.211   0.571   6.546  0.00  0.00    +0.000 OA
ATOM     26  H   UNL     1      49.140   1.893   5.808  0.00  0.00    +0.000 HD
ATOM     27  H   UNL     1      48.783   3.313   6.727  0.00  0.00    +0.000 HD
ENDBRANCH  17  24
ENDBRANCH  16  20
ENDBRANCH  15  16
ENDBRANCH   1  15
TORSDOF 5
ENDMDL
MODEL 3
REMARK VINA RESULT:    -8.437      1.652      2.183
REMARK INTER + INTRA:         -11.882
REMARK INTER:                 -10.933
REMARK INTRA:                  -0.949
REMARK UNBOUND:                -0.979
REMARK  Name = 
REMARK  5 active torsions:
REMARK  status: ('A' for Active; 'I' for Inactive)
REMARK    1  A    between atoms: C_2  and  C_4
REMARK    2  A    between atoms: C_7  and  S_8
REMARK    3  A    between atoms: S_8  and  C_9
REMARK    4  A    between atoms: C_9  and  C_10
REMARK    5  A    between atoms: C_15  and  C_16
REMARK                            x       y       z     vdW  Elec       q    Type
REMARK                         _______ _______ _______ _____ _____    ______ ____
ROOT
ATOM      1  C   UNL     1      45.409   4.690  12.578  0.00  0.00    +0.000 A 
ATOM      2  C   UNL     1      46.108   4.082  13.625  0.00  0.00    +0.000 A 
ATOM      3  C   UNL     1      47.152   4.756  14.249  0.00  0.00    +0.000 A 
ATOM      4  C   UNL     1      47.496   6.044  13.839  0.00  0.00    +0.000 A 
ATOM      5  F   UNL     1      48.493   6.649  14.503  0.00  0.00    +0.000 F 
ATOM      6  C   UNL     1      46.827   6.702  12.791  0.00  0.00    +0.000 A 
ATOM      7  C   UNL     1      45.775   5.991  12.173  0.00  0.00    +0.000 A 
ENDROOT
BRANCH   6   8
ATOM      8  C   UNL     1      47.197   8.071  12.348  0.00  0.00    +0.000 A 
ATOM      9  C   UNL     1      48.485   8.368  11.856  0.00  0.00    +0.000 A 
ATOM     10  C   UNL     1      48.845   9.661  11.450  0.00  0.00    +0.000 A 
ATOM     11  C   UNL     1      47.913  10.689  11.509  0.00  0.00    +0.000 A 
ATOM     12  C   UNL     1      46.637  10.416  11.977  0.00  0.00    +0.000 A 
ATOM     13  F   UNL     1      45.731  11.401  12.030  0.00  0.00    +0.000 F 
ATOM     14  C   UNL     1      46.278   9.135  12.397  0.00  0.00    +0.000 A 
ENDBRANCH   6   8
BRANCH   1  15
ATOM     15  C   UNL     1      44.268   3.964  11.898  0.00  0.00    +0.000 C 
BRANCH  15  16
ATOM     16  S   UNL     1      43.797   4.776  10.337  0.00  0.00    +0.000 S 
BRANCH  16  20
ATOM     17  C   UNL     1      46.625   2.677   7.473  0.00  0.00    +0.000 A 
ATOM     18  C   UNL     1      45.879   1.917   8.373  0.00  0.00    +0.000 A 
ATOM     19  C   UNL     1      45.007   2.564   9.251  0.00  0.00    +0.000 A 
ATOM     20  C   UNL     1      44.902   3.954   9.205  0.00  0.00    +0.000 A 
ATOM     21  N   UNL     1      45.617   4.703   8.340  0.00  0.00    +0.000 NA
ATOM     22  C   UNL     1      46.468   4.054   7.502  0.00  0.00    +0.000 A 
BRANCH  17  24
ATOM     23  N   UNL     1      47.963   2.849   5.444  0.00  0.00    +0.000 N 
ATOM     24  C   UNL     1      47.595   2.093   6.523  0.00  0.00    +0.000 C 
ATOM     25  O   UNL     1      48.074   0.981   6.707  0.00  0.00    +0.000 OA
ATOM     26  H   UNL     1      48.697   2.467   4.858  0.00  0.00    +0.000 HD
ATOM     27  H   UNL     1      47.786   3.841   5.379  0.00  0.00    +0.000 HD
ENDBRANCH  17  24
ENDBRANCH  16  20
ENDBRANCH  15  16
ENDBRANCH   1  15
TORSDOF 5
ENDMDL
MODEL 4
REMARK VINA RESULT:    -8.076      1.483      2.044
REMARK INTER + INTRA:         -11.415
REMARK INTER:                 -10.392
REMARK INTRA:                  -1.023
REMARK UNBOUND:                -0.979
REMARK  Name = 
REMARK  5 active torsions:
REMARK  status: ('A' for Active; 'I' for Inactive)
REMARK    1  A    between atoms: C_2  and  C_4
REMARK    2  A    between atoms: C_7  and  S_8
REMARK    3  A    between atoms: S_8  and  C_9
REMARK    4  A    between atoms: C_9  and  C_10
REMARK    5  A    between atoms: C_15  and  C_16
REMARK                            x       y       z     vdW  Elec       q    Type
REMARK                         _______ _______ _______ _____ _____    ______ ____
ROOT
ATOM      1  C   UNL     1      45.252   5.090  12.082  0.00  0.00    +0.000 A 
ATOM      2  C   UNL     1      44.259   6.023  11.769  0.00  0.00    +0.000 A 
ATOM      3  C   UNL     1      44.565   7.380  11.734  0.00  0.00    +0.000 A 
ATOM      4  C   UNL     1      45.865   7.810  11.999  0.00  0.00    +0.000 A 
ATOM      5  F   UNL     1      46.098   9.129  11.920  0.00  0.00    +0.000 F 
ATOM      6  C   UNL     1      46.901   6.914  12.321  0.00  0.00    +0.000 A 
ATOM      7  C   UNL     1      46.559   5.545  12.353  0.00  0.00    +0.000 A 
ENDROOT
BRANCH   6   8
ATOM      8  C   UNL     1      48.284   7.372  12.612  0.00  0.00    +0.000 A 
ATOM      9  C   UNL     1      49.142   7.836  11.592  0.00  0.00    +0.000 A 
ATOM     10  C   UNL     1      50.452   8.255  11.858  0.00  0.00    +0.000 A 
ATOM     11  C   UNL     1      50.932   8.239  13.162  0.00  0.00    +0.000 A 
ATOM     12  C   UNL     1      50.102   7.800  14.181  0.00  0.00    +0.000 A 
ATOM     13  F   UNL     1      50.557   7.788  15.441  0.00  0.00    +0.000 F 
ATOM     14  C   UNL     1      48.802   7.366  13.920  0.00  0.00    +0.000 A 
ENDBRANCH   6   8
BRANCH   1  15
ATOM     15  C   UNL     1      44.927   3.612  12.115  0.00  0.00    +0.000 C 
BRANCH  15  16
ATOM     16  S   UNL     1      43.775   3.152  10.781  0.00  0.00    +0.000 S 
BRANCH  16  20
ATOM     17  C   UNL     1      46.677   2.602   7.334  0.00  0.00    +0.000 A 
ATOM     18  C   UNL     1      46.193   3.878   7.619  0.00  0.00    +0.000 A 
ATOM     19  C   UNL     1      45.302   4.046   8.681  0.00  0.00    +0.000 A 
ATOM     20  C   UNL     1      44.922   2.934   9.433  0.00  0.00    +0.000 A 
ATOM     21  N   UNL     1      45.382   1.693   9.170  0.00  0.00    +0.000 NA
ATOM     22  C   UNL     1      46.239   1.551   8.124  0.00  0.00    +0.000 A 
BRANCH  17  24
ATOM     23  N   UNL     1      47.621   3.190   5.166  0.00  0.00    +0.000 N 
ATOM     24  C   UNL     1      47.601   2.313   6.216  0.00  0.00    +0.000 C 
ATOM     25  O   UNL     1      48.343   1.340   6.240  0.00  0.00    +0.000 OA
ATOM     26  H   UNL     1      48.326   3.023   4.457  0.00  0.00    +0.000 HD
ATOM     27  H   UNL     1      47.216   4.114   5.210  0.00  0.00    +0.000 HD
ENDBRANCH  17  24
ENDBRANCH  16  20
ENDBRANCH  15  16
ENDBRANCH   1  15
TORSDOF 5
ENDMDL
MODEL 5
REMARK VINA RESULT:    -7.894      4.540      7.487
REMARK INTER + INTRA:         -11.180
REMARK INTER:                 -10.946
REMARK INTRA:                  -0.234
REMARK UNBOUND:                -0.979
REMARK  Name = 
REMARK  5 active torsions:
REMARK  status: ('A' for Active; 'I' for Inactive)
REMARK    1  A    between atoms: C_2  and  C_4
REMARK    2  A    between atoms: C_7  and  S_8
REMARK    3  A    between atoms: S_8  and  C_9
REMARK    4  A    between atoms: C_9  and  C_10
REMARK    5  A    between atoms: C_15  and  C_16
REMARK                            x       y       z     vdW  Elec       q    Type
REMARK                         _______ _______ _______ _____ _____    ______ ____
ROOT
ATOM      1  C   UNL     1      44.990   5.646  11.103  0.00  0.00    +0.000 A 
ATOM      2  C   UNL     1      43.915   5.024  11.744  0.00  0.00    +0.000 A 
ATOM      3  C   UNL     1      43.470   3.780  11.309  0.00  0.00    +0.000 A 
ATOM      4  C   UNL     1      44.105   3.145  10.242  0.00  0.00    +0.000 A 
ATOM      5  F   UNL     1      43.645   1.934   9.893  0.00  0.00    +0.000 F 
ATOM      6  C   UNL     1      45.190   3.726   9.561  0.00  0.00    +0.000 A 
ATOM      7  C   UNL     1      45.616   4.991  10.021  0.00  0.00    +0.000 A 
ENDROOT
BRANCH   6   8
ATOM      8  C   UNL     1      45.862   3.054   8.418  0.00  0.00    +0.000 A 
ATOM      9  C   UNL     1      46.271   3.769   7.273  0.00  0.00    +0.000 A 
ATOM     10  C   UNL     1      46.892   3.139   6.187  0.00  0.00    +0.000 A 
ATOM     11  C   UNL     1      47.138   1.772   6.228  0.00  0.00    +0.000 A 
ATOM     12  C   UNL     1      46.757   1.052   7.349  0.00  0.00    +0.000 A 
ATOM     13  F   UNL     1      46.997  -0.264   7.399  0.00  0.00    +0.000 F 
ATOM     14  C   UNL     1      46.124   1.671   8.427  0.00  0.00    +0.000 A 
ENDBRANCH   6   8
BRANCH   1  15
ATOM     15  C   UNL     1      45.483   6.997  11.574  0.00  0.00    +0.000 C 
BRANCH  15  16
ATOM     16  S   UNL     1      47.287   6.997  11.831  0.00  0.00    +0.000 S 
BRANCH  16  20
ATOM     17  C   UNL     1      47.565   4.710  15.742  0.00  0.00    +0.000 A 
ATOM     18  C   UNL     1      48.233   5.927  15.617  0.00  0.00    +0.000 A 
ATOM     19  C   UNL     1      48.144   6.631  14.414  0.00  0.00    +0.000 A 
ATOM     20  C   UNL     1      47.388   6.101  13.369  0.00  0.00    +0.000 A 
ATOM     21  N   UNL     1      46.735   4.924  13.475  0.00  0.00    +0.000 NA
ATOM     22  C   UNL     1      46.845   4.250  14.651  0.00  0.00    +0.000 A 
BRANCH  17  24
ATOM     23  N   UNL     1      48.764   3.910  17.707  0.00  0.00    +0.000 N 
ATOM     24  C   UNL     1      47.618   3.875  16.961  0.00  0.00    +0.000 C 
ATOM     25  O   UNL     1      46.660   3.197  17.309  0.00  0.00    +0.000 OA
ATOM     26  H   UNL     1      48.743   3.404  18.585  0.00  0.00    +0.000 HD
ATOM     27  H   UNL     1      49.472   4.622  17.597  0.00  0.00    +0.000 HD
ENDBRANCH  17  24
ENDBRANCH  16  20
ENDBRANCH  15  16
ENDBRANCH   1  15
TORSDOF 5
ENDMDL
MODEL 6
REMARK VINA RESULT:    -7.255      4.695      7.902
REMARK INTER + INTRA:         -10.355
REMARK INTER:                  -9.660
REMARK INTRA:                  -0.695
REMARK UNBOUND:                -0.979
REMARK  Name = 
REMARK  5 active torsions:
REMARK  status: ('A' for Active; 'I' for Inactive)
REMARK    1  A    between atoms: C_2  and  C_4
REMARK    2  A    between atoms: C_7  and  S_8
REMARK    3  A    between atoms: S_8  and  C_9
REMARK    4  A    between atoms: C_9  and  C_10
REMARK    5  A    between atoms: C_15  and  C_16
REMARK                            x       y       z     vdW  Elec       q    Type
REMARK                         _______ _______ _______ _____ _____    ______ ____
ROOT
ATOM      1  C   UNL     1      47.630   7.675  12.564  0.00  0.00    +0.000 A 
ATOM      2  C   UNL     1      46.754   8.727  12.852  0.00  0.00    +0.000 A 
ATOM      3  C   UNL     1      45.437   8.677  12.405  0.00  0.00    +0.000 A 
ATOM      4  C   UNL     1      44.986   7.574  11.681  0.00  0.00    +0.000 A 
ATOM      5  F   UNL     1      43.698   7.577  11.306  0.00  0.00    +0.000 F 
ATOM      6  C   UNL     1      45.825   6.490  11.363  0.00  0.00    +0.000 A 
ATOM      7  C   UNL     1      47.157   6.571  11.825  0.00  0.00    +0.000 A 
ENDROOT
BRANCH   6   8
ATOM      8  C   UNL     1      45.348   5.318  10.585  0.00  0.00    +0.000 A 
ATOM      9  C   UNL     1      45.674   5.149   9.223  0.00  0.00    +0.000 A 
ATOM     10  C   UNL     1      45.214   4.054   8.480  0.00  0.00    +0.000 A 
ATOM     11  C   UNL     1      44.429   3.084   9.091  0.00  0.00    +0.000 A 
ATOM     12  C   UNL     1      44.108   3.223  10.431  0.00  0.00    +0.000 A 
ATOM     13  F   UNL     1      43.356   2.289  11.028  0.00  0.00    +0.000 F 
ATOM     14  C   UNL     1      44.549   4.320  11.172  0.00  0.00    +0.000 A 
ENDBRANCH   6   8
BRANCH   1  15
ATOM     15  C   UNL     1      49.062   7.720  13.052  0.00  0.00    +0.000 C 
BRANCH  15  16
ATOM     16  S   UNL     1      49.172   8.402  14.738  0.00  0.00    +0.000 S 
BRANCH  16  20
ATOM     17  C   UNL     1      47.972   4.761  17.168  0.00  0.00    +0.000 A 
ATOM     18  C   UNL     1      48.402   5.910  17.830  0.00  0.00    +0.000 A 
ATOM     19  C   UNL     1      48.767   7.030  17.082  0.00  0.00    +0.000 A 
ATOM     20  C   UNL     1      48.692   6.973  15.690  0.00  0.00    +0.000 A 
ATOM     21  N   UNL     1      48.279   5.869  15.034  0.00  0.00    +0.000 NA
ATOM     22  C   UNL     1      47.939   4.786  15.783  0.00  0.00    +0.000 A 
BRANCH  17  24
ATOM     23  N   UNL     1      48.323   3.148  18.960  0.00  0.00    +0.000 N 
ATOM     24  C   UNL     1      47.590   3.515  17.865  0.00  0.00    +0.000 C 
ATOM     25  O   UNL     1      46.633   2.847  17.495  0.00  0.00    +0.000 OA
ATOM     26  H   UNL     1      47.987   2.343  19.476  0.00  0.00    +0.000 HD
ATOM     27  H   UNL     1      48.953   3.776  19.439  0.00  0.00    +0.000 HD
ENDBRANCH  17  24
ENDBRANCH  16  20
ENDBRANCH  15  16
ENDBRANCH   1  15
TORSDOF 5
ENDMDL
MODEL 7
REMARK VINA RESULT:    -6.658      6.009      8.695
REMARK INTER + INTRA:          -9.584
REMARK INTER:                  -8.785
REMARK INTRA:                  -0.799
REMARK UNBOUND:                -0.979
REMARK  Name = 
REMARK  5 active torsions:
REMARK  status: ('A' for Active; 'I' for Inactive)
REMARK    1  A    between atoms: C_2  and  C_4
REMARK    2  A    between atoms: C_7  and  S_8
REMARK    3  A    between atoms: S_8  and  C_9
REMARK    4  A    between atoms: C_9  and  C_10
REMARK    5  A    between atoms: C_15  and  C_16
REMARK                            x       y       z     vdW  Elec       q    Type
REMARK                         _______ _______ _______ _____ _____    ______ ____
ROOT
ATOM      1  C   UNL     1      47.890   5.266  15.599  0.00  0.00    +0.000 A 
ATOM      2  C   UNL     1      48.681   6.281  15.051  0.00  0.00    +0.000 A 
ATOM      3  C   UNL     1      48.377   6.800  13.797  0.00  0.00    +0.000 A 
ATOM      4  C   UNL     1      47.276   6.319  13.090  0.00  0.00    +0.000 A 
ATOM      5  F   UNL     1      47.022   6.884  11.899  0.00  0.00    +0.000 F 
ATOM      6  C   UNL     1      46.447   5.299  13.593  0.00  0.00    +0.000 A 
ATOM      7  C   UNL     1      46.783   4.788  14.865  0.00  0.00    +0.000 A 
ENDROOT
BRANCH   6   8
ATOM      8  C   UNL     1      45.278   4.780  12.837  0.00  0.00    +0.000 A 
ATOM      9  C   UNL     1      45.286   3.499  12.247  0.00  0.00    +0.000 A 
ATOM     10  C   UNL     1      44.192   3.010  11.521  0.00  0.00    +0.000 A 
ATOM     11  C   UNL     1      43.049   3.788  11.383  0.00  0.00    +0.000 A 
ATOM     12  C   UNL     1      43.015   5.044  11.966  0.00  0.00    +0.000 A 
ATOM     13  F   UNL     1      41.914   5.797  11.843  0.00  0.00    +0.000 F 
ATOM     14  C   UNL     1      44.107   5.543  12.677  0.00  0.00    +0.000 A 
ENDBRANCH   6   8
BRANCH   1  15
ATOM     15  C   UNL     1      48.211   4.700  16.965  0.00  0.00    +0.000 C 
BRANCH  15  16
ATOM     16  S   UNL     1      48.269   2.879  16.936  0.00  0.00    +0.000 S 
BRANCH  16  20
ATOM     17  C   UNL     1      52.653   2.207  17.904  0.00  0.00    +0.000 A 
ATOM     18  C   UNL     1      52.100   3.473  18.093  0.00  0.00    +0.000 A 
ATOM     19  C   UNL     1      50.751   3.677  17.798  0.00  0.00    +0.000 A 
ATOM     20  C   UNL     1      49.989   2.610  17.324  0.00  0.00    +0.000 A 
ATOM     21  N   UNL     1      50.509   1.379  17.136  0.00  0.00    +0.000 NA
ATOM     22  C   UNL     1      51.827   1.206  17.419  0.00  0.00    +0.000 A 
BRANCH  17  24
ATOM     23  N   UNL     1      54.380   1.216  19.309  0.00  0.00    +0.000 N 
ATOM     24  C   UNL     1      54.074   1.893  18.160  0.00  0.00    +0.000 C 
ATOM     25  O   UNL     1      54.948   2.203  17.360  0.00  0.00    +0.000 OA
ATOM     26  H   UNL     1      55.346   0.931  19.419  0.00  0.00    +0.000 HD
ATOM     27  H   UNL     1      53.688   0.737  19.868  0.00  0.00    +0.000 HD
ENDBRANCH  17  24
ENDBRANCH  16  20
ENDBRANCH  15  16
ENDBRANCH   1  15
TORSDOF 5
ENDMDL
MODEL 8
REMARK VINA RESULT:    -6.644      3.781      6.060
REMARK INTER + INTRA:          -9.566
REMARK INTER:                  -8.682
REMARK INTRA:                  -0.884
REMARK UNBOUND:                -0.979
REMARK  Name = 
REMARK  5 active torsions:
REMARK  status: ('A' for Active; 'I' for Inactive)
REMARK    1  A    between atoms: C_2  and  C_4
REMARK    2  A    between atoms: C_7  and  S_8
REMARK    3  A    between atoms: S_8  and  C_9
REMARK    4  A    between atoms: C_9  and  C_10
REMARK    5  A    between atoms: C_15  and  C_16
REMARK                            x       y       z     vdW  Elec       q    Type
REMARK                         _______ _______ _______ _____ _____    ______ ____
ROOT
ATOM      1  C   UNL     1      48.054   8.077  14.127  0.00  0.00    +0.000 A 
ATOM      2  C   UNL     1      48.363   9.239  14.841  0.00  0.00    +0.000 A 
ATOM      3  C   UNL     1      48.828   9.149  16.149  0.00  0.00    +0.000 A 
ATOM      4  C   UNL     1      48.999   7.901  16.746  0.00  0.00    +0.000 A 
ATOM      5  F   UNL     1      49.479   7.885  17.999  0.00  0.00    +0.000 F 
ATOM      6  C   UNL     1      48.702   6.701  16.074  0.00  0.00    +0.000 A 
ATOM      7  C   UNL     1      48.227   6.823  14.750  0.00  0.00    +0.000 A 
ENDROOT
BRANCH   6   8
ATOM      8  C   UNL     1      48.875   5.370  16.712  0.00  0.00    +0.000 A 
ATOM      9  C   UNL     1      50.137   4.915  17.148  0.00  0.00    +0.000 A 
ATOM     10  C   UNL     1      50.309   3.655  17.738  0.00  0.00    +0.000 A 
ATOM     11  C   UNL     1      49.213   2.823  17.924  0.00  0.00    +0.000 A 
ATOM     12  C   UNL     1      47.961   3.255  17.514  0.00  0.00    +0.000 A 
ATOM     13  F   UNL     1      46.898   2.461  17.697  0.00  0.00    +0.000 F 
ATOM     14  C   UNL     1      47.786   4.502  16.913  0.00  0.00    +0.000 A 
ENDBRANCH   6   8
BRANCH   1  15
ATOM     15  C   UNL     1      47.553   8.167  12.702  0.00  0.00    +0.000 C 
BRANCH  15  16
ATOM     16  S   UNL     1      45.746   8.399  12.644  0.00  0.00    +0.000 S 
BRANCH  16  20
ATOM     17  C   UNL     1      44.426   4.265  11.312  0.00  0.00    +0.000 A 
ATOM     18  C   UNL     1      45.208   5.039  10.455  0.00  0.00    +0.000 A 
ATOM     19  C   UNL     1      45.616   6.309  10.867  0.00  0.00    +0.000 A 
ATOM     20  C   UNL     1      45.233   6.772  12.126  0.00  0.00    +0.000 A 
ATOM     21  N   UNL     1      44.477   6.035  12.967  0.00  0.00    +0.000 NA
ATOM     22  C   UNL     1      44.082   4.806  12.540  0.00  0.00    +0.000 A 
BRANCH  17  24
ATOM     23  N   UNL     1      44.590   2.223   9.993  0.00  0.00    +0.000 N 
ATOM     24  C   UNL     1      43.921   2.922  10.960  0.00  0.00    +0.000 C 
ATOM     25  O   UNL     1      42.954   2.436  11.533  0.00  0.00    +0.000 OA
ATOM     26  H   UNL     1      44.284   1.270   9.834  0.00  0.00    +0.000 HD
ATOM     27  H   UNL     1      45.515   2.473   9.671  0.00  0.00    +0.000 HD
ENDBRANCH  17  24
ENDBRANCH  16  20
ENDBRANCH  15  16
ENDBRANCH   1  15
TORSDOF 5
ENDMDL
MODEL 9
REMARK VINA RESULT:    -5.875      3.910      6.228
REMARK INTER + INTRA:          -8.571
REMARK INTER:                  -7.701
REMARK INTRA:                  -0.871
REMARK UNBOUND:                -0.979
REMARK  Name = 
REMARK  5 active torsions:
REMARK  status: ('A' for Active; 'I' for Inactive)
REMARK    1  A    between atoms: C_2  and  C_4
REMARK    2  A    between atoms: C_7  and  S_8
REMARK    3  A    between atoms: S_8  and  C_9
REMARK    4  A    between atoms: C_9  and  C_10
REMARK    5  A    between atoms: C_15  and  C_16
REMARK                            x       y       z     vdW  Elec       q    Type
REMARK                         _______ _______ _______ _____ _____    ______ ____
ROOT
ATOM      1  C   UNL     1      49.839   8.822  11.764  0.00  0.00    +0.000 A 
ATOM      2  C   UNL     1      50.260  10.156  11.756  0.00  0.00    +0.000 A 
ATOM      3  C   UNL     1      51.419  10.516  11.077  0.00  0.00    +0.000 A 
ATOM      4  C   UNL     1      52.157   9.550  10.394  0.00  0.00    +0.000 A 
ATOM      5  F   UNL     1      53.249   9.970   9.735  0.00  0.00    +0.000 F 
ATOM      6  C   UNL     1      51.781   8.194  10.371  0.00  0.00    +0.000 A 
ATOM      7  C   UNL     1      50.603   7.858  11.072  0.00  0.00    +0.000 A 
ENDROOT
BRANCH   6   8
ATOM      8  C   UNL     1      52.571   7.163   9.650  0.00  0.00    +0.000 A 
ATOM      9  C   UNL     1      52.427   6.954   8.262  0.00  0.00    +0.000 A 
ATOM     10  C   UNL     1      53.159   5.974   7.579  0.00  0.00    +0.000 A 
ATOM     11  C   UNL     1      54.073   5.187   8.269  0.00  0.00    +0.000 A 
ATOM     12  C   UNL     1      54.240   5.384   9.630  0.00  0.00    +0.000 A 
ATOM     13  F   UNL     1      55.124   4.633  10.301  0.00  0.00    +0.000 F 
ATOM     14  C   UNL     1      53.502   6.348  10.319  0.00  0.00    +0.000 A 
ENDBRANCH   6   8
BRANCH   1  15
ATOM     15  C   UNL     1      48.576   8.424  12.496  0.00  0.00    +0.000 C 
BRANCH  15  16
ATOM     16  S   UNL     1      48.880   7.047  13.651  0.00  0.00    +0.000 S 
BRANCH  16  20
ATOM     17  C   UNL     1      45.566   4.208  12.401  0.00  0.00    +0.000 A 
ATOM     18  C   UNL     1      45.703   5.427  11.739  0.00  0.00    +0.000 A 
ATOM     19  C   UNL     1      46.725   6.298  12.122  0.00  0.00    +0.000 A 
ATOM     20  C   UNL     1      47.584   5.926  13.156  0.00  0.00    +0.000 A 
ATOM     21  N   UNL     1      47.464   4.750  13.807  0.00  0.00    +0.000 NA
ATOM     22  C   UNL     1      46.455   3.923  13.425  0.00  0.00    +0.000 A 
BRANCH  17  24
ATOM     23  N   UNL     1      44.502   2.664  10.845  0.00  0.00    +0.000 N 
ATOM     24  C   UNL     1      44.503   3.229  12.091  0.00  0.00    +0.000 C 
ATOM     25  O   UNL     1      43.666   2.913  12.927  0.00  0.00    +0.000 OA
ATOM     26  H   UNL     1      43.822   1.929  10.686  0.00  0.00    +0.000 HD
ATOM     27  H   UNL     1      45.293   2.709  10.218  0.00  0.00    +0.000 HD
ENDBRANCH  17  24
ENDBRANCH  16  20
ENDBRANCH  15  16
ENDBRANCH   1  15
TORSDOF 5
ENDMDL
