MODEL 1
REMARK VINA RESULT:    -8.289      0.000      0.000
REMARK INTER + INTRA:         -12.153
REMARK INTER:                 -11.197
REMARK INTRA:                  -0.957
REMARK UNBOUND:                -0.957
REMARK  Name = 
REMARK  8 active torsions:
REMARK  status: ('A' for Active; 'I' for Inactive)
REMARK    1  A    between atoms: C_1  and  C_2
REMARK    2  A    between atoms: C_2  and  N_3
REMARK    3  A    between atoms: C_2  and  C_17
REMARK    4  A    between atoms: C_4  and  C_6
REMARK    5  A    between atoms: N_12  and  C_13
REMARK    6  A    between atoms: C_20  and  C_21
REMARK    7  A    between atoms: C_21  and  N_22
REMARK    8  A    between atoms: C_23  and  C_25
REMARK                            x       y       z     vdW  Elec       q    Type
REMARK                         _______ _______ _______ _____ _____    ______ ____
ROOT
ATOM      1  C   UNL     1      47.130   4.290  15.932  0.00  0.00    +0.000 C 
ATOM      2  C   UNL     1      47.536   5.062  14.670  0.00  0.00    +0.000 C 
ENDROOT
BRANCH   2   3
ATOM      3  C   UNL     1      46.546   4.910  13.521  0.00  0.00    +0.000 A 
ATOM      4  C   UNL     1      46.072   6.051  12.851  0.00  0.00    +0.000 A 
ATOM      5  C   UNL     1      45.175   5.940  11.780  0.00  0.00    +0.000 A 
ATOM      6  C   UNL     1      44.714   4.685  11.362  0.00  0.00    +0.000 A 
ATOM      7  C   UNL     1      45.155   3.550  12.050  0.00  0.00    +0.000 A 
ATOM      8  C   UNL     1      46.043   3.662  13.124  0.00  0.00    +0.000 A 
BRANCH   6   9
ATOM      9  C   UNL     1      43.786   4.539  10.185  0.00  0.00    +0.000 C 
BRANCH   9  10
ATOM     10  N   UNL     1      44.353   3.707   9.154  0.00  0.00    +0.000 N 
ATOM     11  C   UNL     1      45.440   4.111   8.415  0.00  0.00    +0.000 C 
ATOM     12  O   UNL     1      45.925   5.238   8.494  0.00  0.00    +0.000 OA
ATOM     13  H   UNL     1      44.116   2.719   9.092  0.00  0.00    +0.000 HD
BRANCH  11  14
ATOM     14  C   UNL     1      45.981   3.058   7.439  0.00  0.00    +0.000 C 
ATOM     15  C   UNL     1      46.258   1.722   8.100  0.00  0.00    +0.000 C 
ATOM     16  C   UNL     1      47.177   1.044   7.099  0.00  0.00    +0.000 C 
ATOM     17  C   UNL     1      47.929   2.187   6.429  0.00  0.00    +0.000 C 
ATOM     18  N   UNL     1      47.319   3.433   6.912  0.00  0.00    +0.000 NA
ATOM     19  H   UNL     1      47.209   4.094   6.144  0.00  0.00    +0.000 HD
ENDBRANCH  11  14
ENDBRANCH   9  10
ENDBRANCH   6   9
ENDBRANCH   2   3
BRANCH   2  20
ATOM     20  N   UNL     1      47.716   6.467  14.977  0.00  0.00    +0.000 N 
ATOM     21  C   UNL     1      48.897   7.001  15.411  0.00  0.00    +0.000 C 
ATOM     22  O   UNL     1      49.906   6.318  15.580  0.00  0.00    +0.000 OA
ATOM     23  H   UNL     1      46.938   7.080  14.751  0.00  0.00    +0.000 HD
BRANCH  21  24
ATOM     24  C   UNL     1      48.895   8.441  15.711  0.00  0.00    +0.000 A 
ATOM     25  C   UNL     1      49.309   9.349  14.746  0.00  0.00    +0.000 A 
ATOM     26  S   UNL     1      49.238  10.973  15.259  0.00  0.00    +0.000 S 
ATOM     27  C   UNL     1      48.615  10.523  16.777  0.00  0.00    +0.000 A 
ATOM     28  N   UNL     1      48.288  11.462  17.702  0.00  0.00    +0.000 NA
ATOM     29  C   UNL     1      47.807  10.985  18.804  0.00  0.00    +0.000 A 
ATOM     30  N   UNL     1      47.632   9.646  19.086  0.00  0.00    +0.000 N 
ATOM     31  C   UNL     1      47.118   9.215  20.370  0.00  0.00    +0.000 C 
ATOM     32  C   UNL     1      47.997   8.662  18.178  0.00  0.00    +0.000 A 
ATOM     33  O   UNL     1      47.929   7.463  18.446  0.00  0.00    +0.000 OA
ATOM     34  C   UNL     1      48.502   9.153  16.908  0.00  0.00    +0.000 A 
ENDBRANCH  21  24
ENDBRANCH   2  20
TORSDOF 6
ENDMDL
MODEL 2
REMARK VINA RESULT:    -8.019      1.487      2.660
REMARK INTER + INTRA:         -11.789
REMARK INTER:                 -10.525
REMARK INTRA:                  -1.264
REMARK UNBOUND:                -0.957
REMARK  Name = 
REMARK  8 active torsions:
REMARK  status: ('A' for Active; 'I' for Inactive)
REMARK    1  A    between atoms: C_1  and  C_2
REMARK    2  A    between atoms: C_2  and  N_3
REMARK    3  A    between atoms: C_2  and  C_17
REMARK    4  A    between atoms: C_4  and  C_6
REMARK    5  A    between atoms: N_12  and  C_13
REMARK    6  A    between atoms: C_20  and  C_21
REMARK    7  A    between atoms: C_21  and  N_22
REMARK    8  A    between atoms: C_23  and  C_25
REMARK                            x       y       z     vdW  Elec       q    Type
REMARK                         _______ _______ _______ _____ _____    ______ ____
ROOT
ATOM      1  C   UNL     1      46.967   3.755  16.135  0.00  0.00    +0.000 C 
ATOM      2  C   UNL     1      47.520   4.585  14.970  0.00  0.00    +0.000 C 
ENDROOT
BRANCH   2   3
ATOM      3  C   UNL     1      46.621   4.576  13.739  0.00  0.00    +0.000 A 
ATOM      4  C   UNL     1      46.126   3.358  13.243  0.00  0.00    +0.000 A 
ATOM      5  C   UNL     1      45.284   3.321  12.123  0.00  0.00    +0.000 A 
ATOM      6  C   UNL     1      44.927   4.502  11.459  0.00  0.00    +0.000 A 
ATOM      7  C   UNL     1      45.447   5.713  11.927  0.00  0.00    +0.000 A 
ATOM      8  C   UNL     1      46.295   5.747  13.039  0.00  0.00    +0.000 A 
BRANCH   6   9
ATOM      9  C   UNL     1      43.988   4.491  10.283  0.00  0.00    +0.000 C 
BRANCH   9  10
ATOM     10  N   UNL     1      44.494   3.687   9.199  0.00  0.00    +0.000 N 
ATOM     11  C   UNL     1      45.525   4.119   8.398  0.00  0.00    +0.000 C 
ATOM     12  O   UNL     1      46.002   5.249   8.469  0.00  0.00    +0.000 OA
ATOM     13  H   UNL     1      44.263   2.697   9.131  0.00  0.00    +0.000 HD
BRANCH  11  14
ATOM     14  C   UNL     1      46.010   3.092   7.366  0.00  0.00    +0.000 C 
ATOM     15  C   UNL     1      46.370   1.755   7.982  0.00  0.00    +0.000 C 
ATOM     16  C   UNL     1      47.221   1.112   6.902  0.00  0.00    +0.000 C 
ATOM     17  C   UNL     1      47.891   2.282   6.192  0.00  0.00    +0.000 C 
ATOM     18  N   UNL     1      47.293   3.506   6.740  0.00  0.00    +0.000 NA
ATOM     19  H   UNL     1      47.108   4.175   5.994  0.00  0.00    +0.000 HD
ENDBRANCH  11  14
ENDBRANCH   9  10
ENDBRANCH   6   9
ENDBRANCH   2   3
BRANCH   2  20
ATOM     20  N   UNL     1      47.754   5.951  15.393  0.00  0.00    +0.000 N 
ATOM     21  C   UNL     1      48.895   6.363  16.022  0.00  0.00    +0.000 C 
ATOM     22  O   UNL     1      49.817   5.592  16.285  0.00  0.00    +0.000 OA
ATOM     23  H   UNL     1      47.064   6.637  15.101  0.00  0.00    +0.000 HD
BRANCH  21  24
ATOM     24  C   UNL     1      48.953   7.779  16.416  0.00  0.00    +0.000 A 
ATOM     25  C   UNL     1      49.034   8.121  17.759  0.00  0.00    +0.000 A 
ATOM     26  S   UNL     1      49.101   9.802  18.034  0.00  0.00    +0.000 S 
ATOM     27  C   UNL     1      49.061  10.132  16.366  0.00  0.00    +0.000 A 
ATOM     28  N   UNL     1      49.131  11.408  15.906  0.00  0.00    +0.000 NA
ATOM     29  C   UNL     1      49.110  11.516  14.617  0.00  0.00    +0.000 A 
ATOM     30  N   UNL     1      49.011  10.466  13.729  0.00  0.00    +0.000 N 
ATOM     31  C   UNL     1      48.960  10.699  12.301  0.00  0.00    +0.000 C 
ATOM     32  C   UNL     1      48.895   9.154  14.169  0.00  0.00    +0.000 A 
ATOM     33  O   UNL     1      48.718   8.215  13.395  0.00  0.00    +0.000 OA
ATOM     34  C   UNL     1      48.957   8.981  15.610  0.00  0.00    +0.000 A 
ENDBRANCH  21  24
ENDBRANCH   2  20
TORSDOF 6
ENDMDL
MODEL 3
REMARK VINA RESULT:    -7.833      2.383      3.566
REMARK INTER + INTRA:         -11.538
REMARK INTER:                 -10.518
REMARK INTRA:                  -1.020
REMARK UNBOUND:                -0.957
REMARK  Name = 
REMARK  8 active torsions:
REMARK  status: ('A' for Active; 'I' for Inactive)
REMARK    1  A    between atoms: C_1  and  C_2
REMARK    2  A    between atoms: C_2  and  N_3
REMARK    3  A    between atoms: C_2  and  C_17
REMARK    4  A    between atoms: C_4  and  C_6
REMARK    5  A    between atoms: N_12  and  C_13
REMARK    6  A    between atoms: C_20  and  C_21
REMARK    7  A    between atoms: C_21  and  N_22
REMARK    8  A    between atoms: C_23  and  C_25
REMARK                            x       y       z     vdW  Elec       q    Type
REMARK                         _______ _______ _______ _____ _____    ______ ____
ROOT
ATOM      1  C   UNL     1      49.405   8.110  13.381  0.00  0.00    +0.000 C 
ATOM      2  C   UNL     1      47.988   8.277  13.943  0.00  0.00    +0.000 C 
ENDROOT
BRANCH   2   3
ATOM      3  C   UNL     1      46.927   7.524  13.149  0.00  0.00    +0.000 A 
ATOM      4  C   UNL     1      45.886   8.232  12.524  0.00  0.00    +0.000 A 
ATOM      5  C   UNL     1      44.907   7.567  11.773  0.00  0.00    +0.000 A 
ATOM      6  C   UNL     1      44.934   6.173  11.642  0.00  0.00    +0.000 A 
ATOM      7  C   UNL     1      45.947   5.460  12.292  0.00  0.00    +0.000 A 
ATOM      8  C   UNL     1      46.918   6.125  13.048  0.00  0.00    +0.000 A 
BRANCH   6   9
ATOM      9  C   UNL     1      43.920   5.441  10.803  0.00  0.00    +0.000 C 
BRANCH   9  10
ATOM     10  N   UNL     1      44.525   4.812   9.656  0.00  0.00    +0.000 N 
ATOM     11  C   UNL     1      44.505   3.448   9.485  0.00  0.00    +0.000 C 
ATOM     12  O   UNL     1      44.084   2.670  10.338  0.00  0.00    +0.000 OA
ATOM     13  H   UNL     1      44.783   5.359   8.837  0.00  0.00    +0.000 HD
BRANCH  11  14
ATOM     14  C   UNL     1      45.096   2.958   8.156  0.00  0.00    +0.000 C 
ATOM     15  C   UNL     1      46.083   1.821   8.329  0.00  0.00    +0.000 C 
ATOM     16  C   UNL     1      46.840   1.838   7.013  0.00  0.00    +0.000 C 
ATOM     17  C   UNL     1      46.813   3.297   6.572  0.00  0.00    +0.000 C 
ATOM     18  N   UNL     1      45.931   4.004   7.508  0.00  0.00    +0.000 NA
ATOM     19  H   UNL     1      45.329   4.655   7.005  0.00  0.00    +0.000 HD
ENDBRANCH  11  14
ENDBRANCH   9  10
ENDBRANCH   6   9
ENDBRANCH   2   3
BRANCH   2  20
ATOM     20  N   UNL     1      47.946   7.862  15.331  0.00  0.00    +0.000 N 
ATOM     21  C   UNL     1      48.439   8.612  16.360  0.00  0.00    +0.000 C 
ATOM     22  O   UNL     1      48.968   9.708  16.182  0.00  0.00    +0.000 OA
ATOM     23  H   UNL     1      47.425   7.012  15.530  0.00  0.00    +0.000 HD
BRANCH  21  24
ATOM     24  C   UNL     1      48.347   8.023  17.705  0.00  0.00    +0.000 A 
ATOM     25  C   UNL     1      47.938   8.805  18.777  0.00  0.00    +0.000 A 
ATOM     26  S   UNL     1      47.882   7.962  20.258  0.00  0.00    +0.000 S 
ATOM     27  C   UNL     1      48.367   6.512  19.512  0.00  0.00    +0.000 A 
ATOM     28  N   UNL     1      48.479   5.364  20.230  0.00  0.00    +0.000 NA
ATOM     29  C   UNL     1      48.836   4.332  19.537  0.00  0.00    +0.000 A 
ATOM     30  N   UNL     1      49.112   4.332  18.186  0.00  0.00    +0.000 N 
ATOM     31  C   UNL     1      49.542   3.124  17.512  0.00  0.00    +0.000 C 
ATOM     32  C   UNL     1      49.048   5.497  17.435  0.00  0.00    +0.000 A 
ATOM     33  O   UNL     1      49.375   5.533  16.250  0.00  0.00    +0.000 OA
ATOM     34  C   UNL     1      48.609   6.675  18.163  0.00  0.00    +0.000 A 
ENDBRANCH  21  24
ENDBRANCH   2  20
TORSDOF 6
ENDMDL
MODEL 4
REMARK VINA RESULT:    -7.468      2.866      4.340
REMARK INTER + INTRA:         -11.045
REMARK INTER:                  -9.812
REMARK INTRA:                  -1.232
REMARK UNBOUND:                -0.957
REMARK  Name = 
REMARK  8 active torsions:
REMARK  status: ('A' for Active; 'I' for Inactive)
REMARK    1  A    between atoms: C_1  and  C_2
REMARK    2  A    between atoms: C_2  and  N_3
REMARK    3  A    between atoms: C_2  and  C_17
REMARK    4  A    between atoms: C_4  and  C_6
REMARK    5  A    between atoms: N_12  and  C_13
REMARK    6  A    between atoms: C_20  and  C_21
REMARK    7  A    between atoms: C_21  and  N_22
REMARK    8  A    between atoms: C_23  and  C_25
REMARK                            x       y       z     vdW  Elec       q    Type
REMARK                         _______ _______ _______ _____ _____    ______ ____
ROOT
ATOM      1  C   UNL     1      49.683   9.726  13.325  0.00  0.00    +0.000 C 
ATOM      2  C   UNL     1      48.775   8.829  14.175  0.00  0.00    +0.000 C 
ENDROOT
BRANCH   2   3
ATOM      3  C   UNL     1      47.647   8.180  13.381  0.00  0.00    +0.000 A 
ATOM      4  C   UNL     1      47.700   6.808  13.084  0.00  0.00    +0.000 A 
ATOM      5  C   UNL     1      46.669   6.181  12.370  0.00  0.00    +0.000 A 
ATOM      6  C   UNL     1      45.565   6.916  11.920  0.00  0.00    +0.000 A 
ATOM      7  C   UNL     1      45.525   8.289  12.181  0.00  0.00    +0.000 A 
ATOM      8  C   UNL     1      46.559   8.915  12.885  0.00  0.00    +0.000 A 
BRANCH   6   9
ATOM      9  C   UNL     1      44.424   6.256  11.191  0.00  0.00    +0.000 C 
BRANCH   9  10
ATOM     10  N   UNL     1      44.884   5.467  10.075  0.00  0.00    +0.000 N 
ATOM     11  C   UNL     1      44.308   4.260   9.757  0.00  0.00    +0.000 C 
ATOM     12  O   UNL     1      43.455   3.717  10.456  0.00  0.00    +0.000 OA
ATOM     13  H   UNL     1      45.487   5.874   9.363  0.00  0.00    +0.000 HD
BRANCH  11  14
ATOM     14  C   UNL     1      44.846   3.610   8.476  0.00  0.00    +0.000 C 
ATOM     15  C   UNL     1      45.525   2.278   8.726  0.00  0.00    +0.000 C 
ATOM     16  C   UNL     1      46.342   2.081   7.462  0.00  0.00    +0.000 C 
ATOM     17  C   UNL     1      46.687   3.493   7.002  0.00  0.00    +0.000 C 
ATOM     18  N   UNL     1      45.942   4.412   7.871  0.00  0.00    +0.000 NA
ATOM     19  H   UNL     1      45.542   5.173   7.322  0.00  0.00    +0.000 HD
ENDBRANCH  11  14
ENDBRANCH   9  10
ENDBRANCH   6   9
ENDBRANCH   2   3
BRANCH   2  20
ATOM     20  N   UNL     1      49.558   7.805  14.837  0.00  0.00    +0.000 N 
ATOM     21  C   UNL     1      50.138   7.970  16.062  0.00  0.00    +0.000 C 
ATOM     22  O   UNL     1      50.042   9.017  16.701  0.00  0.00    +0.000 OA
ATOM     23  H   UNL     1      49.573   6.892  14.390  0.00  0.00    +0.000 HD
BRANCH  21  24
ATOM     24  C   UNL     1      50.930   6.840  16.572  0.00  0.00    +0.000 A 
ATOM     25  C   UNL     1      52.296   6.985  16.771  0.00  0.00    +0.000 A 
ATOM     26  S   UNL     1      53.055   5.582  17.371  0.00  0.00    +0.000 S 
ATOM     27  C   UNL     1      51.577   4.740  17.422  0.00  0.00    +0.000 A 
ATOM     28  N   UNL     1      51.517   3.466  17.889  0.00  0.00    +0.000 NA
ATOM     29  C   UNL     1      50.331   2.951  17.892  0.00  0.00    +0.000 A 
ATOM     30  N   UNL     1      49.185   3.581  17.456  0.00  0.00    +0.000 N 
ATOM     31  C   UNL     1      47.907   2.900  17.467  0.00  0.00    +0.000 C 
ATOM     32  C   UNL     1      49.220   4.867  16.933  0.00  0.00    +0.000 A 
ATOM     33  O   UNL     1      48.225   5.411  16.459  0.00  0.00    +0.000 OA
ATOM     34  C   UNL     1      50.527   5.502  16.949  0.00  0.00    +0.000 A 
ENDBRANCH  21  24
ENDBRANCH   2  20
TORSDOF 6
ENDMDL
MODEL 5
REMARK VINA RESULT:    -7.290      4.706      8.718
REMARK INTER + INTRA:         -10.804
REMARK INTER:                  -9.647
REMARK INTRA:                  -1.156
REMARK UNBOUND:                -0.957
REMARK  Name = 
REMARK  8 active torsions:
REMARK  status: ('A' for Active; 'I' for Inactive)
REMARK    1  A    between atoms: C_1  and  C_2
REMARK    2  A    between atoms: C_2  and  N_3
REMARK    3  A    between atoms: C_2  and  C_17
REMARK    4  A    between atoms: C_4  and  C_6
REMARK    5  A    between atoms: N_12  and  C_13
REMARK    6  A    between atoms: C_20  and  C_21
REMARK    7  A    between atoms: C_21  and  N_22
REMARK    8  A    between atoms: C_23  and  C_25
REMARK                            x       y       z     vdW  Elec       q    Type
REMARK                         _______ _______ _______ _____ _____    ______ ____
ROOT
ATOM      1  C   UNL     1      45.647   8.884  13.254  0.00  0.00    +0.000 C 
ATOM      2  C   UNL     1      46.201   8.403  11.906  0.00  0.00    +0.000 C 
ENDROOT
BRANCH   2   3
ATOM      3  C   UNL     1      47.713   8.550  11.784  0.00  0.00    +0.000 A 
ATOM      4  C   UNL     1      48.527   7.405  11.760  0.00  0.00    +0.000 A 
ATOM      5  C   UNL     1      49.919   7.510  11.631  0.00  0.00    +0.000 A 
ATOM      6  C   UNL     1      50.535   8.764  11.540  0.00  0.00    +0.000 A 
ATOM      7  C   UNL     1      49.732   9.908  11.601  0.00  0.00    +0.000 A 
ATOM      8  C   UNL     1      48.344   9.802  11.738  0.00  0.00    +0.000 A 
BRANCH   6   9
ATOM      9  C   UNL     1      52.023   8.900  11.356  0.00  0.00    +0.000 C 
BRANCH   9  10
ATOM     10  N   UNL     1      52.530   7.971  10.377  0.00  0.00    +0.000 N 
ATOM     11  C   UNL     1      52.890   8.377   9.114  0.00  0.00    +0.000 C 
ATOM     12  O   UNL     1      52.699   9.515   8.693  0.00  0.00    +0.000 OA
ATOM     13  H   UNL     1      52.845   7.043  10.653  0.00  0.00    +0.000 HD
BRANCH  11  14
ATOM     14  C   UNL     1      53.512   7.279   8.240  0.00  0.00    +0.000 C 
ATOM     15  C   UNL     1      52.488   6.528   7.411  0.00  0.00    +0.000 C 
ATOM     16  C   UNL     1      53.237   5.264   7.028  0.00  0.00    +0.000 C 
ATOM     17  C   UNL     1      54.201   5.022   8.183  0.00  0.00    +0.000 C 
ATOM     18  N   UNL     1      54.108   6.194   9.062  0.00  0.00    +0.000 NA
ATOM     19  H   UNL     1      55.037   6.476   9.376  0.00  0.00    +0.000 HD
ENDBRANCH  11  14
ENDBRANCH   9  10
ENDBRANCH   6   9
ENDBRANCH   2   3
BRANCH   2  20
ATOM     20  N   UNL     1      45.824   7.023  11.673  0.00  0.00    +0.000 N 
ATOM     21  C   UNL     1      44.560   6.632  11.331  0.00  0.00    +0.000 C 
ATOM     22  O   UNL     1      43.636   7.432  11.201  0.00  0.00    +0.000 OA
ATOM     23  H   UNL     1      46.581   6.345  11.668  0.00  0.00    +0.000 HD
BRANCH  21  24
ATOM     24  C   UNL     1      44.343   5.186  11.166  0.00  0.00    +0.000 A 
ATOM     25  C   UNL     1      43.563   4.495  12.084  0.00  0.00    +0.000 A 
ATOM     26  S   UNL     1      43.410   2.832  11.737  0.00  0.00    +0.000 S 
ATOM     27  C   UNL     1      44.351   2.985  10.328  0.00  0.00    +0.000 A 
ATOM     28  N   UNL     1      44.578   1.914   9.523  0.00  0.00    +0.000 NA
ATOM     29  C   UNL     1      45.291   2.172   8.475  0.00  0.00    +0.000 A 
ATOM     30  N   UNL     1      45.820   3.404   8.152  0.00  0.00    +0.000 N 
ATOM     31  C   UNL     1      46.638   3.578   6.970  0.00  0.00    +0.000 C 
ATOM     32  C   UNL     1      45.641   4.507   8.976  0.00  0.00    +0.000 A 
ATOM     33  O   UNL     1      46.177   5.590   8.749  0.00  0.00    +0.000 OA
ATOM     34  C   UNL     1      44.810   4.274  10.145  0.00  0.00    +0.000 A 
ENDBRANCH  21  24
ENDBRANCH   2  20
TORSDOF 6
ENDMDL
MODEL 6
REMARK VINA RESULT:    -7.198      3.556      4.987
REMARK INTER + INTRA:         -10.680
REMARK INTER:                  -9.506
REMARK INTRA:                  -1.175
REMARK UNBOUND:                -0.957
REMARK  Name = 
REMARK  8 active torsions:
REMARK  status: ('A' for Active; 'I' for Inactive)
REMARK    1  A    between atoms: C_1  and  C_2
REMARK    2  A    between atoms: C_2  and  N_3
REMARK    3  A    between atoms: C_2  and  C_17
REMARK    4  A    between atoms: C_4  and  C_6
REMARK    5  A    between atoms: N_12  and  C_13
REMARK    6  A    between atoms: C_20  and  C_21
REMARK    7  A    between atoms: C_21  and  N_22
REMARK    8  A    between atoms: C_23  and  C_25
REMARK                            x       y       z     vdW  Elec       q    Type
REMARK                         _______ _______ _______ _____ _____    ______ ____
ROOT
ATOM      1  C   UNL     1      50.263   8.738  14.087  0.00  0.00    +0.000 C 
ATOM      2  C   UNL     1      49.138   7.971  14.794  0.00  0.00    +0.000 C 
ENDROOT
BRANCH   2   3
ATOM      3  C   UNL     1      47.960   7.647  13.883  0.00  0.00    +0.000 A 
ATOM      4  C   UNL     1      47.896   6.401  13.237  0.00  0.00    +0.000 A 
ATOM      5  C   UNL     1      46.816   6.069  12.408  0.00  0.00    +0.000 A 
ATOM      6  C   UNL     1      45.778   6.984  12.188  0.00  0.00    +0.000 A 
ATOM      7  C   UNL     1      45.855   8.240  12.799  0.00  0.00    +0.000 A 
ATOM      8  C   UNL     1      46.938   8.572  13.620  0.00  0.00    +0.000 A 
BRANCH   6   9
ATOM      9  C   UNL     1      44.586   6.633  11.338  0.00  0.00    +0.000 C 
BRANCH   9  10
ATOM     10  N   UNL     1      44.951   5.806  10.216  0.00  0.00    +0.000 N 
ATOM     11  C   UNL     1      44.417   4.551  10.038  0.00  0.00    +0.000 C 
ATOM     12  O   UNL     1      43.695   4.005  10.869  0.00  0.00    +0.000 OA
ATOM     13  H   UNL     1      45.434   6.202   9.411  0.00  0.00    +0.000 HD
BRANCH  11  14
ATOM     14  C   UNL     1      44.831   3.856   8.734  0.00  0.00    +0.000 C 
ATOM     15  C   UNL     1      45.407   2.472   8.957  0.00  0.00    +0.000 C 
ATOM     16  C   UNL     1      46.138   2.205   7.653  0.00  0.00    +0.000 C 
ATOM     17  C   UNL     1      46.575   3.582   7.168  0.00  0.00    +0.000 C 
ATOM     18  N   UNL     1      45.956   4.562   8.068  0.00  0.00    +0.000 NA
ATOM     19  H   UNL     1      45.594   5.353   7.536  0.00  0.00    +0.000 HD
ENDBRANCH  11  14
ENDBRANCH   9  10
ENDBRANCH   6   9
ENDBRANCH   2   3
BRANCH   2  20
ATOM     20  N   UNL     1      49.654   6.749  15.378  0.00  0.00    +0.000 N 
ATOM     21  C   UNL     1      49.303   6.297  16.619  0.00  0.00    +0.000 C 
ATOM     22  O   UNL     1      48.518   6.907  17.344  0.00  0.00    +0.000 OA
ATOM     23  H   UNL     1      50.222   6.165  14.771  0.00  0.00    +0.000 HD
BRANCH  21  24
ATOM     24  C   UNL     1      49.949   5.056  17.072  0.00  0.00    +0.000 A 
ATOM     25  C   UNL     1      49.181   3.924  17.311  0.00  0.00    +0.000 A 
ATOM     26  S   UNL     1      50.089   2.576  17.824  0.00  0.00    +0.000 S 
ATOM     27  C   UNL     1      51.547   3.446  17.709  0.00  0.00    +0.000 A 
ATOM     28  N   UNL     1      52.737   2.850  17.977  0.00  0.00    +0.000 NA
ATOM     29  C   UNL     1      53.767   3.619  17.832  0.00  0.00    +0.000 A 
ATOM     30  N   UNL     1      53.728   4.944  17.456  0.00  0.00    +0.000 N 
ATOM     31  C   UNL     1      54.941   5.729  17.359  0.00  0.00    +0.000 C 
ATOM     32  C   UNL     1      52.524   5.594  17.217  0.00  0.00    +0.000 A 
ATOM     33  O   UNL     1      52.465   6.796  16.967  0.00  0.00    +0.000 OA
ATOM     34  C   UNL     1      51.341   4.757  17.326  0.00  0.00    +0.000 A 
ENDBRANCH  21  24
ENDBRANCH   2  20
TORSDOF 6
ENDMDL
MODEL 7
REMARK VINA RESULT:    -7.151      4.481      5.944
REMARK INTER + INTRA:         -10.617
REMARK INTER:                  -9.538
REMARK INTRA:                  -1.079
REMARK UNBOUND:                -0.957
REMARK  Name = 
REMARK  8 active torsions:
REMARK  status: ('A' for Active; 'I' for Inactive)
REMARK    1  A    between atoms: C_1  and  C_2
REMARK    2  A    between atoms: C_2  and  N_3
REMARK    3  A    between atoms: C_2  and  C_17
REMARK    4  A    between atoms: C_4  and  C_6
REMARK    5  A    between atoms: N_12  and  C_13
REMARK    6  A    between atoms: C_20  and  C_21
REMARK    7  A    between atoms: C_21  and  N_22
REMARK    8  A    between atoms: C_23  and  C_25
REMARK                            x       y       z     vdW  Elec       q    Type
REMARK                         _______ _______ _______ _____ _____    ______ ____
ROOT
ATOM      1  C   UNL     1      47.572   4.634  18.831  0.00  0.00    +0.000 C 
ATOM      2  C   UNL     1      48.082   3.853  17.614  0.00  0.00    +0.000 C 
ENDROOT
BRANCH   2   3
ATOM      3  C   UNL     1      47.892   4.592  16.295  0.00  0.00    +0.000 A 
ATOM      4  C   UNL     1      47.108   4.020  15.278  0.00  0.00    +0.000 A 
ATOM      5  C   UNL     1      46.901   4.686  14.062  0.00  0.00    +0.000 A 
ATOM      6  C   UNL     1      47.489   5.935  13.823  0.00  0.00    +0.000 A 
ATOM      7  C   UNL     1      48.301   6.491  14.817  0.00  0.00    +0.000 A 
ATOM      8  C   UNL     1      48.513   5.822  16.027  0.00  0.00    +0.000 A 
BRANCH   6   9
ATOM      9  C   UNL     1      47.245   6.688  12.543  0.00  0.00    +0.000 C 
BRANCH   9  10
ATOM     10  N   UNL     1      46.570   5.876  11.562  0.00  0.00    +0.000 N 
ATOM     11  C   UNL     1      45.225   6.011  11.313  0.00  0.00    +0.000 C 
ATOM     12  O   UNL     1      44.488   6.736  11.977  0.00  0.00    +0.000 OA
ATOM     13  H   UNL     1      47.098   5.343  10.874  0.00  0.00    +0.000 HD
BRANCH  11  14
ATOM     14  C   UNL     1      44.695   5.146  10.161  0.00  0.00    +0.000 C 
ATOM     15  C   UNL     1      44.657   3.669  10.498  0.00  0.00    +0.000 C 
ATOM     16  C   UNL     1      44.562   3.021   9.128  0.00  0.00    +0.000 C 
ATOM     17  C   UNL     1      45.289   3.982   8.196  0.00  0.00    +0.000 C 
ATOM     18  N   UNL     1      45.604   5.178   8.986  0.00  0.00    +0.000 NA
ATOM     19  H   UNL     1      45.426   6.021   8.441  0.00  0.00    +0.000 HD
ENDBRANCH  11  14
ENDBRANCH   9  10
ENDBRANCH   6   9
ENDBRANCH   2   3
BRANCH   2  20
ATOM     20  N   UNL     1      49.481   3.513  17.785  0.00  0.00    +0.000 N 
ATOM     21  C   UNL     1      50.104   2.506  17.104  0.00  0.00    +0.000 C 
ATOM     22  O   UNL     1      49.513   1.800  16.288  0.00  0.00    +0.000 OA
ATOM     23  H   UNL     1      50.027   4.139  18.371  0.00  0.00    +0.000 HD
BRANCH  21  24
ATOM     24  C   UNL     1      51.520   2.273  17.426  0.00  0.00    +0.000 A 
ATOM     25  C   UNL     1      51.999   0.975  17.542  0.00  0.00    +0.000 A 
ATOM     26  S   UNL     1      53.661   0.888  17.912  0.00  0.00    +0.000 S 
ATOM     27  C   UNL     1      53.808   2.583  17.896  0.00  0.00    +0.000 A 
ATOM     28  N   UNL     1      55.010   3.180  18.103  0.00  0.00    +0.000 NA
ATOM     29  C   UNL     1      54.985   4.472  18.045  0.00  0.00    +0.000 A 
ATOM     30  N   UNL     1      53.864   5.240  17.811  0.00  0.00    +0.000 N 
ATOM     31  C   UNL     1      53.938   6.686  17.801  0.00  0.00    +0.000 C 
ATOM     32  C   UNL     1      52.614   4.661  17.637  0.00  0.00    +0.000 A 
ATOM     33  O   UNL     1      51.591   5.332  17.515  0.00  0.00    +0.000 OA
ATOM     34  C   UNL     1      52.600   3.208  17.652  0.00  0.00    +0.000 A 
ENDBRANCH  21  24
ENDBRANCH   2  20
TORSDOF 6
ENDMDL
MODEL 8
REMARK VINA RESULT:    -7.085      5.707      9.317
REMARK INTER + INTRA:         -10.526
REMARK INTER:                 -10.211
REMARK INTRA:                  -0.315
REMARK UNBOUND:                -0.957
REMARK  Name = 
REMARK  8 active torsions:
REMARK  status: ('A' for Active; 'I' for Inactive)
REMARK    1  A    between atoms: C_1  and  C_2
REMARK    2  A    between atoms: C_2  and  N_3
REMARK    3  A    between atoms: C_2  and  C_17
REMARK    4  A    between atoms: C_4  and  C_6
REMARK    5  A    between atoms: N_12  and  C_13
REMARK    6  A    between atoms: C_20  and  C_21
REMARK    7  A    between atoms: C_21  and  N_22
REMARK    8  A    between atoms: C_23  and  C_25
REMARK                            x       y       z     vdW  Elec       q    Type
REMARK                         _______ _______ _______ _____ _____    ______ ____
ROOT
ATOM      1  C   UNL     1      46.765   2.894  17.562  0.00  0.00    +0.000 C 
ATOM      2  C   UNL     1      47.769   4.053  17.548  0.00  0.00    +0.000 C 
ENDROOT
BRANCH   2   3
ATOM      3  C   UNL     1      49.223   3.596  17.572  0.00  0.00    +0.000 A 
ATOM      4  C   UNL     1      50.240   4.515  17.881  0.00  0.00    +0.000 A 
ATOM      5  C   UNL     1      51.584   4.119  17.928  0.00  0.00    +0.000 A 
ATOM      6  C   UNL     1      51.948   2.795  17.650  0.00  0.00    +0.000 A 
ATOM      7  C   UNL     1      50.942   1.885  17.307  0.00  0.00    +0.000 A 
ATOM      8  C   UNL     1      49.603   2.284  17.252  0.00  0.00    +0.000 A 
BRANCH   6   9
ATOM      9  C   UNL     1      53.379   2.337  17.739  0.00  0.00    +0.000 C 
BRANCH   9  10
ATOM     10  N   UNL     1      53.496   1.069  18.417  0.00  0.00    +0.000 N 
ATOM     11  C   UNL     1      54.024  -0.037  17.794  0.00  0.00    +0.000 C 
ATOM     12  O   UNL     1      54.319  -0.060  16.601  0.00  0.00    +0.000 OA
ATOM     13  H   UNL     1      53.404   1.008  19.429  0.00  0.00    +0.000 HD
BRANCH  11  14
ATOM     14  C   UNL     1      54.176  -1.270  18.695  0.00  0.00    +0.000 C 
ATOM     15  C   UNL     1      54.738  -2.473  17.965  0.00  0.00    +0.000 C 
ATOM     16  C   UNL     1      54.364  -3.621  18.885  0.00  0.00    +0.000 C 
ATOM     17  C   UNL     1      53.075  -3.170  19.560  0.00  0.00    +0.000 C 
ATOM     18  N   UNL     1      52.858  -1.773  19.163  0.00  0.00    +0.000 NA
ATOM     19  H   UNL     1      52.548  -1.222  19.963  0.00  0.00    +0.000 HD
ENDBRANCH  11  14
ENDBRANCH   9  10
ENDBRANCH   6   9
ENDBRANCH   2   3
BRANCH   2  20
ATOM     20  N   UNL     1      47.543   4.899  16.393  0.00  0.00    +0.000 N 
ATOM     21  C   UNL     1      47.413   4.422  15.120  0.00  0.00    +0.000 C 
ATOM     22  O   UNL     1      47.485   3.222  14.856  0.00  0.00    +0.000 OA
ATOM     23  H   UNL     1      47.374   5.883  16.582  0.00  0.00    +0.000 HD
BRANCH  21  24
ATOM     24  C   UNL     1      47.223   5.423  14.059  0.00  0.00    +0.000 A 
ATOM     25  C   UNL     1      48.182   6.406  13.856  0.00  0.00    +0.000 A 
ATOM     26  S   UNL     1      47.806   7.477  12.584  0.00  0.00    +0.000 S 
ATOM     27  C   UNL     1      46.366   6.642  12.235  0.00  0.00    +0.000 A 
ATOM     28  N   UNL     1      45.570   7.028  11.204  0.00  0.00    +0.000 NA
ATOM     29  C   UNL     1      44.517   6.295  11.036  0.00  0.00    +0.000 A 
ATOM     30  N   UNL     1      44.165   5.212  11.812  0.00  0.00    +0.000 N 
ATOM     31  C   UNL     1      42.941   4.479  11.561  0.00  0.00    +0.000 C 
ATOM     32  C   UNL     1      44.936   4.819  12.899  0.00  0.00    +0.000 A 
ATOM     33  O   UNL     1      44.592   3.912  13.654  0.00  0.00    +0.000 OA
ATOM     34  C   UNL     1      46.152   5.588  13.100  0.00  0.00    +0.000 A 
ENDBRANCH  21  24
ENDBRANCH   2  20
TORSDOF 6
ENDMDL
MODEL 9
REMARK VINA RESULT:    -6.762      5.507      7.958
REMARK INTER + INTRA:         -10.091
REMARK INTER:                  -8.892
REMARK INTRA:                  -1.199
REMARK UNBOUND:                -0.957
REMARK  Name = 
REMARK  8 active torsions:
REMARK  status: ('A' for Active; 'I' for Inactive)
REMARK    1  A    between atoms: C_1  and  C_2
REMARK    2  A    between atoms: C_2  and  N_3
REMARK    3  A    between atoms: C_2  and  C_17
REMARK    4  A    between atoms: C_4  and  C_6
REMARK    5  A    between atoms: N_12  and  C_13
REMARK    6  A    between atoms: C_20  and  C_21
REMARK    7  A    between atoms: C_21  and  N_22
REMARK    8  A    between atoms: C_23  and  C_25
REMARK                            x       y       z     vdW  Elec       q    Type
REMARK                         _______ _______ _______ _____ _____    ______ ____
ROOT
ATOM      1  C   UNL     1      51.205   9.828  12.205  0.00  0.00    +0.000 C 
ATOM      2  C   UNL     1      51.186   8.296  12.131  0.00  0.00    +0.000 C 
ENDROOT
BRANCH   2   3
ATOM      3  C   UNL     1      49.813   7.693  12.405  0.00  0.00    +0.000 A 
ATOM      4  C   UNL     1      48.871   7.598  11.367  0.00  0.00    +0.000 A 
ATOM      5  C   UNL     1      47.607   7.032  11.586  0.00  0.00    +0.000 A 
ATOM      6  C   UNL     1      47.246   6.561  12.854  0.00  0.00    +0.000 A 
ATOM      7  C   UNL     1      48.167   6.687  13.900  0.00  0.00    +0.000 A 
ATOM      8  C   UNL     1      49.424   7.260  13.682  0.00  0.00    +0.000 A 
BRANCH   6   9
ATOM      9  C   UNL     1      45.912   5.909  13.102  0.00  0.00    +0.000 C 
BRANCH   9  10
ATOM     10  N   UNL     1      45.509   5.074  11.998  0.00  0.00    +0.000 N 
ATOM     11  C   UNL     1      44.479   5.431  11.160  0.00  0.00    +0.000 C 
ATOM     12  O   UNL     1      43.762   6.409  11.356  0.00  0.00    +0.000 OA
ATOM     13  H   UNL     1      46.107   4.318  11.671  0.00  0.00    +0.000 HD
BRANCH  11  14
ATOM     14  C   UNL     1      44.258   4.482   9.974  0.00  0.00    +0.000 C 
ATOM     15  C   UNL     1      44.669   3.053  10.273  0.00  0.00    +0.000 C 
ATOM     16  C   UNL     1      44.798   2.451   8.885  0.00  0.00    +0.000 C 
ATOM     17  C   UNL     1      45.212   3.617   7.996  0.00  0.00    +0.000 C 
ATOM     18  N   UNL     1      45.134   4.827   8.824  0.00  0.00    +0.000 NA
ATOM     19  H   UNL     1      44.714   5.591   8.295  0.00  0.00    +0.000 HD
ENDBRANCH  11  14
ENDBRANCH   9  10
ENDBRANCH   6   9
ENDBRANCH   2   3
BRANCH   2  20
ATOM     20  N   UNL     1      51.666   7.849  10.839  0.00  0.00    +0.000 N 
ATOM     21  C   UNL     1      52.941   7.410  10.617  0.00  0.00    +0.000 C 
ATOM     22  O   UNL     1      53.787   7.367  11.509  0.00  0.00    +0.000 OA
ATOM     23  H   UNL     1      50.970   7.770  10.103  0.00  0.00    +0.000 HD
BRANCH  21  24
ATOM     24  C   UNL     1      53.272   7.026   9.236  0.00  0.00    +0.000 A 
ATOM     25  C   UNL     1      53.705   5.736   8.961  0.00  0.00    +0.000 A 
ATOM     26  S   UNL     1      54.038   5.463   7.311  0.00  0.00    +0.000 S 
ATOM     27  C   UNL     1      53.580   7.049   6.901  0.00  0.00    +0.000 A 
ATOM     28  N   UNL     1      53.592   7.464   5.608  0.00  0.00    +0.000 NA
ATOM     29  C   UNL     1      53.201   8.685   5.433  0.00  0.00    +0.000 A 
ATOM     30  N   UNL     1      52.809   9.550   6.432  0.00  0.00    +0.000 N 
ATOM     31  C   UNL     1      52.423  10.913   6.132  0.00  0.00    +0.000 C 
ATOM     32  C   UNL     1      52.826   9.168   7.767  0.00  0.00    +0.000 A 
ATOM     33  O   UNL     1      52.564   9.952   8.678  0.00  0.00    +0.000 OA
ATOM     34  C   UNL     1      53.218   7.790   8.008  0.00  0.00    +0.000 A 
ENDBRANCH  21  24
ENDBRANCH   2  20
TORSDOF 6
ENDMDL
