MODEL 1
REMARK VINA RESULT:    -8.153      0.000      0.000
REMARK INTER + INTRA:         -10.045
REMARK INTER:                  -9.821
REMARK INTRA:                  -0.224
REMARK UNBOUND:                -0.224
REMARK  Name = 
REMARK  4 active torsions:
REMARK  status: ('A' for Active; 'I' for Inactive)
REMARK    1  A    between atoms: N_1  and  C_2
REMARK    2  A    between atoms: C_2  and  C_3
REMARK    3  A    between atoms: C_6  and  C_7
REMARK    4  A    between atoms: C_7  and  N_8
REMARK                            x       y       z     vdW  Elec       q    Type
REMARK                         _______ _______ _______ _____ _____    ______ ____
ROOT
ATOM      1  C   UNL     1      44.042   2.791  10.346  0.00  0.00    +0.000 C 
ENDROOT
BRANCH   1   2
ATOM      2  N   UNL     1      44.111   4.000  11.159  0.00  0.00    +0.000 N 
ATOM      3  C   UNL     1      43.527   5.201  10.854  0.00  0.00    +0.000 A 
ATOM      4  N   UNL     1      44.115   6.201  11.470  0.00  0.00    +0.000 NA
ATOM      5  C   UNL     1      45.100   5.629  12.233  0.00  0.00    +0.000 A 
ATOM      6  C   UNL     1      46.086   6.242  13.016  0.00  0.00    +0.000 A 
ATOM      7  C   UNL     1      46.980   5.422  13.701  0.00  0.00    +0.000 A 
ATOM      8  F   UNL     1      47.966   5.985  14.414  0.00  0.00    +0.000 F 
ATOM      9  C   UNL     1      46.888   4.034  13.656  0.00  0.00    +0.000 A 
ATOM     10  C   UNL     1      45.917   3.405  12.868  0.00  0.00    +0.000 A 
ATOM     11  C   UNL     1      45.060   4.237  12.135  0.00  0.00    +0.000 A 
ENDBRANCH   1   2
BRANCH   1  15
ATOM     12  C   UNL     1      46.669   2.780   6.896  0.00  0.00    +0.000 A 
ATOM     13  C   UNL     1      46.009   3.955   7.286  0.00  0.00    +0.000 A 
ATOM     14  C   UNL     1      45.160   3.956   8.401  0.00  0.00    +0.000 A 
ATOM     15  C   UNL     1      44.939   2.783   9.136  0.00  0.00    +0.000 A 
ATOM     16  C   UNL     1      45.602   1.612   8.746  0.00  0.00    +0.000 A 
ATOM     17  C   UNL     1      46.458   1.614   7.642  0.00  0.00    +0.000 A 
BRANCH  12  18
ATOM     18  C   UNL     1      47.546   2.766   5.670  0.00  0.00    +0.000 C 
BRANCH  18  19
ATOM     19  N   UNL     1      48.546   1.707   5.720  0.00  0.00    +0.000 NA
ATOM     20  H   UNL     1      48.270   1.022   6.424  0.00  0.00    +0.000 HD
ATOM     21  H   UNL     1      49.431   2.102   6.037  0.00  0.00    +0.000 HD
ENDBRANCH  18  19
ENDBRANCH  12  18
ENDBRANCH   1  15
TORSDOF 4
ENDMDL
MODEL 2
REMARK VINA RESULT:    -7.212      2.846      6.013
REMARK INTER + INTRA:          -8.912
REMARK INTER:                  -8.394
REMARK INTRA:                  -0.518
REMARK UNBOUND:                -0.224
REMARK  Name = 
REMARK  4 active torsions:
REMARK  status: ('A' for Active; 'I' for Inactive)
REMARK    1  A    between atoms: N_1  and  C_2
REMARK    2  A    between atoms: C_2  and  C_3
REMARK    3  A    between atoms: C_6  and  C_7
REMARK    4  A    between atoms: C_7  and  N_8
REMARK                            x       y       z     vdW  Elec       q    Type
REMARK                         _______ _______ _______ _____ _____    ______ ____
ROOT
ATOM      1  C   UNL     1      43.900   6.041  11.383  0.00  0.00    +0.000 C 
ENDROOT
BRANCH   1   2
ATOM      2  N   UNL     1      43.704   4.698  10.848  0.00  0.00    +0.000 N 
ATOM      3  C   UNL     1      43.093   3.661  11.501  0.00  0.00    +0.000 A 
ATOM      4  N   UNL     1      43.461   2.495  11.020  0.00  0.00    +0.000 NA
ATOM      5  C   UNL     1      44.320   2.783   9.991  0.00  0.00    +0.000 A 
ATOM      6  C   UNL     1      45.077   1.912   9.195  0.00  0.00    +0.000 A 
ATOM      7  C   UNL     1      45.884   2.468   8.205  0.00  0.00    +0.000 A 
ATOM      8  F   UNL     1      46.658   1.659   7.466  0.00  0.00    +0.000 F 
ATOM      9  C   UNL     1      45.921   3.839   7.968  0.00  0.00    +0.000 A 
ATOM     10  C   UNL     1      45.181   4.723   8.761  0.00  0.00    +0.000 A 
ATOM     11  C   UNL     1      44.419   4.161   9.794  0.00  0.00    +0.000 A 
ENDBRANCH   1   2
BRANCH   1  15
ATOM     12  C   UNL     1      47.788   6.713  13.180  0.00  0.00    +0.000 A 
ATOM     13  C   UNL     1      47.018   5.600  13.544  0.00  0.00    +0.000 A 
ATOM     14  C   UNL     1      45.761   5.384  12.963  0.00  0.00    +0.000 A 
ATOM     15  C   UNL     1      45.242   6.285  12.022  0.00  0.00    +0.000 A 
ATOM     16  C   UNL     1      46.015   7.395  11.659  0.00  0.00    +0.000 A 
ATOM     17  C   UNL     1      47.274   7.603  12.229  0.00  0.00    +0.000 A 
BRANCH  12  18
ATOM     18  C   UNL     1      49.120   6.972  13.839  0.00  0.00    +0.000 C 
BRANCH  18  19
ATOM     19  N   UNL     1      49.184   6.419  15.186  0.00  0.00    +0.000 NA
ATOM     20  H   UNL     1      48.307   5.941  15.391  0.00  0.00    +0.000 HD
ATOM     21  H   UNL     1      49.255   7.186  15.855  0.00  0.00    +0.000 HD
ENDBRANCH  18  19
ENDBRANCH  12  18
ENDBRANCH   1  15
TORSDOF 4
ENDMDL
MODEL 3
REMARK VINA RESULT:    -7.140      1.573      2.144
REMARK INTER + INTRA:          -8.826
REMARK INTER:                  -8.333
REMARK INTRA:                  -0.493
REMARK UNBOUND:                -0.224
REMARK  Name = 
REMARK  4 active torsions:
REMARK  status: ('A' for Active; 'I' for Inactive)
REMARK    1  A    between atoms: N_1  and  C_2
REMARK    2  A    between atoms: C_2  and  C_3
REMARK    3  A    between atoms: C_6  and  C_7
REMARK    4  A    between atoms: C_7  and  N_8
REMARK                            x       y       z     vdW  Elec       q    Type
REMARK                         _______ _______ _______ _____ _____    ______ ____
ROOT
ATOM      1  C   UNL     1      44.655   4.629  10.551  0.00  0.00    +0.000 C 
ENDROOT
BRANCH   1   2
ATOM      2  N   UNL     1      45.461   4.690  11.764  0.00  0.00    +0.000 N 
ATOM      3  C   UNL     1      45.198   4.025  12.932  0.00  0.00    +0.000 A 
ATOM      4  N   UNL     1      45.771   4.601  13.964  0.00  0.00    +0.000 NA
ATOM      5  C   UNL     1      46.464   5.665  13.446  0.00  0.00    +0.000 A 
ATOM      6  C   UNL     1      47.177   6.670  14.113  0.00  0.00    +0.000 A 
ATOM      7  C   UNL     1      47.797   7.652  13.342  0.00  0.00    +0.000 A 
ATOM      8  F   UNL     1      48.440   8.654  13.959  0.00  0.00    +0.000 F 
ATOM      9  C   UNL     1      47.758   7.630  11.951  0.00  0.00    +0.000 A 
ATOM     10  C   UNL     1      47.040   6.641  11.270  0.00  0.00    +0.000 A 
ATOM     11  C   UNL     1      46.369   5.692  12.054  0.00  0.00    +0.000 A 
ENDBRANCH   1   2
BRANCH   1  15
ATOM     12  C   UNL     1      46.468   2.390   7.310  0.00  0.00    +0.000 A 
ATOM     13  C   UNL     1      46.488   3.792   7.307  0.00  0.00    +0.000 A 
ATOM     14  C   UNL     1      45.902   4.514   8.355  0.00  0.00    +0.000 A 
ATOM     15  C   UNL     1      45.267   3.851   9.415  0.00  0.00    +0.000 A 
ATOM     16  C   UNL     1      45.250   2.451   9.417  0.00  0.00    +0.000 A 
ATOM     17  C   UNL     1      45.847   1.731   8.378  0.00  0.00    +0.000 A 
BRANCH  12  18
ATOM     18  C   UNL     1      47.057   1.612   6.160  0.00  0.00    +0.000 C 
BRANCH  18  19
ATOM     19  N   UNL     1      48.469   1.913   5.959  0.00  0.00    +0.000 NA
ATOM     20  H   UNL     1      48.559   2.860   5.593  0.00  0.00    +0.000 HD
ATOM     21  H   UNL     1      48.840   1.292   5.241  0.00  0.00    +0.000 HD
ENDBRANCH  18  19
ENDBRANCH  12  18
ENDBRANCH   1  15
TORSDOF 4
ENDMDL
MODEL 4
REMARK VINA RESULT:    -6.605      3.032      6.334
REMARK INTER + INTRA:          -8.181
REMARK INTER:                  -7.948
REMARK INTRA:                  -0.233
REMARK UNBOUND:                -0.224
REMARK  Name = 
REMARK  4 active torsions:
REMARK  status: ('A' for Active; 'I' for Inactive)
REMARK    1  A    between atoms: N_1  and  C_2
REMARK    2  A    between atoms: C_2  and  C_3
REMARK    3  A    between atoms: C_6  and  C_7
REMARK    4  A    between atoms: C_7  and  N_8
REMARK                            x       y       z     vdW  Elec       q    Type
REMARK                         _______ _______ _______ _____ _____    ______ ____
ROOT
ATOM      1  C   UNL     1      45.459   4.981  13.030  0.00  0.00    +0.000 C 
ENDROOT
BRANCH   1   2
ATOM      2  N   UNL     1      44.614   4.396  11.995  0.00  0.00    +0.000 N 
ATOM      3  C   UNL     1      43.645   3.450  12.197  0.00  0.00    +0.000 A 
ATOM      4  N   UNL     1      43.383   2.776  11.099  0.00  0.00    +0.000 NA
ATOM      5  C   UNL     1      44.189   3.326  10.135  0.00  0.00    +0.000 A 
ATOM      6  C   UNL     1      44.381   2.929   8.806  0.00  0.00    +0.000 A 
ATOM      7  C   UNL     1      45.269   3.666   8.026  0.00  0.00    +0.000 A 
ATOM      8  F   UNL     1      45.510   3.274   6.766  0.00  0.00    +0.000 F 
ATOM      9  C   UNL     1      45.923   4.792   8.519  0.00  0.00    +0.000 A 
ATOM     10  C   UNL     1      45.752   5.195   9.848  0.00  0.00    +0.000 A 
ATOM     11  C   UNL     1      44.904   4.412  10.643  0.00  0.00    +0.000 A 
ENDBRANCH   1   2
BRANCH   1  15
ATOM     12  C   UNL     1      46.722   9.050  12.229  0.00  0.00    +0.000 A 
ATOM     13  C   UNL     1      47.668   8.022  12.354  0.00  0.00    +0.000 A 
ATOM     14  C   UNL     1      47.258   6.708  12.613  0.00  0.00    +0.000 A 
ATOM     15  C   UNL     1      45.899   6.398  12.771  0.00  0.00    +0.000 A 
ATOM     16  C   UNL     1      44.958   7.426  12.643  0.00  0.00    +0.000 A 
ATOM     17  C   UNL     1      45.366   8.735  12.372  0.00  0.00    +0.000 A 
BRANCH  12  18
ATOM     18  C   UNL     1      47.165  10.473  11.996  0.00  0.00    +0.000 C 
BRANCH  18  19
ATOM     19  N   UNL     1      46.076  11.425  12.178  0.00  0.00    +0.000 NA
ATOM     20  H   UNL     1      45.266  10.935  12.559  0.00  0.00    +0.000 HD
ATOM     21  H   UNL     1      45.792  11.782  11.266  0.00  0.00    +0.000 HD
ENDBRANCH  18  19
ENDBRANCH  12  18
ENDBRANCH   1  15
TORSDOF 4
ENDMDL
MODEL 5
REMARK VINA RESULT:    -6.388      3.252      6.201
REMARK INTER + INTRA:          -7.919
REMARK INTER:                  -7.464
REMARK INTRA:                  -0.455
REMARK UNBOUND:                -0.224
REMARK  Name = 
REMARK  4 active torsions:
REMARK  status: ('A' for Active; 'I' for Inactive)
REMARK    1  A    between atoms: N_1  and  C_2
REMARK    2  A    between atoms: C_2  and  C_3
REMARK    3  A    between atoms: C_6  and  C_7
REMARK    4  A    between atoms: C_7  and  N_8
REMARK                            x       y       z     vdW  Elec       q    Type
REMARK                         _______ _______ _______ _____ _____    ______ ____
ROOT
ATOM      1  C   UNL     1      44.380   7.113  11.286  0.00  0.00    +0.000 C 
ENDROOT
BRANCH   1   2
ATOM      2  N   UNL     1      43.803   5.776  11.357  0.00  0.00    +0.000 N 
ATOM      3  C   UNL     1      43.251   5.204  12.473  0.00  0.00    +0.000 A 
ATOM      4  N   UNL     1      43.248   3.892  12.400  0.00  0.00    +0.000 NA
ATOM      5  C   UNL     1      43.789   3.596  11.175  0.00  0.00    +0.000 A 
ATOM      6  C   UNL     1      44.105   2.349  10.621  0.00  0.00    +0.000 A 
ATOM      7  C   UNL     1      44.655   2.323   9.341  0.00  0.00    +0.000 A 
ATOM      8  F   UNL     1      45.016   1.145   8.811  0.00  0.00    +0.000 F 
ATOM      9  C   UNL     1      44.853   3.484   8.601  0.00  0.00    +0.000 A 
ATOM     10  C   UNL     1      44.554   4.739   9.143  0.00  0.00    +0.000 A 
ATOM     11  C   UNL     1      44.058   4.761  10.454  0.00  0.00    +0.000 A 
ENDBRANCH   1   2
BRANCH   1  15
ATOM     12  C   UNL     1      48.098   7.674  13.446  0.00  0.00    +0.000 A 
ATOM     13  C   UNL     1      47.938   6.589  12.572  0.00  0.00    +0.000 A 
ATOM     14  C   UNL     1      46.736   6.409  11.874  0.00  0.00    +0.000 A 
ATOM     15  C   UNL     1      45.665   7.297  12.051  0.00  0.00    +0.000 A 
ATOM     16  C   UNL     1      45.828   8.380  12.923  0.00  0.00    +0.000 A 
ATOM     17  C   UNL     1      47.032   8.567  13.608  0.00  0.00    +0.000 A 
BRANCH  12  18
ATOM     18  C   UNL     1      49.374   7.842  14.232  0.00  0.00    +0.000 C 
BRANCH  18  19
ATOM     19  N   UNL     1      49.782   6.607  14.890  0.00  0.00    +0.000 NA
ATOM     20  H   UNL     1      49.079   5.889  14.716  0.00  0.00    +0.000 HD
ATOM     21  H   UNL     1      49.795   6.758  15.897  0.00  0.00    +0.000 HD
ENDBRANCH  18  19
ENDBRANCH  12  18
ENDBRANCH   1  15
TORSDOF 4
ENDMDL
MODEL 6
REMARK VINA RESULT:    -5.942      3.158      4.708
REMARK INTER + INTRA:          -7.383
REMARK INTER:                  -6.913
REMARK INTRA:                  -0.469
REMARK UNBOUND:                -0.224
REMARK  Name = 
REMARK  4 active torsions:
REMARK  status: ('A' for Active; 'I' for Inactive)
REMARK    1  A    between atoms: N_1  and  C_2
REMARK    2  A    between atoms: C_2  and  C_3
REMARK    3  A    between atoms: C_6  and  C_7
REMARK    4  A    between atoms: C_7  and  N_8
REMARK                            x       y       z     vdW  Elec       q    Type
REMARK                         _______ _______ _______ _____ _____    ______ ____
ROOT
ATOM      1  C   UNL     1      45.941   6.415  12.882  0.00  0.00    +0.000 C 
ENDROOT
BRANCH   1   2
ATOM      2  N   UNL     1      47.301   6.339  13.403  0.00  0.00    +0.000 N 
ATOM      3  C   UNL     1      47.660   5.841  14.628  0.00  0.00    +0.000 A 
ATOM      4  N   UNL     1      48.821   6.310  15.026  0.00  0.00    +0.000 NA
ATOM      5  C   UNL     1      49.253   7.120  14.007  0.00  0.00    +0.000 A 
ATOM      6  C   UNL     1      50.385   7.942  13.945  0.00  0.00    +0.000 A 
ATOM      7  C   UNL     1      50.597   8.675  12.780  0.00  0.00    +0.000 A 
ATOM      8  F   UNL     1      51.645   9.510  12.716  0.00  0.00    +0.000 F 
ATOM      9  C   UNL     1      49.747   8.576  11.682  0.00  0.00    +0.000 A 
ATOM     10  C   UNL     1      48.604   7.770  11.732  0.00  0.00    +0.000 A 
ATOM     11  C   UNL     1      48.366   7.083  12.930  0.00  0.00    +0.000 A 
ENDBRANCH   1   2
BRANCH   1  15
ATOM     12  C   UNL     1      44.872   3.414   9.941  0.00  0.00    +0.000 A 
ATOM     13  C   UNL     1      44.811   3.122  11.311  0.00  0.00    +0.000 A 
ATOM     14  C   UNL     1      45.157   4.093  12.261  0.00  0.00    +0.000 A 
ATOM     15  C   UNL     1      45.588   5.366  11.860  0.00  0.00    +0.000 A 
ATOM     16  C   UNL     1      45.645   5.656  10.492  0.00  0.00    +0.000 A 
ATOM     17  C   UNL     1      45.288   4.691   9.545  0.00  0.00    +0.000 A 
BRANCH  12  18
ATOM     18  C   UNL     1      44.544   2.356   8.917  0.00  0.00    +0.000 C 
BRANCH  18  19
ATOM     19  N   UNL     1      45.592   1.348   8.813  0.00  0.00    +0.000 NA
ATOM     20  H   UNL     1      45.495   0.859   7.923  0.00  0.00    +0.000 HD
ATOM     21  H   UNL     1      45.450   0.648   9.541  0.00  0.00    +0.000 HD
ENDBRANCH  18  19
ENDBRANCH  12  18
ENDBRANCH   1  15
TORSDOF 4
ENDMDL
MODEL 7
REMARK VINA RESULT:    -5.743      2.239      3.256
REMARK INTER + INTRA:          -7.143
REMARK INTER:                  -6.893
REMARK INTRA:                  -0.250
REMARK UNBOUND:                -0.224
REMARK  Name = 
REMARK  4 active torsions:
REMARK  status: ('A' for Active; 'I' for Inactive)
REMARK    1  A    between atoms: N_1  and  C_2
REMARK    2  A    between atoms: C_2  and  C_3
REMARK    3  A    between atoms: C_6  and  C_7
REMARK    4  A    between atoms: C_7  and  N_8
REMARK                            x       y       z     vdW  Elec       q    Type
REMARK                         _______ _______ _______ _____ _____    ______ ____
ROOT
ATOM      1  C   UNL     1      44.511   5.971  12.317  0.00  0.00    +0.000 C 
ENDROOT
BRANCH   1   2
ATOM      2  N   UNL     1      45.293   7.178  12.559  0.00  0.00    +0.000 N 
ATOM      3  C   UNL     1      44.959   8.441  12.146  0.00  0.00    +0.000 A 
ATOM      4  N   UNL     1      46.010   9.225  12.071  0.00  0.00    +0.000 NA
ATOM      5  C   UNL     1      47.068   8.454  12.483  0.00  0.00    +0.000 A 
ATOM      6  C   UNL     1      48.434   8.762  12.508  0.00  0.00    +0.000 A 
ATOM      7  C   UNL     1      49.314   7.788  12.977  0.00  0.00    +0.000 A 
ATOM      8  F   UNL     1      50.631   8.039  12.961  0.00  0.00    +0.000 F 
ATOM      9  C   UNL     1      48.866   6.558  13.449  0.00  0.00    +0.000 A 
ATOM     10  C   UNL     1      47.507   6.229  13.418  0.00  0.00    +0.000 A 
ATOM     11  C   UNL     1      46.635   7.192  12.889  0.00  0.00    +0.000 A 
ENDBRANCH   1   2
BRANCH   1  15
ATOM     12  C   UNL     1      45.375   3.935   8.588  0.00  0.00    +0.000 A 
ATOM     13  C   UNL     1      46.048   5.118   8.927  0.00  0.00    +0.000 A 
ATOM     14  C   UNL     1      45.767   5.775  10.132  0.00  0.00    +0.000 A 
ATOM     15  C   UNL     1      44.797   5.275  11.013  0.00  0.00    +0.000 A 
ATOM     16  C   UNL     1      44.128   4.093  10.673  0.00  0.00    +0.000 A 
ATOM     17  C   UNL     1      44.418   3.430   9.476  0.00  0.00    +0.000 A 
BRANCH  12  18
ATOM     18  C   UNL     1      45.642   3.253   7.270  0.00  0.00    +0.000 C 
BRANCH  18  19
ATOM     19  N   UNL     1      46.716   3.897   6.524  0.00  0.00    +0.000 NA
ATOM     20  H   UNL     1      47.369   3.185   6.198  0.00  0.00    +0.000 HD
ATOM     21  H   UNL     1      47.241   4.500   7.155  0.00  0.00    +0.000 HD
ENDBRANCH  18  19
ENDBRANCH  12  18
ENDBRANCH   1  15
TORSDOF 4
ENDMDL
MODEL 8
REMARK VINA RESULT:    -5.728      4.757      7.887
REMARK INTER + INTRA:          -7.125
REMARK INTER:                  -6.689
REMARK INTRA:                  -0.436
REMARK UNBOUND:                -0.224
REMARK  Name = 
REMARK  4 active torsions:
REMARK  status: ('A' for Active; 'I' for Inactive)
REMARK    1  A    between atoms: N_1  and  C_2
REMARK    2  A    between atoms: C_2  and  C_3
REMARK    3  A    between atoms: C_6  and  C_7
REMARK    4  A    between atoms: C_7  and  N_8
REMARK                            x       y       z     vdW  Elec       q    Type
REMARK                         _______ _______ _______ _____ _____    ______ ____
ROOT
ATOM      1  C   UNL     1      47.899   4.901  16.556  0.00  0.00    +0.000 C 
ENDROOT
BRANCH   1   2
ATOM      2  N   UNL     1      47.943   5.538  15.245  0.00  0.00    +0.000 N 
ATOM      3  C   UNL     1      48.405   6.802  14.987  0.00  0.00    +0.000 A 
ATOM      4  N   UNL     1      47.911   7.284  13.869  0.00  0.00    +0.000 NA
ATOM      5  C   UNL     1      47.121   6.285  13.361  0.00  0.00    +0.000 A 
ATOM      6  C   UNL     1      46.285   6.299  12.236  0.00  0.00    +0.000 A 
ATOM      7  C   UNL     1      45.579   5.136  11.934  0.00  0.00    +0.000 A 
ATOM      8  F   UNL     1      44.732   5.141  10.893  0.00  0.00    +0.000 F 
ATOM      9  C   UNL     1      45.717   3.974  12.686  0.00  0.00    +0.000 A 
ATOM     10  C   UNL     1      46.538   3.947  13.819  0.00  0.00    +0.000 A 
ATOM     11  C   UNL     1      47.197   5.138  14.152  0.00  0.00    +0.000 A 
ENDBRANCH   1   2
BRANCH   1  15
ATOM     12  C   UNL     1      51.235   2.302  17.512  0.00  0.00    +0.000 A 
ATOM     13  C   UNL     1      51.326   3.686  17.724  0.00  0.00    +0.000 A 
ATOM     14  C   UNL     1      50.246   4.524  17.414  0.00  0.00    +0.000 A 
ATOM     15  C   UNL     1      49.065   4.001  16.870  0.00  0.00    +0.000 A 
ATOM     16  C   UNL     1      48.976   2.619  16.661  0.00  0.00    +0.000 A 
ATOM     17  C   UNL     1      50.049   1.781  16.982  0.00  0.00    +0.000 A 
BRANCH  12  18
ATOM     18  C   UNL     1      52.412   1.405  17.801  0.00  0.00    +0.000 C 
BRANCH  18  19
ATOM     19  N   UNL     1      51.999   0.091  18.279  0.00  0.00    +0.000 NA
ATOM     20  H   UNL     1      51.054  -0.101  17.947  0.00  0.00    +0.000 HD
ATOM     21  H   UNL     1      51.946   0.112  19.297  0.00  0.00    +0.000 HD
ENDBRANCH  18  19
ENDBRANCH  12  18
ENDBRANCH   1  15
TORSDOF 4
ENDMDL
MODEL 9
REMARK VINA RESULT:    -5.586      3.699      5.852
REMARK INTER + INTRA:          -6.954
REMARK INTER:                  -6.557
REMARK INTRA:                  -0.397
REMARK UNBOUND:                -0.224
REMARK  Name = 
REMARK  4 active torsions:
REMARK  status: ('A' for Active; 'I' for Inactive)
REMARK    1  A    between atoms: N_1  and  C_2
REMARK    2  A    between atoms: C_2  and  C_3
REMARK    3  A    between atoms: C_6  and  C_7
REMARK    4  A    between atoms: C_7  and  N_8
REMARK                            x       y       z     vdW  Elec       q    Type
REMARK                         _______ _______ _______ _____ _____    ______ ____
ROOT
ATOM      1  C   UNL     1      46.590   7.499  12.997  0.00  0.00    +0.000 C 
ENDROOT
BRANCH   1   2
ATOM      2  N   UNL     1      47.975   7.244  13.378  0.00  0.00    +0.000 N 
ATOM      3  C   UNL     1      48.388   6.684  14.558  0.00  0.00    +0.000 A 
ATOM      4  N   UNL     1      49.633   6.997  14.839  0.00  0.00    +0.000 NA
ATOM      5  C   UNL     1      50.060   7.765  13.786  0.00  0.00    +0.000 A 
ATOM      6  C   UNL     1      51.275   8.440  13.615  0.00  0.00    +0.000 A 
ATOM      7  C   UNL     1      51.461   9.162  12.437  0.00  0.00    +0.000 A 
ATOM      8  F   UNL     1      52.594   9.860  12.273  0.00  0.00    +0.000 F 
ATOM      9  C   UNL     1      50.500   9.189  11.431  0.00  0.00    +0.000 A 
ATOM     10  C   UNL     1      49.275   8.531  11.591  0.00  0.00    +0.000 A 
ATOM     11  C   UNL     1      49.073   7.857  12.804  0.00  0.00    +0.000 A 
ENDBRANCH   1   2
BRANCH   1  15
ATOM     12  C   UNL     1      44.549   4.078  11.285  0.00  0.00    +0.000 A 
ATOM     13  C   UNL     1      45.199   5.006  10.460  0.00  0.00    +0.000 A 
ATOM     14  C   UNL     1      45.858   6.111  11.015  0.00  0.00    +0.000 A 
ATOM     15  C   UNL     1      45.864   6.321  12.401  0.00  0.00    +0.000 A 
ATOM     16  C   UNL     1      45.216   5.391  13.223  0.00  0.00    +0.000 A 
ATOM     17  C   UNL     1      44.570   4.282  12.670  0.00  0.00    +0.000 A 
BRANCH  12  18
ATOM     18  C   UNL     1      43.800   2.914  10.687  0.00  0.00    +0.000 C 
BRANCH  18  19
ATOM     19  N   UNL     1      43.056   2.163  11.691  0.00  0.00    +0.000 NA
ATOM     20  H   UNL     1      43.665   1.981  12.489  0.00  0.00    +0.000 HD
ATOM     21  H   UNL     1      42.808   1.252  11.306  0.00  0.00    +0.000 HD
ENDBRANCH  18  19
ENDBRANCH  12  18
ENDBRANCH   1  15
TORSDOF 4
ENDMDL
