MODEL 1
REMARK VINA RESULT:    -8.633      0.000      0.000
REMARK INTER + INTRA:         -12.099
REMARK INTER:                 -11.156
REMARK INTRA:                  -0.943
REMARK UNBOUND:                -0.943
REMARK  Name = 
REMARK  6 active torsions:
REMARK  status: ('A' for Active; 'I' for Inactive)
REMARK    1  A    between atoms: C_1  and  C_2
REMARK    2  A    between atoms: N_7  and  C_8
REMARK    3  A    between atoms: C_12  and  C_13
REMARK    4  A    between atoms: C_13  and  C_14
REMARK    5  A    between atoms: C_14  and  N_15
REMARK    6  A    between atoms: C_19  and  C_20
REMARK                            x       y       z     vdW  Elec       q    Type
REMARK                         _______ _______ _______ _____ _____    ______ ____
ROOT
ATOM      1  C   UNL     1      43.486   5.443  12.227  0.00  0.00    +0.000 C 
ENDROOT
BRANCH   1   6
ATOM      2  C   UNL     1      47.043   6.824  12.664  0.00  0.00    +0.000 A 
ATOM      3  C   UNL     1      47.624   5.753  13.357  0.00  0.00    +0.000 A 
ATOM      4  C   UNL     1      46.901   4.596  13.673  0.00  0.00    +0.000 A 
ATOM      5  C   UNL     1      45.564   4.477  13.302  0.00  0.00    +0.000 A 
ATOM      6  C   UNL     1      44.953   5.505  12.587  0.00  0.00    +0.000 A 
ATOM      7  C   UNL     1      45.705   6.652  12.267  0.00  0.00    +0.000 A 
BRANCH   2  14
ATOM      8  C   UNL     1      46.837  10.251  11.941  0.00  0.00    +0.000 C 
ATOM      9  C   UNL     1      47.359   9.294  13.017  0.00  0.00    +0.000 C 
ATOM     10  C   UNL     1      48.595   9.890  13.736  0.00  0.00    +0.000 C 
ATOM     11  O   UNL     1      49.748   9.971  12.877  0.00  0.00    +0.000 OA
ATOM     12  C   UNL     1      50.105   8.660  12.405  0.00  0.00    +0.000 C 
ATOM     13  C   UNL     1      48.965   8.024  11.603  0.00  0.00    +0.000 C 
ATOM     14  N   UNL     1      47.733   7.995  12.413  0.00  0.00    +0.000 N 
ENDBRANCH   2  14
ENDBRANCH   1   6
BRANCH   1  15
ATOM     15  C   UNL     1      43.239   4.387  11.140  0.00  0.00    +0.000 C 
BRANCH  15  16
ATOM     16  N   UNL     1      43.750   4.829   9.848  0.00  0.00    +0.000 N 
ATOM     17  C   UNL     1      44.681   4.041   9.188  0.00  0.00    +0.000 A 
ATOM     18  C   UNL     1      44.676   2.652   9.240  0.00  0.00    +0.000 A 
ATOM     19  C   UNL     1      45.617   1.925   8.510  0.00  0.00    +0.000 A 
ATOM     20  C   UNL     1      46.541   2.593   7.710  0.00  0.00    +0.000 A 
ATOM     21  C   UNL     1      46.470   3.977   7.705  0.00  0.00    +0.000 A 
ATOM     22  N   UNL     1      45.574   4.707   8.426  0.00  0.00    +0.000 NA
ATOM     23  H   UNL     1      44.074   5.793   9.796  0.00  0.00    +0.000 HD
BRANCH  20  24
ATOM     24  C   UNL     1      47.516   1.795   6.929  0.00  0.00    +0.000 C 
ATOM     25  N   UNL     1      48.592   2.418   6.363  0.00  0.00    +0.000 N 
ATOM     26  O   UNL     1      47.370   0.585   6.782  0.00  0.00    +0.000 OA
ATOM     27  H   UNL     1      48.789   3.409   6.390  0.00  0.00    +0.000 HD
ATOM     28  H   UNL     1      49.217   1.831   5.823  0.00  0.00    +0.000 HD
ENDBRANCH  20  24
ENDBRANCH  15  16
ENDBRANCH   1  15
TORSDOF 5
ENDMDL
MODEL 2
REMARK VINA RESULT:    -8.240      1.572      2.490
REMARK INTER + INTRA:         -11.592
REMARK INTER:                 -10.770
REMARK INTRA:                  -0.822
REMARK UNBOUND:                -0.943
REMARK  Name = 
REMARK  6 active torsions:
REMARK  status: ('A' for Active; 'I' for Inactive)
REMARK    1  A    between atoms: C_1  and  C_2
REMARK    2  A    between atoms: N_7  and  C_8
REMARK    3  A    between atoms: C_12  and  C_13
REMARK    4  A    between atoms: C_13  and  C_14
REMARK    5  A    between atoms: C_14  and  N_15
REMARK    6  A    between atoms: C_19  and  C_20
REMARK                            x       y       z     vdW  Elec       q    Type
REMARK                         _______ _______ _______ _____ _____    ______ ____
ROOT
ATOM      1  C   UNL     1      42.744   5.519  11.786  0.00  0.00    +0.000 C 
ENDROOT
BRANCH   1   6
ATOM      2  C   UNL     1      46.123   7.059  12.765  0.00  0.00    +0.000 A 
ATOM      3  C   UNL     1      45.979   8.326  12.182  0.00  0.00    +0.000 A 
ATOM      4  C   UNL     1      44.815   8.697  11.495  0.00  0.00    +0.000 A 
ATOM      5  C   UNL     1      43.755   7.802  11.370  0.00  0.00    +0.000 A 
ATOM      6  C   UNL     1      43.844   6.541  11.958  0.00  0.00    +0.000 A 
ATOM      7  C   UNL     1      45.017   6.197  12.657  0.00  0.00    +0.000 A 
BRANCH   2  14
ATOM      8  C   UNL     1      49.625   7.264  12.806  0.00  0.00    +0.000 C 
ATOM      9  C   UNL     1      48.406   7.602  13.670  0.00  0.00    +0.000 C 
ATOM     10  C   UNL     1      48.756   7.520  15.177  0.00  0.00    +0.000 C 
ATOM     11  O   UNL     1      49.017   6.173  15.611  0.00  0.00    +0.000 OA
ATOM     12  C   UNL     1      47.863   5.346  15.384  0.00  0.00    +0.000 C 
ATOM     13  C   UNL     1      47.493   5.298  13.897  0.00  0.00    +0.000 C 
ATOM     14  N   UNL     1      47.296   6.666  13.382  0.00  0.00    +0.000 N 
ENDBRANCH   2  14
ENDBRANCH   1   6
BRANCH   1  15
ATOM     15  C   UNL     1      43.237   4.323  10.961  0.00  0.00    +0.000 C 
BRANCH  15  16
ATOM     16  N   UNL     1      43.730   4.748   9.656  0.00  0.00    +0.000 N 
ATOM     17  C   UNL     1      44.713   3.997   9.031  0.00  0.00    +0.000 A 
ATOM     18  C   UNL     1      44.795   2.612   9.134  0.00  0.00    +0.000 A 
ATOM     19  C   UNL     1      45.785   1.920   8.437  0.00  0.00    +0.000 A 
ATOM     20  C   UNL     1      46.672   2.615   7.618  0.00  0.00    +0.000 A 
ATOM     21  C   UNL     1      46.515   3.990   7.561  0.00  0.00    +0.000 A 
ATOM     22  N   UNL     1      45.569   4.688   8.249  0.00  0.00    +0.000 NA
ATOM     23  H   UNL     1      43.994   5.729   9.570  0.00  0.00    +0.000 HD
BRANCH  20  24
ATOM     24  C   UNL     1      47.701   1.851   6.872  0.00  0.00    +0.000 C 
ATOM     25  N   UNL     1      48.626   2.525   6.128  0.00  0.00    +0.000 N 
ATOM     26  O   UNL     1      47.732   0.624   6.913  0.00  0.00    +0.000 OA
ATOM     27  H   UNL     1      48.672   3.525   5.995  0.00  0.00    +0.000 HD
ATOM     28  H   UNL     1      49.295   1.955   5.621  0.00  0.00    +0.000 HD
ENDBRANCH  20  24
ENDBRANCH  15  16
ENDBRANCH   1  15
TORSDOF 5
ENDMDL
MODEL 3
REMARK VINA RESULT:    -8.187      2.653      3.784
REMARK INTER + INTRA:         -11.523
REMARK INTER:                 -11.635
REMARK INTRA:                   0.113
REMARK UNBOUND:                -0.943
REMARK  Name = 
REMARK  6 active torsions:
REMARK  status: ('A' for Active; 'I' for Inactive)
REMARK    1  A    between atoms: C_1  and  C_2
REMARK    2  A    between atoms: N_7  and  C_8
REMARK    3  A    between atoms: C_12  and  C_13
REMARK    4  A    between atoms: C_13  and  C_14
REMARK    5  A    between atoms: C_14  and  N_15
REMARK    6  A    between atoms: C_19  and  C_20
REMARK                            x       y       z     vdW  Elec       q    Type
REMARK                         _______ _______ _______ _____ _____    ______ ____
ROOT
ATOM      1  C   UNL     1      44.751   3.681  11.965  0.00  0.00    +0.000 C 
ENDROOT
BRANCH   1   6
ATOM      2  C   UNL     1      47.242   5.073  14.536  0.00  0.00    +0.000 A 
ATOM      3  C   UNL     1      47.586   6.273  13.899  0.00  0.00    +0.000 A 
ATOM      4  C   UNL     1      47.026   6.648  12.670  0.00  0.00    +0.000 A 
ATOM      5  C   UNL     1      46.097   5.823  12.039  0.00  0.00    +0.000 A 
ATOM      6  C   UNL     1      45.704   4.634  12.650  0.00  0.00    +0.000 A 
ATOM      7  C   UNL     1      46.269   4.287  13.892  0.00  0.00    +0.000 A 
BRANCH   2  14
ATOM      8  C   UNL     1      49.889   5.551  16.788  0.00  0.00    +0.000 C 
ATOM      9  C   UNL     1      48.360   5.621  16.721  0.00  0.00    +0.000 C 
ATOM     10  C   UNL     1      47.729   5.288  18.096  0.00  0.00    +0.000 C 
ATOM     11  O   UNL     1      47.911   3.909  18.467  0.00  0.00    +0.000 OA
ATOM     12  C   UNL     1      47.305   3.048  17.487  0.00  0.00    +0.000 C 
ATOM     13  C   UNL     1      47.931   3.249  16.103  0.00  0.00    +0.000 C 
ATOM     14  N   UNL     1      47.845   4.668  15.711  0.00  0.00    +0.000 N 
ENDBRANCH   2  14
ENDBRANCH   1   6
BRANCH   1  15
ATOM     15  C   UNL     1      43.594   4.448  11.309  0.00  0.00    +0.000 C 
BRANCH  15  16
ATOM     16  N   UNL     1      43.923   4.831   9.941  0.00  0.00    +0.000 N 
ATOM     17  C   UNL     1      44.791   4.035   9.210  0.00  0.00    +0.000 A 
ATOM     18  C   UNL     1      44.842   2.651   9.333  0.00  0.00    +0.000 A 
ATOM     19  C   UNL     1      45.708   1.912   8.528  0.00  0.00    +0.000 A 
ATOM     20  C   UNL     1      46.501   2.560   7.584  0.00  0.00    +0.000 A 
ATOM     21  C   UNL     1      46.382   3.938   7.517  0.00  0.00    +0.000 A 
ATOM     22  N   UNL     1      45.558   4.682   8.307  0.00  0.00    +0.000 NA
ATOM     23  H   UNL     1      44.205   5.801   9.798  0.00  0.00    +0.000 HD
BRANCH  20  24
ATOM     24  C   UNL     1      47.398   1.747   6.728  0.00  0.00    +0.000 C 
ATOM     25  N   UNL     1      48.399   2.363   6.033  0.00  0.00    +0.000 N 
ATOM     26  O   UNL     1      47.252   0.531   6.633  0.00  0.00    +0.000 OA
ATOM     27  H   UNL     1      48.586   3.355   6.009  0.00  0.00    +0.000 HD
ATOM     28  H   UNL     1      48.971   1.765   5.447  0.00  0.00    +0.000 HD
ENDBRANCH  20  24
ENDBRANCH  15  16
ENDBRANCH   1  15
TORSDOF 5
ENDMDL
MODEL 4
REMARK VINA RESULT:    -7.905      1.095      1.909
REMARK INTER + INTRA:         -11.159
REMARK INTER:                 -10.821
REMARK INTRA:                  -0.338
REMARK UNBOUND:                -0.943
REMARK  Name = 
REMARK  6 active torsions:
REMARK  status: ('A' for Active; 'I' for Inactive)
REMARK    1  A    between atoms: C_1  and  C_2
REMARK    2  A    between atoms: N_7  and  C_8
REMARK    3  A    between atoms: C_12  and  C_13
REMARK    4  A    between atoms: C_13  and  C_14
REMARK    5  A    between atoms: C_14  and  N_15
REMARK    6  A    between atoms: C_19  and  C_20
REMARK                            x       y       z     vdW  Elec       q    Type
REMARK                         _______ _______ _______ _____ _____    ______ ____
ROOT
ATOM      1  C   UNL     1      44.588   4.481  12.244  0.00  0.00    +0.000 C 
ENDROOT
BRANCH   1   6
ATOM      2  C   UNL     1      47.077   7.391  12.537  0.00  0.00    +0.000 A 
ATOM      3  C   UNL     1      46.265   8.438  12.083  0.00  0.00    +0.000 A 
ATOM      4  C   UNL     1      44.934   8.230  11.698  0.00  0.00    +0.000 A 
ATOM      5  C   UNL     1      44.374   6.956  11.757  0.00  0.00    +0.000 A 
ATOM      6  C   UNL     1      45.137   5.890  12.229  0.00  0.00    +0.000 A 
ATOM      7  C   UNL     1      46.468   6.126  12.625  0.00  0.00    +0.000 A 
BRANCH   2  14
ATOM      8  C   UNL     1      50.355   7.717  11.328  0.00  0.00    +0.000 C 
ATOM      9  C   UNL     1      49.289   8.504  12.098  0.00  0.00    +0.000 C 
ATOM     10  C   UNL     1      49.944   9.497  13.091  0.00  0.00    +0.000 C 
ATOM     11  O   UNL     1      50.612   8.831  14.178  0.00  0.00    +0.000 OA
ATOM     12  C   UNL     1      49.676   8.027  14.916  0.00  0.00    +0.000 C 
ATOM     13  C   UNL     1      49.039   6.953  14.028  0.00  0.00    +0.000 C 
ATOM     14  N   UNL     1      48.410   7.580  12.850  0.00  0.00    +0.000 N 
ENDBRANCH   2  14
ENDBRANCH   1   6
BRANCH   1  15
ATOM     15  C   UNL     1      43.386   4.357  11.296  0.00  0.00    +0.000 C 
BRANCH  15  16
ATOM     16  N   UNL     1      43.749   4.721   9.932  0.00  0.00    +0.000 N 
ATOM     17  C   UNL     1      44.656   3.930   9.244  0.00  0.00    +0.000 A 
ATOM     18  C   UNL     1      44.731   2.549   9.396  0.00  0.00    +0.000 A 
ATOM     19  C   UNL     1      45.637   1.814   8.633  0.00  0.00    +0.000 A 
ATOM     20  C   UNL     1      46.445   2.460   7.701  0.00  0.00    +0.000 A 
ATOM     21  C   UNL     1      46.299   3.834   7.602  0.00  0.00    +0.000 A 
ATOM     22  N   UNL     1      45.437   4.575   8.352  0.00  0.00    +0.000 NA
ATOM     23  H   UNL     1      44.015   5.693   9.778  0.00  0.00    +0.000 HD
BRANCH  20  24
ATOM     24  C   UNL     1      47.384   1.650   6.889  0.00  0.00    +0.000 C 
ATOM     25  N   UNL     1      48.566   2.202   6.483  0.00  0.00    +0.000 N 
ATOM     26  O   UNL     1      47.115   0.494   6.574  0.00  0.00    +0.000 OA
ATOM     27  H   UNL     1      48.872   3.150   6.653  0.00  0.00    +0.000 HD
ATOM     28  H   UNL     1      49.164   1.613   5.914  0.00  0.00    +0.000 HD
ENDBRANCH  20  24
ENDBRANCH  15  16
ENDBRANCH   1  15
TORSDOF 5
ENDMDL
MODEL 5
REMARK VINA RESULT:    -7.827      1.128      2.128
REMARK INTER + INTRA:         -11.058
REMARK INTER:                 -10.495
REMARK INTRA:                  -0.563
REMARK UNBOUND:                -0.943
REMARK  Name = 
REMARK  6 active torsions:
REMARK  status: ('A' for Active; 'I' for Inactive)
REMARK    1  A    between atoms: C_1  and  C_2
REMARK    2  A    between atoms: N_7  and  C_8
REMARK    3  A    between atoms: C_12  and  C_13
REMARK    4  A    between atoms: C_13  and  C_14
REMARK    5  A    between atoms: C_14  and  N_15
REMARK    6  A    between atoms: C_19  and  C_20
REMARK                            x       y       z     vdW  Elec       q    Type
REMARK                         _______ _______ _______ _____ _____    ______ ____
ROOT
ATOM      1  C   UNL     1      44.651   4.875  12.086  0.00  0.00    +0.000 C 
ENDROOT
BRANCH   1   6
ATOM      2  C   UNL     1      46.849   8.023  12.206  0.00  0.00    +0.000 A 
ATOM      3  C   UNL     1      45.904   8.981  11.813  0.00  0.00    +0.000 A 
ATOM      4  C   UNL     1      44.577   8.637  11.523  0.00  0.00    +0.000 A 
ATOM      5  C   UNL     1      44.155   7.313  11.620  0.00  0.00    +0.000 A 
ATOM      6  C   UNL     1      45.053   6.332  12.035  0.00  0.00    +0.000 A 
ATOM      7  C   UNL     1      46.378   6.704  12.335  0.00  0.00    +0.000 A 
BRANCH   2  14
ATOM      8  C   UNL     1      49.792   7.304  13.975  0.00  0.00    +0.000 C 
ATOM      9  C   UNL     1      49.242   7.330  12.546  0.00  0.00    +0.000 C 
ATOM     10  C   UNL     1      50.365   7.652  11.526  0.00  0.00    +0.000 C 
ATOM     11  O   UNL     1      50.847   9.003  11.645  0.00  0.00    +0.000 OA
ATOM     12  C   UNL     1      49.774   9.933  11.423  0.00  0.00    +0.000 C 
ATOM     13  C   UNL     1      48.648   9.744  12.447  0.00  0.00    +0.000 C 
ATOM     14  N   UNL     1      48.175   8.348  12.423  0.00  0.00    +0.000 N 
ENDBRANCH   2  14
ENDBRANCH   1   6
BRANCH   1  15
ATOM     15  C   UNL     1      43.489   4.598  11.121  0.00  0.00    +0.000 C 
BRANCH  15  16
ATOM     16  N   UNL     1      43.871   4.877   9.742  0.00  0.00    +0.000 N 
ATOM     17  C   UNL     1      44.748   4.016   9.100  0.00  0.00    +0.000 A 
ATOM     18  C   UNL     1      44.769   2.644   9.324  0.00  0.00    +0.000 A 
ATOM     19  C   UNL     1      45.648   1.836   8.604  0.00  0.00    +0.000 A 
ATOM     20  C   UNL     1      46.484   2.401   7.643  0.00  0.00    +0.000 A 
ATOM     21  C   UNL     1      46.391   3.773   7.474  0.00  0.00    +0.000 A 
ATOM     22  N   UNL     1      45.556   4.584   8.179  0.00  0.00    +0.000 NA
ATOM     23  H   UNL     1      44.174   5.829   9.540  0.00  0.00    +0.000 HD
BRANCH  20  24
ATOM     24  C   UNL     1      47.393   1.515   6.879  0.00  0.00    +0.000 C 
ATOM     25  N   UNL     1      48.462   2.057   6.224  0.00  0.00    +0.000 N 
ATOM     26  O   UNL     1      47.199   0.304   6.824  0.00  0.00    +0.000 OA
ATOM     27  H   UNL     1      48.695   3.039   6.172  0.00  0.00    +0.000 HD
ATOM     28  H   UNL     1      49.042   1.411   5.700  0.00  0.00    +0.000 HD
ENDBRANCH  20  24
ENDBRANCH  15  16
ENDBRANCH   1  15
TORSDOF 5
ENDMDL
MODEL 6
REMARK VINA RESULT:    -7.708      1.358      1.970
REMARK INTER + INTRA:         -10.905
REMARK INTER:                 -10.166
REMARK INTRA:                  -0.738
REMARK UNBOUND:                -0.943
REMARK  Name = 
REMARK  6 active torsions:
REMARK  status: ('A' for Active; 'I' for Inactive)
REMARK    1  A    between atoms: C_1  and  C_2
REMARK    2  A    between atoms: N_7  and  C_8
REMARK    3  A    between atoms: C_12  and  C_13
REMARK    4  A    between atoms: C_13  and  C_14
REMARK    5  A    between atoms: C_14  and  N_15
REMARK    6  A    between atoms: C_19  and  C_20
REMARK                            x       y       z     vdW  Elec       q    Type
REMARK                         _______ _______ _______ _____ _____    ______ ____
ROOT
ATOM      1  C   UNL     1      43.219   4.694  12.499  0.00  0.00    +0.000 C 
ENDROOT
BRANCH   1   6
ATOM      2  C   UNL     1      46.345   6.846  13.089  0.00  0.00    +0.000 A 
ATOM      3  C   UNL     1      47.232   5.853  13.525  0.00  0.00    +0.000 A 
ATOM      4  C   UNL     1      46.850   4.508  13.619  0.00  0.00    +0.000 A 
ATOM      5  C   UNL     1      45.557   4.117  13.278  0.00  0.00    +0.000 A 
ATOM      6  C   UNL     1      44.650   5.068  12.813  0.00  0.00    +0.000 A 
ATOM      7  C   UNL     1      45.062   6.411  12.712  0.00  0.00    +0.000 A 
BRANCH   2  14
ATOM      8  C   UNL     1      48.424   9.356  14.388  0.00  0.00    +0.000 C 
ATOM      9  C   UNL     1      48.104   8.644  13.070  0.00  0.00    +0.000 C 
ATOM     10  C   UNL     1      48.331   9.587  11.861  0.00  0.00    +0.000 C 
ATOM     11  O   UNL     1      47.377  10.664  11.814  0.00  0.00    +0.000 OA
ATOM     12  C   UNL     1      46.042  10.139  11.716  0.00  0.00    +0.000 C 
ATOM     13  C   UNL     1      45.697   9.257  12.921  0.00  0.00    +0.000 C 
ATOM     14  N   UNL     1      46.697   8.183  13.063  0.00  0.00    +0.000 N 
ENDBRANCH   2  14
ENDBRANCH   1   6
BRANCH   1  15
ATOM     15  C   UNL     1      43.094   4.190  11.054  0.00  0.00    +0.000 C 
BRANCH  15  16
ATOM     16  N   UNL     1      43.984   3.061  10.810  0.00  0.00    +0.000 N 
ATOM     17  C   UNL     1      44.760   3.052   9.661  0.00  0.00    +0.000 A 
ATOM     18  C   UNL     1      45.299   4.204   9.098  0.00  0.00    +0.000 A 
ATOM     19  C   UNL     1      46.110   4.111   7.967  0.00  0.00    +0.000 A 
ATOM     20  C   UNL     1      46.401   2.862   7.422  0.00  0.00    +0.000 A 
ATOM     21  C   UNL     1      45.835   1.765   8.051  0.00  0.00    +0.000 A 
ATOM     22  N   UNL     1      45.024   1.835   9.143  0.00  0.00    +0.000 NA
ATOM     23  H   UNL     1      43.575   2.133  10.909  0.00  0.00    +0.000 HD
BRANCH  20  24
ATOM     24  C   UNL     1      47.283   2.792   6.232  0.00  0.00    +0.000 C 
ATOM     25  N   UNL     1      48.613   2.528   6.400  0.00  0.00    +0.000 N 
ATOM     26  O   UNL     1      46.837   2.969   5.102  0.00  0.00    +0.000 OA
ATOM     27  H   UNL     1      49.090   2.402   7.282  0.00  0.00    +0.000 HD
ATOM     28  H   UNL     1      49.176   2.510   5.557  0.00  0.00    +0.000 HD
ENDBRANCH  20  24
ENDBRANCH  15  16
ENDBRANCH   1  15
TORSDOF 5
ENDMDL
MODEL 7
REMARK VINA RESULT:    -6.983      4.581      7.993
REMARK INTER + INTRA:          -9.967
REMARK INTER:                  -9.202
REMARK INTRA:                  -0.765
REMARK UNBOUND:                -0.943
REMARK  Name = 
REMARK  6 active torsions:
REMARK  status: ('A' for Active; 'I' for Inactive)
REMARK    1  A    between atoms: C_1  and  C_2
REMARK    2  A    between atoms: N_7  and  C_8
REMARK    3  A    between atoms: C_12  and  C_13
REMARK    4  A    between atoms: C_13  and  C_14
REMARK    5  A    between atoms: C_14  and  N_15
REMARK    6  A    between atoms: C_19  and  C_20
REMARK                            x       y       z     vdW  Elec       q    Type
REMARK                         _______ _______ _______ _____ _____    ______ ____
ROOT
ATOM      1  C   UNL     1      48.918   6.938  14.552  0.00  0.00    +0.000 C 
ENDROOT
BRANCH   1   6
ATOM      2  C   UNL     1      45.594   6.537  12.670  0.00  0.00    +0.000 A 
ATOM      3  C   UNL     1      45.268   7.887  12.484  0.00  0.00    +0.000 A 
ATOM      4  C   UNL     1      46.099   8.919  12.939  0.00  0.00    +0.000 A 
ATOM      5  C   UNL     1      47.290   8.626  13.599  0.00  0.00    +0.000 A 
ATOM      6  C   UNL     1      47.668   7.296  13.781  0.00  0.00    +0.000 A 
ATOM      7  C   UNL     1      46.824   6.276  13.301  0.00  0.00    +0.000 A 
BRANCH   2  14
ATOM      8  C   UNL     1      42.319   5.622  11.805  0.00  0.00    +0.000 C 
ATOM      9  C   UNL     1      43.732   5.675  11.215  0.00  0.00    +0.000 C 
ATOM     10  C   UNL     1      43.935   4.556  10.163  0.00  0.00    +0.000 C 
ATOM     11  O   UNL     1      43.946   3.241  10.750  0.00  0.00    +0.000 OA
ATOM     12  C   UNL     1      45.010   3.137  11.711  0.00  0.00    +0.000 C 
ATOM     13  C   UNL     1      44.843   4.156  12.844  0.00  0.00    +0.000 C 
ATOM     14  N   UNL     1      44.742   5.518  12.286  0.00  0.00    +0.000 N 
ENDBRANCH   2  14
ENDBRANCH   1   6
BRANCH   1  15
ATOM     15  C   UNL     1      48.670   7.032  16.064  0.00  0.00    +0.000 C 
BRANCH  15  16
ATOM     16  N   UNL     1      48.254   5.747  16.612  0.00  0.00    +0.000 N 
ATOM     17  C   UNL     1      49.216   4.780  16.861  0.00  0.00    +0.000 A 
ATOM     18  C   UNL     1      50.504   5.079  17.293  0.00  0.00    +0.000 A 
ATOM     19  C   UNL     1      51.402   4.049  17.569  0.00  0.00    +0.000 A 
ATOM     20  C   UNL     1      50.999   2.722  17.437  0.00  0.00    +0.000 A 
ATOM     21  C   UNL     1      49.697   2.510  17.014  0.00  0.00    +0.000 A 
ATOM     22  N   UNL     1      48.810   3.500  16.719  0.00  0.00    +0.000 NA
ATOM     23  H   UNL     1      47.473   5.287  16.146  0.00  0.00    +0.000 HD
BRANCH  20  24
ATOM     24  C   UNL     1      51.969   1.647  17.757  0.00  0.00    +0.000 C 
ATOM     25  N   UNL     1      51.508   0.395  18.050  0.00  0.00    +0.000 N 
ATOM     26  O   UNL     1      53.177   1.867  17.765  0.00  0.00    +0.000 OA
ATOM     27  H   UNL     1      50.539   0.114  18.107  0.00  0.00    +0.000 HD
ATOM     28  H   UNL     1      52.211  -0.298  18.281  0.00  0.00    +0.000 HD
ENDBRANCH  20  24
ENDBRANCH  15  16
ENDBRANCH   1  15
TORSDOF 5
ENDMDL
MODEL 8
REMARK VINA RESULT:    -6.911      3.576      7.681
REMARK INTER + INTRA:          -9.874
REMARK INTER:                  -8.751
REMARK INTRA:                  -1.124
REMARK UNBOUND:                -0.943
REMARK  Name = 
REMARK  6 active torsions:
REMARK  status: ('A' for Active; 'I' for Inactive)
REMARK    1  A    between atoms: C_1  and  C_2
REMARK    2  A    between atoms: N_7  and  C_8
REMARK    3  A    between atoms: C_12  and  C_13
REMARK    4  A    between atoms: C_13  and  C_14
REMARK    5  A    between atoms: C_14  and  N_15
REMARK    6  A    between atoms: C_19  and  C_20
REMARK                            x       y       z     vdW  Elec       q    Type
REMARK                         _______ _______ _______ _____ _____    ______ ____
ROOT
ATOM      1  C   UNL     1      49.113   8.424  12.579  0.00  0.00    +0.000 C 
ENDROOT
BRANCH   1   6
ATOM      2  C   UNL     1      45.804   6.677  11.713  0.00  0.00    +0.000 A 
ATOM      3  C   UNL     1      44.937   7.776  11.780  0.00  0.00    +0.000 A 
ATOM      4  C   UNL     1      45.395   9.064  12.084  0.00  0.00    +0.000 A 
ATOM      5  C   UNL     1      46.747   9.290  12.333  0.00  0.00    +0.000 A 
ATOM      6  C   UNL     1      47.650   8.232  12.249  0.00  0.00    +0.000 A 
ATOM      7  C   UNL     1      47.167   6.949  11.927  0.00  0.00    +0.000 A 
BRANCH   2  14
ATOM      8  C   UNL     1      45.825   3.325  12.750  0.00  0.00    +0.000 C 
ATOM      9  C   UNL     1      44.866   4.505  12.566  0.00  0.00    +0.000 C 
ATOM     10  C   UNL     1      43.439   4.010  12.218  0.00  0.00    +0.000 C 
ATOM     11  O   UNL     1      43.366   3.409  10.912  0.00  0.00    +0.000 OA
ATOM     12  C   UNL     1      43.758   4.360   9.907  0.00  0.00    +0.000 C 
ATOM     13  C   UNL     1      45.196   4.843  10.123  0.00  0.00    +0.000 C 
ATOM     14  N   UNL     1      45.344   5.394  11.483  0.00  0.00    +0.000 N 
ENDBRANCH   2  14
ENDBRANCH   1   6
BRANCH   1  15
ATOM     15  C   UNL     1      49.307   8.629  14.088  0.00  0.00    +0.000 C 
BRANCH  15  16
ATOM     16  N   UNL     1      50.089   7.545  14.671  0.00  0.00    +0.000 N 
ATOM     17  C   UNL     1      49.444   6.590  15.443  0.00  0.00    +0.000 A 
ATOM     18  C   UNL     1      48.152   6.148  15.183  0.00  0.00    +0.000 A 
ATOM     19  C   UNL     1      47.587   5.149  15.975  0.00  0.00    +0.000 A 
ATOM     20  C   UNL     1      48.328   4.577  17.006  0.00  0.00    +0.000 A 
ATOM     21  C   UNL     1      49.612   5.066  17.190  0.00  0.00    +0.000 A 
ATOM     22  N   UNL     1      50.176   6.055  16.442  0.00  0.00    +0.000 NA
ATOM     23  H   UNL     1      50.938   7.816  15.167  0.00  0.00    +0.000 HD
BRANCH  20  24
ATOM     24  C   UNL     1      47.710   3.502  17.819  0.00  0.00    +0.000 C 
ATOM     25  N   UNL     1      48.271   3.160  19.016  0.00  0.00    +0.000 N 
ATOM     26  O   UNL     1      46.703   2.916  17.431  0.00  0.00    +0.000 OA
ATOM     27  H   UNL     1      49.115   3.550  19.412  0.00  0.00    +0.000 HD
ATOM     28  H   UNL     1      47.822   2.406  19.522  0.00  0.00    +0.000 HD
ENDBRANCH  20  24
ENDBRANCH  15  16
ENDBRANCH   1  15
TORSDOF 5
ENDMDL
MODEL 9
REMARK VINA RESULT:    -6.327      4.018      6.392
REMARK INTER + INTRA:          -9.119
REMARK INTER:                  -7.993
REMARK INTRA:                  -1.126
REMARK UNBOUND:                -0.943
REMARK  Name = 
REMARK  6 active torsions:
REMARK  status: ('A' for Active; 'I' for Inactive)
REMARK    1  A    between atoms: C_1  and  C_2
REMARK    2  A    between atoms: N_7  and  C_8
REMARK    3  A    between atoms: C_12  and  C_13
REMARK    4  A    between atoms: C_13  and  C_14
REMARK    5  A    between atoms: C_14  and  N_15
REMARK    6  A    between atoms: C_19  and  C_20
REMARK                            x       y       z     vdW  Elec       q    Type
REMARK                         _______ _______ _______ _____ _____    ______ ____
ROOT
ATOM      1  C   UNL     1      49.823   8.424  13.672  0.00  0.00    +0.000 C 
ENDROOT
BRANCH   1   6
ATOM      2  C   UNL     1      50.122   6.039  16.668  0.00  0.00    +0.000 A 
ATOM      3  C   UNL     1      51.488   6.186  16.946  0.00  0.00    +0.000 A 
ATOM      4  C   UNL     1      52.307   7.044  16.201  0.00  0.00    +0.000 A 
ATOM      5  C   UNL     1      51.778   7.784  15.146  0.00  0.00    +0.000 A 
ATOM      6  C   UNL     1      50.420   7.690  14.851  0.00  0.00    +0.000 A 
ATOM      7  C   UNL     1      49.612   6.833  15.624  0.00  0.00    +0.000 A 
BRANCH   2  14
ATOM      8  C   UNL     1      47.470   5.599  18.922  0.00  0.00    +0.000 C 
ATOM      9  C   UNL     1      47.859   5.292  17.472  0.00  0.00    +0.000 C 
ATOM     10  C   UNL     1      47.177   3.991  16.979  0.00  0.00    +0.000 C 
ATOM     11  O   UNL     1      47.685   2.817  17.639  0.00  0.00    +0.000 OA
ATOM     12  C   UNL     1      49.097   2.688  17.403  0.00  0.00    +0.000 C 
ATOM     13  C   UNL     1      49.868   3.900  17.940  0.00  0.00    +0.000 C 
ATOM     14  N   UNL     1      49.327   5.141  17.355  0.00  0.00    +0.000 N 
ENDBRANCH   2  14
ENDBRANCH   1   6
BRANCH   1  15
ATOM     15  C   UNL     1      49.403   7.437  12.574  0.00  0.00    +0.000 C 
BRANCH  15  16
ATOM     16  N   UNL     1      48.006   7.626  12.201  0.00  0.00    +0.000 N 
ATOM     17  C   UNL     1      47.145   6.540  12.246  0.00  0.00    +0.000 A 
ATOM     18  C   UNL     1      47.245   5.529  13.197  0.00  0.00    +0.000 A 
ATOM     19  C   UNL     1      46.312   4.493  13.209  0.00  0.00    +0.000 A 
ATOM     20  C   UNL     1      45.268   4.487  12.287  0.00  0.00    +0.000 A 
ATOM     21  C   UNL     1      45.235   5.536  11.383  0.00  0.00    +0.000 A 
ATOM     22  N   UNL     1      46.146   6.547  11.339  0.00  0.00    +0.000 NA
ATOM     23  H   UNL     1      47.834   8.115  11.323  0.00  0.00    +0.000 HD
BRANCH  20  24
ATOM     24  C   UNL     1      44.279   3.383  12.337  0.00  0.00    +0.000 C 
ATOM     25  N   UNL     1      44.241   2.472  11.319  0.00  0.00    +0.000 N 
ATOM     26  O   UNL     1      43.495   3.277  13.275  0.00  0.00    +0.000 OA
ATOM     27  H   UNL     1      44.812   2.484  10.486  0.00  0.00    +0.000 HD
ATOM     28  H   UNL     1      43.534   1.749  11.392  0.00  0.00    +0.000 HD
ENDBRANCH  20  24
ENDBRANCH  15  16
ENDBRANCH   1  15
TORSDOF 5
ENDMDL
