MODEL 1
REMARK VINA RESULT:    -8.856      0.000      0.000
REMARK INTER + INTRA:         -13.786
REMARK INTER:                 -12.739
REMARK INTRA:                  -1.047
REMARK UNBOUND:                -1.047
REMARK  Name = 
REMARK  8 active torsions:
REMARK  status: ('A' for Active; 'I' for Inactive)
REMARK    1  A    between atoms: N_1  and  C_2
REMARK    2  A    between atoms: C_2  and  C_3
REMARK    3  A    between atoms: C_7  and  N_8
REMARK    4  A    between atoms: N_8  and  C_9
REMARK    5  A    between atoms: C_9  and  C_10
REMARK    6  A    between atoms: C_13  and  C_14
REMARK    7  A    between atoms: C_14  and  N_15
REMARK    8  A    between atoms: C_16  and  C_18
REMARK                            x       y       z     vdW  Elec       q    Type
REMARK                         _______ _______ _______ _____ _____    ______ ____
ROOT
ATOM      1  C   UNL     1      44.547   5.463  11.043  0.00  0.00    +0.000 A 
ATOM      2  C   UNL     1      44.069   6.725  11.395  0.00  0.00    +0.000 A 
ATOM      3  C   UNL     1      44.895   7.579  12.126  0.00  0.00    +0.000 A 
ATOM      4  C   UNL     1      46.175   7.161  12.494  0.00  0.00    +0.000 A 
ATOM      5  C   UNL     1      46.553   5.876  12.127  0.00  0.00    +0.000 A 
ATOM      6  N   UNL     1      45.780   5.032  11.411  0.00  0.00    +0.000 NA
ENDROOT
BRANCH   1   7
ATOM      7  C   UNL     1      43.697   4.521  10.212  0.00  0.00    +0.000 C 
BRANCH   7   8
ATOM      8  N   UNL     1      44.131   4.486   8.814  0.00  0.00    +0.000 N 
ATOM      9  H   UNL     1      44.437   5.391   8.475  0.00  0.00    +0.000 HD
BRANCH   8  14
ATOM     10  C   UNL     1      46.657   2.609   6.833  0.00  0.00    +0.000 A 
ATOM     11  C   UNL     1      46.639   1.363   7.472  0.00  0.00    +0.000 A 
ATOM     12  C   UNL     1      45.782   1.143   8.543  0.00  0.00    +0.000 A 
ATOM     13  C   UNL     1      44.954   2.171   9.001  0.00  0.00    +0.000 A 
ATOM     14  C   UNL     1      44.978   3.444   8.415  0.00  0.00    +0.000 A 
ATOM     15  C   UNL     1      45.809   3.629   7.300  0.00  0.00    +0.000 A 
BRANCH  10  16
ATOM     16  C   UNL     1      47.627   2.871   5.712  0.00  0.00    +0.000 C 
BRANCH  16  17
ATOM     17  N   UNL     1      48.560   1.758   5.577  0.00  0.00    +0.000 NA
ATOM     18  H   UNL     1      48.094   0.983   5.110  0.00  0.00    +0.000 HD
ATOM     19  H   UNL     1      48.811   1.426   6.508  0.00  0.00    +0.000 HD
ENDBRANCH  16  17
ENDBRANCH  10  16
ENDBRANCH   8  14
ENDBRANCH   7   8
ENDBRANCH   1   7
BRANCH   4  20
ATOM     20  C   UNL     1      47.106   8.033  13.281  0.00  0.00    +0.000 C 
BRANCH  20  21
ATOM     21  N   UNL     1      47.489   7.411  14.523  0.00  0.00    +0.000 N 
ATOM     22  C   UNL     1      48.743   6.877  14.682  0.00  0.00    +0.000 C 
ATOM     23  O   UNL     1      49.596   6.955  13.803  0.00  0.00    +0.000 OA
ATOM     24  H   UNL     1      46.747   7.135  15.160  0.00  0.00    +0.000 HD
BRANCH  22  25
ATOM     25  C   UNL     1      49.037   6.258  15.981  0.00  0.00    +0.000 A 
ATOM     26  C   UNL     1      50.042   6.787  16.779  0.00  0.00    +0.000 A 
ATOM     27  S   UNL     1      50.237   5.974  18.264  0.00  0.00    +0.000 S 
ATOM     28  C   UNL     1      49.016   4.854  17.875  0.00  0.00    +0.000 A 
ATOM     29  N   UNL     1      48.697   3.845  18.726  0.00  0.00    +0.000 NA
ATOM     30  C   UNL     1      47.772   3.053  18.291  0.00  0.00    +0.000 A 
ATOM     31  N   UNL     1      47.134   3.186  17.083  0.00  0.00    +0.000 N 
ATOM     32  C   UNL     1      47.401   4.211  16.208  0.00  0.00    +0.000 A 
ATOM     33  O   UNL     1      46.776   4.339  15.160  0.00  0.00    +0.000 OA
ATOM     34  C   UNL     1      48.447   5.115  16.639  0.00  0.00    +0.000 A 
ATOM     35  H   UNL     1      46.409   2.539  16.809  0.00  0.00    +0.000 HD
ENDBRANCH  22  25
ENDBRANCH  20  21
ENDBRANCH   4  20
TORSDOF 8
ENDMDL
MODEL 2
REMARK VINA RESULT:    -8.145      1.986      2.465
REMARK INTER + INTRA:         -12.763
REMARK INTER:                 -11.637
REMARK INTRA:                  -1.126
REMARK UNBOUND:                -1.047
REMARK  Name = 
REMARK  8 active torsions:
REMARK  status: ('A' for Active; 'I' for Inactive)
REMARK    1  A    between atoms: N_1  and  C_2
REMARK    2  A    between atoms: C_2  and  C_3
REMARK    3  A    between atoms: C_7  and  N_8
REMARK    4  A    between atoms: N_8  and  C_9
REMARK    5  A    between atoms: C_9  and  C_10
REMARK    6  A    between atoms: C_13  and  C_14
REMARK    7  A    between atoms: C_14  and  N_15
REMARK    8  A    between atoms: C_16  and  C_18
REMARK                            x       y       z     vdW  Elec       q    Type
REMARK                         _______ _______ _______ _____ _____    ______ ____
ROOT
ATOM      1  C   UNL     1      44.974   5.386  11.375  0.00  0.00    +0.000 A 
ATOM      2  C   UNL     1      45.696   4.609  12.280  0.00  0.00    +0.000 A 
ATOM      3  C   UNL     1      46.667   5.222  13.071  0.00  0.00    +0.000 A 
ATOM      4  C   UNL     1      46.902   6.593  12.945  0.00  0.00    +0.000 A 
ATOM      5  C   UNL     1      46.157   7.280  11.996  0.00  0.00    +0.000 A 
ATOM      6  N   UNL     1      45.203   6.715  11.223  0.00  0.00    +0.000 NA
ENDROOT
BRANCH   1   7
ATOM      7  C   UNL     1      43.880   4.766  10.526  0.00  0.00    +0.000 C 
BRANCH   7   8
ATOM      8  N   UNL     1      44.247   4.725   9.110  0.00  0.00    +0.000 N 
ATOM      9  H   UNL     1      44.623   5.606   8.776  0.00  0.00    +0.000 HD
BRANCH   8  14
ATOM     10  C   UNL     1      46.553   2.691   7.018  0.00  0.00    +0.000 A 
ATOM     11  C   UNL     1      46.395   1.421   7.588  0.00  0.00    +0.000 A 
ATOM     12  C   UNL     1      45.516   1.239   8.649  0.00  0.00    +0.000 A 
ATOM     13  C   UNL     1      44.807   2.327   9.166  0.00  0.00    +0.000 A 
ATOM     14  C   UNL     1      44.974   3.619   8.650  0.00  0.00    +0.000 A 
ATOM     15  C   UNL     1      45.822   3.771   7.544  0.00  0.00    +0.000 A 
BRANCH  10  16
ATOM     16  C   UNL     1      47.548   2.904   5.909  0.00  0.00    +0.000 C 
BRANCH  16  17
ATOM     17  N   UNL     1      48.486   1.789   5.847  0.00  0.00    +0.000 NA
ATOM     18  H   UNL     1      47.968   0.917   5.762  0.00  0.00    +0.000 HD
ATOM     19  H   UNL     1      48.994   1.739   6.730  0.00  0.00    +0.000 HD
ENDBRANCH  16  17
ENDBRANCH  10  16
ENDBRANCH   8  14
ENDBRANCH   7   8
ENDBRANCH   1   7
BRANCH   4  20
ATOM     20  C   UNL     1      47.932   7.307  13.766  0.00  0.00    +0.000 C 
BRANCH  20  21
ATOM     21  N   UNL     1      47.872   6.912  15.150  0.00  0.00    +0.000 N 
ATOM     22  C   UNL     1      49.010   6.548  15.825  0.00  0.00    +0.000 C 
ATOM     23  O   UNL     1      50.118   6.597  15.299  0.00  0.00    +0.000 OA
ATOM     24  H   UNL     1      46.967   6.646  15.526  0.00  0.00    +0.000 HD
BRANCH  22  25
ATOM     25  C   UNL     1      48.847   6.154  17.231  0.00  0.00    +0.000 A 
ATOM     26  C   UNL     1      49.171   4.862  17.621  0.00  0.00    +0.000 A 
ATOM     27  S   UNL     1      48.955   4.574  19.287  0.00  0.00    +0.000 S 
ATOM     28  C   UNL     1      48.374   6.154  19.540  0.00  0.00    +0.000 A 
ATOM     29  N   UNL     1      47.971   6.561  20.771  0.00  0.00    +0.000 NA
ATOM     30  C   UNL     1      47.526   7.774  20.813  0.00  0.00    +0.000 A 
ATOM     31  N   UNL     1      47.457   8.618  19.734  0.00  0.00    +0.000 N 
ATOM     32  C   UNL     1      47.885   8.260  18.479  0.00  0.00    +0.000 A 
ATOM     33  O   UNL     1      47.864   9.053  17.543  0.00  0.00    +0.000 OA
ATOM     34  C   UNL     1      48.373   6.900  18.373  0.00  0.00    +0.000 A 
ATOM     35  H   UNL     1      47.110   9.561  19.838  0.00  0.00    +0.000 HD
ENDBRANCH  22  25
ENDBRANCH  20  21
ENDBRANCH   4  20
TORSDOF 8
ENDMDL
MODEL 3
REMARK VINA RESULT:    -7.569      2.050      3.024
REMARK INTER + INTRA:         -11.934
REMARK INTER:                 -11.041
REMARK INTRA:                  -0.893
REMARK UNBOUND:                -1.047
REMARK  Name = 
REMARK  8 active torsions:
REMARK  status: ('A' for Active; 'I' for Inactive)
REMARK    1  A    between atoms: N_1  and  C_2
REMARK    2  A    between atoms: C_2  and  C_3
REMARK    3  A    between atoms: C_7  and  N_8
REMARK    4  A    between atoms: N_8  and  C_9
REMARK    5  A    between atoms: C_9  and  C_10
REMARK    6  A    between atoms: C_13  and  C_14
REMARK    7  A    between atoms: C_14  and  N_15
REMARK    8  A    between atoms: C_16  and  C_18
REMARK                            x       y       z     vdW  Elec       q    Type
REMARK                         _______ _______ _______ _____ _____    ______ ____
ROOT
ATOM      1  C   UNL     1      44.481   5.481  11.237  0.00  0.00    +0.000 A 
ATOM      2  C   UNL     1      45.270   4.897  12.227  0.00  0.00    +0.000 A 
ATOM      3  C   UNL     1      46.069   5.717  13.024  0.00  0.00    +0.000 A 
ATOM      4  C   UNL     1      46.070   7.098  12.819  0.00  0.00    +0.000 A 
ATOM      5  C   UNL     1      45.278   7.587  11.788  0.00  0.00    +0.000 A 
ATOM      6  N   UNL     1      44.486   6.819  11.008  0.00  0.00    +0.000 NA
ENDROOT
BRANCH   1   7
ATOM      7  C   UNL     1      43.566   4.630  10.377  0.00  0.00    +0.000 C 
BRANCH   7   8
ATOM      8  N   UNL     1      44.036   4.554   8.992  0.00  0.00    +0.000 N 
ATOM      9  H   UNL     1      44.369   5.445   8.641  0.00  0.00    +0.000 HD
BRANCH   8  14
ATOM     10  C   UNL     1      46.793   2.680   7.345  0.00  0.00    +0.000 A 
ATOM     11  C   UNL     1      46.543   1.375   7.787  0.00  0.00    +0.000 A 
ATOM     12  C   UNL     1      45.456   1.117   8.614  0.00  0.00    +0.000 A 
ATOM     13  C   UNL     1      44.625   2.163   9.025  0.00  0.00    +0.000 A 
ATOM     14  C   UNL     1      44.872   3.487   8.639  0.00  0.00    +0.000 A 
ATOM     15  C   UNL     1      45.939   3.718   7.760  0.00  0.00    +0.000 A 
BRANCH  10  16
ATOM     16  C   UNL     1      48.003   2.974   6.499  0.00  0.00    +0.000 C 
BRANCH  16  17
ATOM     17  N   UNL     1      48.406   1.784   5.759  0.00  0.00    +0.000 NA
ATOM     18  H   UNL     1      49.417   1.678   5.815  0.00  0.00    +0.000 HD
ATOM     19  H   UNL     1      48.183   1.920   4.773  0.00  0.00    +0.000 HD
ENDBRANCH  16  17
ENDBRANCH  10  16
ENDBRANCH   8  14
ENDBRANCH   7   8
ENDBRANCH   1   7
BRANCH   4  20
ATOM     20  C   UNL     1      46.908   8.028  13.641  0.00  0.00    +0.000 C 
BRANCH  20  21
ATOM     21  N   UNL     1      47.931   7.318  14.366  0.00  0.00    +0.000 N 
ATOM     22  C   UNL     1      48.629   7.931  15.375  0.00  0.00    +0.000 C 
ATOM     23  O   UNL     1      48.377   9.078  15.733  0.00  0.00    +0.000 OA
ATOM     24  H   UNL     1      48.307   6.473  13.945  0.00  0.00    +0.000 HD
BRANCH  22  25
ATOM     25  C   UNL     1      49.657   7.128  16.051  0.00  0.00    +0.000 A 
ATOM     26  C   UNL     1      49.296   6.302  17.106  0.00  0.00    +0.000 A 
ATOM     27  S   UNL     1      50.597   5.417  17.760  0.00  0.00    +0.000 S 
ATOM     28  C   UNL     1      51.702   6.141  16.686  0.00  0.00    +0.000 A 
ATOM     29  N   UNL     1      53.025   5.840  16.737  0.00  0.00    +0.000 NA
ATOM     30  C   UNL     1      53.752   6.485  15.883  0.00  0.00    +0.000 A 
ATOM     31  N   UNL     1      53.270   7.397  14.979  0.00  0.00    +0.000 N 
ATOM     32  C   UNL     1      51.935   7.706  14.870  0.00  0.00    +0.000 A 
ATOM     33  O   UNL     1      51.525   8.484  14.014  0.00  0.00    +0.000 OA
ATOM     34  C   UNL     1      51.080   7.026  15.820  0.00  0.00    +0.000 A 
ATOM     35  H   UNL     1      53.891   7.857  14.329  0.00  0.00    +0.000 HD
ENDBRANCH  22  25
ENDBRANCH  20  21
ENDBRANCH   4  20
TORSDOF 8
ENDMDL
MODEL 4
REMARK VINA RESULT:    -6.330      2.694      3.697
REMARK INTER + INTRA:         -10.153
REMARK INTER:                  -9.347
REMARK INTRA:                  -0.806
REMARK UNBOUND:                -1.047
REMARK  Name = 
REMARK  8 active torsions:
REMARK  status: ('A' for Active; 'I' for Inactive)
REMARK    1  A    between atoms: N_1  and  C_2
REMARK    2  A    between atoms: C_2  and  C_3
REMARK    3  A    between atoms: C_7  and  N_8
REMARK    4  A    between atoms: N_8  and  C_9
REMARK    5  A    between atoms: C_9  and  C_10
REMARK    6  A    between atoms: C_13  and  C_14
REMARK    7  A    between atoms: C_14  and  N_15
REMARK    8  A    between atoms: C_16  and  C_18
REMARK                            x       y       z     vdW  Elec       q    Type
REMARK                         _______ _______ _______ _____ _____    ______ ____
ROOT
ATOM      1  C   UNL     1      46.292   6.055  12.065  0.00  0.00    +0.000 A 
ATOM      2  C   UNL     1      46.444   5.639  13.388  0.00  0.00    +0.000 A 
ATOM      3  C   UNL     1      47.566   6.061  14.102  0.00  0.00    +0.000 A 
ATOM      4  C   UNL     1      48.513   6.883  13.487  0.00  0.00    +0.000 A 
ATOM      5  C   UNL     1      48.293   7.219  12.158  0.00  0.00    +0.000 A 
ATOM      6  N   UNL     1      47.213   6.835  11.445  0.00  0.00    +0.000 NA
ENDROOT
BRANCH   1   7
ATOM      7  C   UNL     1      45.066   5.654  11.267  0.00  0.00    +0.000 C 
BRANCH   7   8
ATOM      8  N   UNL     1      45.338   5.625   9.829  0.00  0.00    +0.000 N 
ATOM      9  H   UNL     1      46.036   6.305   9.548  0.00  0.00    +0.000 HD
BRANCH   8  14
ATOM     10  C   UNL     1      46.317   3.096   7.284  0.00  0.00    +0.000 A 
ATOM     11  C   UNL     1      45.836   1.918   7.867  0.00  0.00    +0.000 A 
ATOM     12  C   UNL     1      45.177   1.964   9.090  0.00  0.00    +0.000 A 
ATOM     13  C   UNL     1      45.014   3.184   9.751  0.00  0.00    +0.000 A 
ATOM     14  C   UNL     1      45.522   4.377   9.219  0.00  0.00    +0.000 A 
ATOM     15  C   UNL     1      46.134   4.317   7.959  0.00  0.00    +0.000 A 
BRANCH  10  16
ATOM     16  C   UNL     1      47.085   3.043   5.990  0.00  0.00    +0.000 C 
BRANCH  16  17
ATOM     17  N   UNL     1      48.441   2.561   6.224  0.00  0.00    +0.000 NA
ATOM     18  H   UNL     1      49.000   3.310   6.626  0.00  0.00    +0.000 HD
ATOM     19  H   UNL     1      48.867   2.332   5.327  0.00  0.00    +0.000 HD
ENDBRANCH  16  17
ENDBRANCH  10  16
ENDBRANCH   8  14
ENDBRANCH   7   8
ENDBRANCH   1   7
BRANCH   4  20
ATOM     20  C   UNL     1      49.738   7.365  14.202  0.00  0.00    +0.000 C 
BRANCH  20  21
ATOM     21  N   UNL     1      49.452   7.698  15.575  0.00  0.00    +0.000 N 
ATOM     22  C   UNL     1      49.804   6.845  16.591  0.00  0.00    +0.000 C 
ATOM     23  O   UNL     1      50.417   5.803  16.378  0.00  0.00    +0.000 OA
ATOM     24  H   UNL     1      48.759   8.420  15.751  0.00  0.00    +0.000 HD
BRANCH  22  25
ATOM     25  C   UNL     1      49.464   7.268  17.956  0.00  0.00    +0.000 A 
ATOM     26  C   UNL     1      48.296   6.804  18.545  0.00  0.00    +0.000 A 
ATOM     27  S   UNL     1      48.064   7.362  20.139  0.00  0.00    +0.000 S 
ATOM     28  C   UNL     1      49.493   8.285  20.083  0.00  0.00    +0.000 A 
ATOM     29  N   UNL     1      49.873   9.049  21.139  0.00  0.00    +0.000 NA
ATOM     30  C   UNL     1      50.962   9.719  20.948  0.00  0.00    +0.000 A 
ATOM     31  N   UNL     1      51.709   9.685  19.797  0.00  0.00    +0.000 N 
ATOM     32  C   UNL     1      51.380   8.900  18.719  0.00  0.00    +0.000 A 
ATOM     33  O   UNL     1      52.096   8.846  17.723  0.00  0.00    +0.000 OA
ATOM     34  C   UNL     1      50.154   8.145  18.873  0.00  0.00    +0.000 A 
ATOM     35  H   UNL     1      52.559  10.223  19.719  0.00  0.00    +0.000 HD
ENDBRANCH  22  25
ENDBRANCH  20  21
ENDBRANCH   4  20
TORSDOF 8
ENDMDL
MODEL 5
REMARK VINA RESULT:    -6.201      2.973      9.025
REMARK INTER + INTRA:          -9.967
REMARK INTER:                  -9.104
REMARK INTRA:                  -0.863
REMARK UNBOUND:                -1.047
REMARK  Name = 
REMARK  8 active torsions:
REMARK  status: ('A' for Active; 'I' for Inactive)
REMARK    1  A    between atoms: N_1  and  C_2
REMARK    2  A    between atoms: C_2  and  C_3
REMARK    3  A    between atoms: C_7  and  N_8
REMARK    4  A    between atoms: N_8  and  C_9
REMARK    5  A    between atoms: C_9  and  C_10
REMARK    6  A    between atoms: C_13  and  C_14
REMARK    7  A    between atoms: C_14  and  N_15
REMARK    8  A    between atoms: C_16  and  C_18
REMARK                            x       y       z     vdW  Elec       q    Type
REMARK                         _______ _______ _______ _____ _____    ______ ____
ROOT
ATOM      1  C   UNL     1      50.212   7.982  14.426  0.00  0.00    +0.000 A 
ATOM      2  C   UNL     1      50.345   8.643  13.205  0.00  0.00    +0.000 A 
ATOM      3  C   UNL     1      49.252   8.686  12.339  0.00  0.00    +0.000 A 
ATOM      4  C   UNL     1      48.053   8.070  12.703  0.00  0.00    +0.000 A 
ATOM      5  C   UNL     1      48.024   7.408  13.923  0.00  0.00    +0.000 A 
ATOM      6  N   UNL     1      49.062   7.359  14.786  0.00  0.00    +0.000 NA
ENDROOT
BRANCH   1   7
ATOM      7  C   UNL     1      51.363   7.949  15.414  0.00  0.00    +0.000 C 
BRANCH   7   8
ATOM      8  N   UNL     1      51.594   6.600  15.935  0.00  0.00    +0.000 N 
ATOM      9  H   UNL     1      52.563   6.311  15.861  0.00  0.00    +0.000 HD
BRANCH   8  14
ATOM     10  C   UNL     1      49.604   4.747  18.471  0.00  0.00    +0.000 A 
ATOM     11  C   UNL     1      49.745   5.574  19.592  0.00  0.00    +0.000 A 
ATOM     12  C   UNL     1      50.484   6.748  19.502  0.00  0.00    +0.000 A 
ATOM     13  C   UNL     1      51.106   7.092  18.299  0.00  0.00    +0.000 A 
ATOM     14  C   UNL     1      51.023   6.266  17.170  0.00  0.00    +0.000 A 
ATOM     15  C   UNL     1      50.228   5.116  17.266  0.00  0.00    +0.000 A 
BRANCH  10  16
ATOM     16  C   UNL     1      48.856   3.444  18.581  0.00  0.00    +0.000 C 
BRANCH  16  17
ATOM     17  N   UNL     1      48.351   3.262  19.937  0.00  0.00    +0.000 NA
ATOM     18  H   UNL     1      47.334   3.253  19.920  0.00  0.00    +0.000 HD
ATOM     19  H   UNL     1      48.625   4.067  20.500  0.00  0.00    +0.000 HD
ENDBRANCH  16  17
ENDBRANCH  10  16
ENDBRANCH   8  14
ENDBRANCH   7   8
ENDBRANCH   1   7
BRANCH   4  20
ATOM     20  C   UNL     1      46.847   8.081  11.814  0.00  0.00    +0.000 C 
BRANCH  20  21
ATOM     21  N   UNL     1      46.349   6.749  11.583  0.00  0.00    +0.000 N 
ATOM     22  C   UNL     1      45.002   6.516  11.457  0.00  0.00    +0.000 C 
ATOM     23  O   UNL     1      44.183   7.430  11.482  0.00  0.00    +0.000 OA
ATOM     24  H   UNL     1      46.970   5.971  11.787  0.00  0.00    +0.000 HD
BRANCH  22  25
ATOM     25  C   UNL     1      44.590   5.124  11.231  0.00  0.00    +0.000 A 
ATOM     26  C   UNL     1      43.814   4.478  12.182  0.00  0.00    +0.000 A 
ATOM     27  S   UNL     1      43.397   2.881  11.756  0.00  0.00    +0.000 S 
ATOM     28  C   UNL     1      44.280   2.979  10.304  0.00  0.00    +0.000 A 
ATOM     29  N   UNL     1      44.363   1.916   9.464  0.00  0.00    +0.000 NA
ATOM     30  C   UNL     1      45.089   2.121   8.414  0.00  0.00    +0.000 A 
ATOM     31  N   UNL     1      45.732   3.299   8.127  0.00  0.00    +0.000 N 
ATOM     32  C   UNL     1      45.646   4.410   8.930  0.00  0.00    +0.000 A 
ATOM     33  O   UNL     1      46.185   5.469   8.621  0.00  0.00    +0.000 OA
ATOM     34  C   UNL     1      44.862   4.225  10.134  0.00  0.00    +0.000 A 
ATOM     35  H   UNL     1      46.273   3.398   7.280  0.00  0.00    +0.000 HD
ENDBRANCH  22  25
ENDBRANCH  20  21
ENDBRANCH   4  20
TORSDOF 8
ENDMDL
MODEL 6
REMARK VINA RESULT:    -6.191      5.086      7.513
REMARK INTER + INTRA:          -9.952
REMARK INTER:                  -9.069
REMARK INTRA:                  -0.882
REMARK UNBOUND:                -1.047
REMARK  Name = 
REMARK  8 active torsions:
REMARK  status: ('A' for Active; 'I' for Inactive)
REMARK    1  A    between atoms: N_1  and  C_2
REMARK    2  A    between atoms: C_2  and  C_3
REMARK    3  A    between atoms: C_7  and  N_8
REMARK    4  A    between atoms: N_8  and  C_9
REMARK    5  A    between atoms: C_9  and  C_10
REMARK    6  A    between atoms: C_13  and  C_14
REMARK    7  A    between atoms: C_14  and  N_15
REMARK    8  A    between atoms: C_16  and  C_18
REMARK                            x       y       z     vdW  Elec       q    Type
REMARK                         _______ _______ _______ _____ _____    ______ ____
ROOT
ATOM      1  C   UNL     1      48.069   6.567  13.463  0.00  0.00    +0.000 A 
ATOM      2  C   UNL     1      49.039   7.009  14.362  0.00  0.00    +0.000 A 
ATOM      3  C   UNL     1      50.059   7.840  13.898  0.00  0.00    +0.000 A 
ATOM      4  C   UNL     1      50.097   8.210  12.552  0.00  0.00    +0.000 A 
ATOM      5  C   UNL     1      49.107   7.694  11.725  0.00  0.00    +0.000 A 
ATOM      6  N   UNL     1      48.102   6.898  12.147  0.00  0.00    +0.000 NA
ENDROOT
BRANCH   1   7
ATOM      7  C   UNL     1      46.919   5.697  13.935  0.00  0.00    +0.000 C 
BRANCH   7   8
ATOM      8  N   UNL     1      45.664   6.044  13.265  0.00  0.00    +0.000 N 
ATOM      9  H   UNL     1      45.704   6.943  12.798  0.00  0.00    +0.000 HD
BRANCH   8  14
ATOM     10  C   UNL     1      44.507   4.182  10.261  0.00  0.00    +0.000 A 
ATOM     11  C   UNL     1      43.723   3.179  10.842  0.00  0.00    +0.000 A 
ATOM     12  C   UNL     1      43.566   3.130  12.223  0.00  0.00    +0.000 A 
ATOM     13  C   UNL     1      44.211   4.068  13.034  0.00  0.00    +0.000 A 
ATOM     14  C   UNL     1      45.039   5.058  12.489  0.00  0.00    +0.000 A 
ATOM     15  C   UNL     1      45.139   5.124  11.092  0.00  0.00    +0.000 A 
BRANCH  10  16
ATOM     16  C   UNL     1      44.729   4.202   8.772  0.00  0.00    +0.000 C 
BRANCH  16  17
ATOM     17  N   UNL     1      45.851   5.071   8.437  0.00  0.00    +0.000 NA
ATOM     18  H   UNL     1      45.631   5.595   7.593  0.00  0.00    +0.000 HD
ATOM     19  H   UNL     1      46.660   4.491   8.216  0.00  0.00    +0.000 HD
ENDBRANCH  16  17
ENDBRANCH  10  16
ENDBRANCH   8  14
ENDBRANCH   7   8
ENDBRANCH   1   7
BRANCH   4  20
ATOM     20  C   UNL     1      51.168   9.097  11.996  0.00  0.00    +0.000 C 
BRANCH  20  21
ATOM     21  N   UNL     1      51.493   8.745  10.637  0.00  0.00    +0.000 N 
ATOM     22  C   UNL     1      52.796   8.542  10.257  0.00  0.00    +0.000 C 
ATOM     23  O   UNL     1      53.720   8.597  11.063  0.00  0.00    +0.000 OA
ATOM     24  H   UNL     1      50.790   8.920   9.924  0.00  0.00    +0.000 HD
BRANCH  22  25
ATOM     25  C   UNL     1      53.027   8.195   8.849  0.00  0.00    +0.000 A 
ATOM     26  C   UNL     1      52.917   9.178   7.875  0.00  0.00    +0.000 A 
ATOM     27  S   UNL     1      53.245   8.621   6.298  0.00  0.00    +0.000 S 
ATOM     28  C   UNL     1      53.501   7.032   6.854  0.00  0.00    +0.000 A 
ATOM     29  N   UNL     1      53.794   6.028   5.988  0.00  0.00    +0.000 NA
ATOM     30  C   UNL     1      53.935   4.869   6.543  0.00  0.00    +0.000 A 
ATOM     31  N   UNL     1      53.815   4.628   7.888  0.00  0.00    +0.000 N 
ATOM     32  C   UNL     1      53.554   5.619   8.803  0.00  0.00    +0.000 A 
ATOM     33  O   UNL     1      53.509   5.385  10.007  0.00  0.00    +0.000 OA
ATOM     34  C   UNL     1      53.366   6.935   8.229  0.00  0.00    +0.000 A 
ATOM     35  H   UNL     1      53.951   3.699   8.259  0.00  0.00    +0.000 HD
ENDBRANCH  22  25
ENDBRANCH  20  21
ENDBRANCH   4  20
TORSDOF 8
ENDMDL
