MODEL 1
REMARK VINA RESULT:    -7.766      0.000      0.000
REMARK INTER + INTRA:         -11.474
REMARK INTER:                 -10.036
REMARK INTRA:                  -1.437
REMARK UNBOUND:                -1.437
REMARK  Name = 
REMARK  8 active torsions:
REMARK  status: ('A' for Active; 'I' for Inactive)
REMARK    1  A    between atoms: C_1  and  C_2
REMARK    2  A    between atoms: C_2  and  N_3
REMARK    3  A    between atoms: C_2  and  C_16
REMARK    4  A    between atoms: C_4  and  C_6
REMARK    5  A    between atoms: C_19  and  C_20
REMARK    6  A    between atoms: C_20  and  C_21
REMARK    7  A    between atoms: C_20  and  C_22
REMARK    8  A    between atoms: C_20  and  C_23
REMARK                            x       y       z     vdW  Elec       q    Type
REMARK                         _______ _______ _______ _____ _____    ______ ____
ROOT
ATOM      1  C   UNL     1      48.715   8.067  13.738  0.00  0.00    +0.000 C 
ATOM      2  C   UNL     1      48.502   6.637  14.240  0.00  0.00    +0.000 C 
ENDROOT
BRANCH   2   3
ATOM      3  C   UNL     1      47.338   6.031  13.476  0.00  0.00    +0.000 A 
ATOM      4  C   UNL     1      46.729   6.739  12.436  0.00  0.00    +0.000 A 
ATOM      5  C   UNL     1      45.737   6.145  11.656  0.00  0.00    +0.000 A 
ATOM      6  C   UNL     1      45.331   4.817  11.861  0.00  0.00    +0.000 A 
ATOM      7  C   UNL     1      45.918   4.138  12.946  0.00  0.00    +0.000 A 
ATOM      8  C   UNL     1      46.886   4.739  13.755  0.00  0.00    +0.000 A 
BRANCH   6   9
ATOM      9  C   UNL     1      44.296   4.115  10.940  0.00  0.00    +0.000 C 
ATOM     10  C   UNL     1      43.595   2.942  11.679  0.00  0.00    +0.000 C 
ATOM     11  C   UNL     1      43.183   5.150  10.613  0.00  0.00    +0.000 C 
BRANCH   9  12
ATOM     12  C   UNL     1      44.949   3.540   9.659  0.00  0.00    +0.000 A 
ATOM     13  C   UNL     1      45.063   2.147   9.474  0.00  0.00    +0.000 A 
ATOM     14  C   UNL     1      45.714   1.652   8.351  0.00  0.00    +0.000 A 
ATOM     15  N   UNL     1      46.228   2.428   7.378  0.00  0.00    +0.000 NA
ATOM     16  C   UNL     1      46.081   3.757   7.537  0.00  0.00    +0.000 A 
ATOM     17  C   UNL     1      45.463   4.347   8.635  0.00  0.00    +0.000 A 
ENDBRANCH   9  12
ENDBRANCH   6   9
ENDBRANCH   2   3
BRANCH   2  18
ATOM     18  N   UNL     1      48.232   6.583  15.669  0.00  0.00    +0.000 N 
ATOM     19  C   UNL     1      49.169   6.202  16.591  0.00  0.00    +0.000 C 
ATOM     20  O   UNL     1      50.317   5.870  16.286  0.00  0.00    +0.000 OA
ATOM     21  H   UNL     1      47.257   6.473  15.933  0.00  0.00    +0.000 HD
BRANCH  19  22
ATOM     22  C   UNL     1      48.762   6.274  17.992  0.00  0.00    +0.000 A 
ATOM     23  C   UNL     1      48.842   5.155  18.806  0.00  0.00    +0.000 A 
ATOM     24  S   UNL     1      48.311   5.444  20.401  0.00  0.00    +0.000 S 
ATOM     25  C   UNL     1      47.930   7.063  20.040  0.00  0.00    +0.000 A 
ATOM     26  N   UNL     1      47.380   7.886  20.971  0.00  0.00    +0.000 NA
ATOM     27  C   UNL     1      47.111   9.072  20.541  0.00  0.00    +0.000 A 
ATOM     28  N   UNL     1      47.357   9.520  19.266  0.00  0.00    +0.000 N 
ATOM     29  C   UNL     1      47.955   8.741  18.315  0.00  0.00    +0.000 A 
ATOM     30  O   UNL     1      48.244   9.195  17.200  0.00  0.00    +0.000 OA
ATOM     31  C   UNL     1      48.238   7.388  18.732  0.00  0.00    +0.000 A 
ATOM     32  H   UNL     1      47.146  10.470  19.001  0.00  0.00    +0.000 HD
ENDBRANCH  19  22
ENDBRANCH   2  18
TORSDOF 5
ENDMDL
MODEL 2
REMARK VINA RESULT:    -7.547      3.963      8.635
REMARK INTER + INTRA:         -11.191
REMARK INTER:                  -9.683
REMARK INTRA:                  -1.508
REMARK UNBOUND:                -1.437
REMARK  Name = 
REMARK  8 active torsions:
REMARK  status: ('A' for Active; 'I' for Inactive)
REMARK    1  A    between atoms: C_1  and  C_2
REMARK    2  A    between atoms: C_2  and  N_3
REMARK    3  A    between atoms: C_2  and  C_16
REMARK    4  A    between atoms: C_4  and  C_6
REMARK    5  A    between atoms: C_19  and  C_20
REMARK    6  A    between atoms: C_20  and  C_21
REMARK    7  A    between atoms: C_20  and  C_22
REMARK    8  A    between atoms: C_20  and  C_23
REMARK                            x       y       z     vdW  Elec       q    Type
REMARK                         _______ _______ _______ _____ _____    ______ ____
ROOT
ATOM      1  C   UNL     1      49.684   7.706  12.556  0.00  0.00    +0.000 C 
ATOM      2  C   UNL     1      48.372   7.353  13.262  0.00  0.00    +0.000 C 
ENDROOT
BRANCH   2   3
ATOM      3  C   UNL     1      48.705   6.777  14.627  0.00  0.00    +0.000 A 
ATOM      4  C   UNL     1      47.890   5.795  15.199  0.00  0.00    +0.000 A 
ATOM      5  C   UNL     1      48.250   5.180  16.397  0.00  0.00    +0.000 A 
ATOM      6  C   UNL     1      49.448   5.495  17.060  0.00  0.00    +0.000 A 
ATOM      7  C   UNL     1      50.229   6.522  16.497  0.00  0.00    +0.000 A 
ATOM      8  C   UNL     1      49.855   7.170  15.316  0.00  0.00    +0.000 A 
BRANCH   6   9
ATOM      9  C   UNL     1      49.905   4.751  18.344  0.00  0.00    +0.000 C 
ATOM     10  C   UNL     1      50.660   5.708  19.306  0.00  0.00    +0.000 C 
ATOM     11  C   UNL     1      48.627   4.293  19.101  0.00  0.00    +0.000 C 
BRANCH   9  12
ATOM     12  C   UNL     1      50.848   3.564  18.026  0.00  0.00    +0.000 A 
ATOM     13  C   UNL     1      50.355   2.404  17.396  0.00  0.00    +0.000 A 
ATOM     14  C   UNL     1      51.201   1.323  17.181  0.00  0.00    +0.000 A 
ATOM     15  N   UNL     1      52.507   1.315  17.509  0.00  0.00    +0.000 NA
ATOM     16  C   UNL     1      52.986   2.440  18.074  0.00  0.00    +0.000 A 
ATOM     17  C   UNL     1      52.213   3.565  18.345  0.00  0.00    +0.000 A 
ENDBRANCH   9  12
ENDBRANCH   6   9
ENDBRANCH   2   3
BRANCH   2  18
ATOM     18  N   UNL     1      47.573   6.398  12.509  0.00  0.00    +0.000 N 
ATOM     19  C   UNL     1      46.433   6.747  11.837  0.00  0.00    +0.000 C 
ATOM     20  O   UNL     1      45.987   7.897  11.819  0.00  0.00    +0.000 OA
ATOM     21  H   UNL     1      47.663   5.426  12.788  0.00  0.00    +0.000 HD
BRANCH  19  22
ATOM     22  C   UNL     1      45.788   5.687  11.067  0.00  0.00    +0.000 A 
ATOM     23  C   UNL     1      45.868   5.677   9.682  0.00  0.00    +0.000 A 
ATOM     24  S   UNL     1      45.042   4.363   8.971  0.00  0.00    +0.000 S 
ATOM     25  C   UNL     1      44.529   3.792  10.490  0.00  0.00    +0.000 A 
ATOM     26  N   UNL     1      43.730   2.699  10.602  0.00  0.00    +0.000 NA
ATOM     27  C   UNL     1      43.392   2.409  11.813  0.00  0.00    +0.000 A 
ATOM     28  N   UNL     1      43.792   3.103  12.929  0.00  0.00    +0.000 N 
ATOM     29  C   UNL     1      44.637   4.176  12.863  0.00  0.00    +0.000 A 
ATOM     30  O   UNL     1      45.052   4.732  13.889  0.00  0.00    +0.000 OA
ATOM     31  C   UNL     1      45.011   4.570  11.526  0.00  0.00    +0.000 A 
ATOM     32  H   UNL     1      43.513   2.807  13.851  0.00  0.00    +0.000 HD
ENDBRANCH  19  22
ENDBRANCH   2  18
TORSDOF 5
ENDMDL
MODEL 3
REMARK VINA RESULT:    -7.518      1.652      2.229
REMARK INTER + INTRA:         -11.152
REMARK INTER:                  -9.698
REMARK INTRA:                  -1.454
REMARK UNBOUND:                -1.437
REMARK  Name = 
REMARK  8 active torsions:
REMARK  status: ('A' for Active; 'I' for Inactive)
REMARK    1  A    between atoms: C_1  and  C_2
REMARK    2  A    between atoms: C_2  and  N_3
REMARK    3  A    between atoms: C_2  and  C_16
REMARK    4  A    between atoms: C_4  and  C_6
REMARK    5  A    between atoms: C_19  and  C_20
REMARK    6  A    between atoms: C_20  and  C_21
REMARK    7  A    between atoms: C_20  and  C_22
REMARK    8  A    between atoms: C_20  and  C_23
REMARK                            x       y       z     vdW  Elec       q    Type
REMARK                         _______ _______ _______ _____ _____    ______ ____
ROOT
ATOM      1  C   UNL     1      48.555   8.770  13.599  0.00  0.00    +0.000 C 
ATOM      2  C   UNL     1      48.612   7.299  14.020  0.00  0.00    +0.000 C 
ENDROOT
BRANCH   2   3
ATOM      3  C   UNL     1      47.419   6.582  13.413  0.00  0.00    +0.000 A 
ATOM      4  C   UNL     1      46.569   7.249  12.525  0.00  0.00    +0.000 A 
ATOM      5  C   UNL     1      45.540   6.566  11.877  0.00  0.00    +0.000 A 
ATOM      6  C   UNL     1      45.333   5.190  12.063  0.00  0.00    +0.000 A 
ATOM      7  C   UNL     1      46.164   4.548  13.000  0.00  0.00    +0.000 A 
ATOM      8  C   UNL     1      47.174   5.234  13.682  0.00  0.00    +0.000 A 
BRANCH   6   9
ATOM      9  C   UNL     1      44.251   4.401  11.276  0.00  0.00    +0.000 C 
ATOM     10  C   UNL     1      43.650   3.260  12.142  0.00  0.00    +0.000 C 
ATOM     11  C   UNL     1      43.082   5.380  10.975  0.00  0.00    +0.000 C 
BRANCH   9  12
ATOM     12  C   UNL     1      44.820   3.761   9.985  0.00  0.00    +0.000 A 
ATOM     13  C   UNL     1      44.811   2.362   9.812  0.00  0.00    +0.000 A 
ATOM     14  C   UNL     1      45.387   1.803   8.679  0.00  0.00    +0.000 A 
ATOM     15  N   UNL     1      45.939   2.524   7.684  0.00  0.00    +0.000 NA
ATOM     16  C   UNL     1      45.910   3.863   7.832  0.00  0.00    +0.000 A 
ATOM     17  C   UNL     1      45.373   4.512   8.939  0.00  0.00    +0.000 A 
ENDBRANCH   9  12
ENDBRANCH   6   9
ENDBRANCH   2   3
BRANCH   2  18
ATOM     18  N   UNL     1      48.601   7.132  15.465  0.00  0.00    +0.000 N 
ATOM     19  C   UNL     1      49.742   7.094  16.220  0.00  0.00    +0.000 C 
ATOM     20  O   UNL     1      50.873   7.194  15.736  0.00  0.00    +0.000 OA
ATOM     21  H   UNL     1      47.778   6.680  15.854  0.00  0.00    +0.000 HD
BRANCH  19  22
ATOM     22  C   UNL     1      49.557   6.997  17.665  0.00  0.00    +0.000 A 
ATOM     23  C   UNL     1      49.777   8.099  18.478  0.00  0.00    +0.000 A 
ATOM     24  S   UNL     1      49.516   7.777  20.133  0.00  0.00    +0.000 S 
ATOM     25  C   UNL     1      49.134   6.149  19.813  0.00  0.00    +0.000 A 
ATOM     26  N   UNL     1      48.848   5.279  20.816  0.00  0.00    +0.000 NA
ATOM     27  C   UNL     1      48.615   4.072  20.423  0.00  0.00    +0.000 A 
ATOM     28  N   UNL     1      48.627   3.655  19.114  0.00  0.00    +0.000 N 
ATOM     29  C   UNL     1      48.860   4.510  18.072  0.00  0.00    +0.000 A 
ATOM     30  O   UNL     1      48.780   4.128  16.897  0.00  0.00    +0.000 OA
ATOM     31  C   UNL     1      49.169   5.866  18.461  0.00  0.00    +0.000 A 
ATOM     32  H   UNL     1      48.410   2.701  18.872  0.00  0.00    +0.000 HD
ENDBRANCH  19  22
ENDBRANCH   2  18
TORSDOF 5
ENDMDL
MODEL 4
REMARK VINA RESULT:    -7.169      3.712      9.011
REMARK INTER + INTRA:         -10.702
REMARK INTER:                  -9.367
REMARK INTRA:                  -1.336
REMARK UNBOUND:                -1.437
REMARK  Name = 
REMARK  8 active torsions:
REMARK  status: ('A' for Active; 'I' for Inactive)
REMARK    1  A    between atoms: C_1  and  C_2
REMARK    2  A    between atoms: C_2  and  N_3
REMARK    3  A    between atoms: C_2  and  C_16
REMARK    4  A    between atoms: C_4  and  C_6
REMARK    5  A    between atoms: C_19  and  C_20
REMARK    6  A    between atoms: C_20  and  C_21
REMARK    7  A    between atoms: C_20  and  C_22
REMARK    8  A    between atoms: C_20  and  C_23
REMARK                            x       y       z     vdW  Elec       q    Type
REMARK                         _______ _______ _______ _____ _____    ______ ____
ROOT
ATOM      1  C   UNL     1      48.980   7.130  12.485  0.00  0.00    +0.000 C 
ATOM      2  C   UNL     1      47.777   6.790  13.368  0.00  0.00    +0.000 C 
ENDROOT
BRANCH   2   3
ATOM      3  C   UNL     1      48.293   6.357  14.729  0.00  0.00    +0.000 A 
ATOM      4  C   UNL     1      47.673   5.313  15.422  0.00  0.00    +0.000 A 
ATOM      5  C   UNL     1      48.209   4.834  16.617  0.00  0.00    +0.000 A 
ATOM      6  C   UNL     1      49.396   5.355  17.157  0.00  0.00    +0.000 A 
ATOM      7  C   UNL     1      49.976   6.441  16.474  0.00  0.00    +0.000 A 
ATOM      8  C   UNL     1      49.424   6.950  15.295  0.00  0.00    +0.000 A 
BRANCH   6   9
ATOM      9  C   UNL     1      50.053   4.768  18.436  0.00  0.00    +0.000 C 
ATOM     10  C   UNL     1      50.873   5.850  19.190  0.00  0.00    +0.000 C 
ATOM     11  C   UNL     1      48.907   4.343  19.397  0.00  0.00    +0.000 C 
BRANCH   9  12
ATOM     12  C   UNL     1      51.008   3.592  18.115  0.00  0.00    +0.000 A 
ATOM     13  C   UNL     1      50.522   2.419  17.503  0.00  0.00    +0.000 A 
ATOM     14  C   UNL     1      51.380   1.348  17.286  0.00  0.00    +0.000 A 
ATOM     15  N   UNL     1      52.691   1.363  17.593  0.00  0.00    +0.000 NA
ATOM     16  C   UNL     1      53.162   2.500  18.141  0.00  0.00    +0.000 A 
ATOM     17  C   UNL     1      52.377   3.616  18.414  0.00  0.00    +0.000 A 
ENDBRANCH   9  12
ENDBRANCH   6   9
ENDBRANCH   2   3
BRANCH   2  18
ATOM     18  N   UNL     1      46.949   5.737  12.801  0.00  0.00    +0.000 N 
ATOM     19  C   UNL     1      45.597   5.863  12.630  0.00  0.00    +0.000 C 
ATOM     20  O   UNL     1      44.970   6.878  12.947  0.00  0.00    +0.000 OA
ATOM     21  H   UNL     1      47.316   4.793  12.876  0.00  0.00    +0.000 HD
BRANCH  19  22
ATOM     22  C   UNL     1      44.922   4.745  11.977  0.00  0.00    +0.000 A 
ATOM     23  C   UNL     1      44.118   3.885  12.708  0.00  0.00    +0.000 A 
ATOM     24  S   UNL     1      43.430   2.641  11.764  0.00  0.00    +0.000 S 
ATOM     25  C   UNL     1      44.213   3.199  10.359  0.00  0.00    +0.000 A 
ATOM     26  N   UNL     1      44.089   2.548   9.173  0.00  0.00    +0.000 NA
ATOM     27  C   UNL     1      44.770   3.066   8.208  0.00  0.00    +0.000 A 
ATOM     28  N   UNL     1      45.556   4.187   8.314  0.00  0.00    +0.000 N 
ATOM     29  C   UNL     1      45.668   4.900   9.475  0.00  0.00    +0.000 A 
ATOM     30  O   UNL     1      46.314   5.955   9.523  0.00  0.00    +0.000 OA
ATOM     31  C   UNL     1      44.959   4.338  10.600  0.00  0.00    +0.000 A 
ATOM     32  H   UNL     1      46.044   4.556   7.512  0.00  0.00    +0.000 HD
ENDBRANCH  19  22
ENDBRANCH   2  18
TORSDOF 5
ENDMDL
MODEL 5
REMARK VINA RESULT:    -7.071      1.746      2.697
REMARK INTER + INTRA:         -10.575
REMARK INTER:                  -9.234
REMARK INTRA:                  -1.341
REMARK UNBOUND:                -1.437
REMARK  Name = 
REMARK  8 active torsions:
REMARK  status: ('A' for Active; 'I' for Inactive)
REMARK    1  A    between atoms: C_1  and  C_2
REMARK    2  A    between atoms: C_2  and  N_3
REMARK    3  A    between atoms: C_2  and  C_16
REMARK    4  A    between atoms: C_4  and  C_6
REMARK    5  A    between atoms: C_19  and  C_20
REMARK    6  A    between atoms: C_20  and  C_21
REMARK    7  A    between atoms: C_20  and  C_22
REMARK    8  A    between atoms: C_20  and  C_23
REMARK                            x       y       z     vdW  Elec       q    Type
REMARK                         _______ _______ _______ _____ _____    ______ ____
ROOT
ATOM      1  C   UNL     1      47.490  10.387  12.733  0.00  0.00    +0.000 C 
ATOM      2  C   UNL     1      47.808   9.071  13.448  0.00  0.00    +0.000 C 
ENDROOT
BRANCH   2   3
ATOM      3  C   UNL     1      46.954   7.976  12.834  0.00  0.00    +0.000 A 
ATOM      4  C   UNL     1      47.292   6.631  13.011  0.00  0.00    +0.000 A 
ATOM      5  C   UNL     1      46.452   5.619  12.548  0.00  0.00    +0.000 A 
ATOM      6  C   UNL     1      45.230   5.902  11.916  0.00  0.00    +0.000 A 
ATOM      7  C   UNL     1      44.932   7.261  11.699  0.00  0.00    +0.000 A 
ATOM      8  C   UNL     1      45.788   8.280  12.128  0.00  0.00    +0.000 A 
BRANCH   6   9
ATOM      9  C   UNL     1      44.243   4.785  11.481  0.00  0.00    +0.000 C 
ATOM     10  C   UNL     1      44.009   3.767  12.629  0.00  0.00    +0.000 C 
ATOM     11  C   UNL     1      42.867   5.457  11.208  0.00  0.00    +0.000 C 
BRANCH   9  12
ATOM     12  C   UNL     1      44.758   3.997  10.251  0.00  0.00    +0.000 A 
ATOM     13  C   UNL     1      45.370   4.667   9.173  0.00  0.00    +0.000 A 
ATOM     14  C   UNL     1      45.763   3.952   8.049  0.00  0.00    +0.000 A 
ATOM     15  N   UNL     1      45.631   2.617   7.925  0.00  0.00    +0.000 NA
ATOM     16  C   UNL     1      45.082   1.973   8.973  0.00  0.00    +0.000 A 
ATOM     17  C   UNL     1      44.641   2.605  10.131  0.00  0.00    +0.000 A 
ENDBRANCH   9  12
ENDBRANCH   6   9
ENDBRANCH   2   3
BRANCH   2  18
ATOM     18  N   UNL     1      47.559   9.140  14.880  0.00  0.00    +0.000 N 
ATOM     19  C   UNL     1      48.549   9.367  15.798  0.00  0.00    +0.000 C 
ATOM     20  O   UNL     1      49.732   9.527  15.487  0.00  0.00    +0.000 OA
ATOM     21  H   UNL     1      46.728   8.660  15.211  0.00  0.00    +0.000 HD
BRANCH  19  22
ATOM     22  C   UNL     1      48.123   9.484  17.190  0.00  0.00    +0.000 A 
ATOM     23  C   UNL     1      47.764  10.716  17.715  0.00  0.00    +0.000 A 
ATOM     24  S   UNL     1      47.308  10.641  19.357  0.00  0.00    +0.000 S 
ATOM     25  C   UNL     1      47.609   8.967  19.421  0.00  0.00    +0.000 A 
ATOM     26  N   UNL     1      47.458   8.264  20.574  0.00  0.00    +0.000 NA
ATOM     27  C   UNL     1      47.759   7.013  20.478  0.00  0.00    +0.000 A 
ATOM     28  N   UNL     1      48.183   6.393  19.329  0.00  0.00    +0.000 N 
ATOM     29  C   UNL     1      48.299   7.052  18.137  0.00  0.00    +0.000 A 
ATOM     30  O   UNL     1      48.600   6.453  17.096  0.00  0.00    +0.000 OA
ATOM     31  C   UNL     1      48.015   8.467  18.199  0.00  0.00    +0.000 A 
ATOM     32  H   UNL     1      48.377   5.403  19.315  0.00  0.00    +0.000 HD
ENDBRANCH  19  22
ENDBRANCH   2  18
TORSDOF 5
ENDMDL
MODEL 6
REMARK VINA RESULT:    -6.838      2.986      4.851
REMARK INTER + INTRA:         -10.274
REMARK INTER:                  -8.638
REMARK INTRA:                  -1.637
REMARK UNBOUND:                -1.437
REMARK  Name = 
REMARK  8 active torsions:
REMARK  status: ('A' for Active; 'I' for Inactive)
REMARK    1  A    between atoms: C_1  and  C_2
REMARK    2  A    between atoms: C_2  and  N_3
REMARK    3  A    between atoms: C_2  and  C_16
REMARK    4  A    between atoms: C_4  and  C_6
REMARK    5  A    between atoms: C_19  and  C_20
REMARK    6  A    between atoms: C_20  and  C_21
REMARK    7  A    between atoms: C_20  and  C_22
REMARK    8  A    between atoms: C_20  and  C_23
REMARK                            x       y       z     vdW  Elec       q    Type
REMARK                         _______ _______ _______ _____ _____    ______ ____
ROOT
ATOM      1  C   UNL     1      48.155   4.804  16.177  0.00  0.00    +0.000 C 
ATOM      2  C   UNL     1      47.846   5.992  15.262  0.00  0.00    +0.000 C 
ENDROOT
BRANCH   2   3
ATOM      3  C   UNL     1      47.033   5.487  14.083  0.00  0.00    +0.000 A 
ATOM      4  C   UNL     1      46.773   4.121  13.936  0.00  0.00    +0.000 A 
ATOM      5  C   UNL     1      45.933   3.662  12.922  0.00  0.00    +0.000 A 
ATOM      6  C   UNL     1      45.297   4.542  12.032  0.00  0.00    +0.000 A 
ATOM      7  C   UNL     1      45.612   5.908  12.163  0.00  0.00    +0.000 A 
ATOM      8  C   UNL     1      46.483   6.372  13.154  0.00  0.00    +0.000 A 
BRANCH   6   9
ATOM      9  C   UNL     1      44.287   4.052  10.960  0.00  0.00    +0.000 C 
ATOM     10  C   UNL     1      43.413   2.889  11.505  0.00  0.00    +0.000 C 
ATOM     11  C   UNL     1      43.313   5.226  10.662  0.00  0.00    +0.000 C 
BRANCH   9  12
ATOM     12  C   UNL     1      44.995   3.546   9.678  0.00  0.00    +0.000 A 
ATOM     13  C   UNL     1      45.146   2.166   9.438  0.00  0.00    +0.000 A 
ATOM     14  C   UNL     1      45.844   1.733   8.318  0.00  0.00    +0.000 A 
ATOM     15  N   UNL     1      46.374   2.561   7.397  0.00  0.00    +0.000 NA
ATOM     16  C   UNL     1      46.194   3.879   7.608  0.00  0.00    +0.000 A 
ATOM     17  C   UNL     1      45.527   4.407   8.708  0.00  0.00    +0.000 A 
ENDBRANCH   9  12
ENDBRANCH   6   9
ENDBRANCH   2   3
BRANCH   2  18
ATOM     18  N   UNL     1      49.050   6.653  14.780  0.00  0.00    +0.000 N 
ATOM     19  C   UNL     1      49.321   7.973  15.017  0.00  0.00    +0.000 C 
ATOM     20  O   UNL     1      48.566   8.712  15.654  0.00  0.00    +0.000 OA
ATOM     21  H   UNL     1      49.494   6.231  13.970  0.00  0.00    +0.000 HD
BRANCH  19  22
ATOM     22  C   UNL     1      50.607   8.465  14.530  0.00  0.00    +0.000 A 
ATOM     23  C   UNL     1      51.525   9.019  15.409  0.00  0.00    +0.000 A 
ATOM     24  S   UNL     1      52.958   9.541  14.643  0.00  0.00    +0.000 S 
ATOM     25  C   UNL     1      52.377   9.071  13.113  0.00  0.00    +0.000 A 
ATOM     26  N   UNL     1      53.105   9.280  11.985  0.00  0.00    +0.000 NA
ATOM     27  C   UNL     1      52.519   8.906  10.898  0.00  0.00    +0.000 A 
ATOM     28  N   UNL     1      51.275   8.326  10.834  0.00  0.00    +0.000 N 
ATOM     29  C   UNL     1      50.533   8.053  11.949  0.00  0.00    +0.000 A 
ATOM     30  O   UNL     1      49.453   7.452  11.872  0.00  0.00    +0.000 OA
ATOM     31  C   UNL     1      51.125   8.491  13.191  0.00  0.00    +0.000 A 
ATOM     32  H   UNL     1      50.885   8.033   9.952  0.00  0.00    +0.000 HD
ENDBRANCH  19  22
ENDBRANCH   2  18
TORSDOF 5
ENDMDL
MODEL 7
REMARK VINA RESULT:    -6.694      3.315      9.125
REMARK INTER + INTRA:         -10.088
REMARK INTER:                  -8.647
REMARK INTRA:                  -1.441
REMARK UNBOUND:                -1.437
REMARK  Name = 
REMARK  8 active torsions:
REMARK  status: ('A' for Active; 'I' for Inactive)
REMARK    1  A    between atoms: C_1  and  C_2
REMARK    2  A    between atoms: C_2  and  N_3
REMARK    3  A    between atoms: C_2  and  C_16
REMARK    4  A    between atoms: C_4  and  C_6
REMARK    5  A    between atoms: C_19  and  C_20
REMARK    6  A    between atoms: C_20  and  C_21
REMARK    7  A    between atoms: C_20  and  C_22
REMARK    8  A    between atoms: C_20  and  C_23
REMARK                            x       y       z     vdW  Elec       q    Type
REMARK                         _______ _______ _______ _____ _____    ______ ____
ROOT
ATOM      1  C   UNL     1      49.550   8.111  11.876  0.00  0.00    +0.000 C 
ATOM      2  C   UNL     1      48.375   7.596  12.711  0.00  0.00    +0.000 C 
ENDROOT
BRANCH   2   3
ATOM      3  C   UNL     1      48.922   7.052  14.019  0.00  0.00    +0.000 A 
ATOM      4  C   UNL     1      50.140   7.516  14.525  0.00  0.00    +0.000 A 
ATOM      5  C   UNL     1      50.592   7.106  15.779  0.00  0.00    +0.000 A 
ATOM      6  C   UNL     1      49.840   6.242  16.591  0.00  0.00    +0.000 A 
ATOM      7  C   UNL     1      48.643   5.744  16.043  0.00  0.00    +0.000 A 
ATOM      8  C   UNL     1      48.201   6.121  14.771  0.00  0.00    +0.000 A 
BRANCH   6   9
ATOM      9  C   UNL     1      50.288   5.853  18.026  0.00  0.00    +0.000 C 
ATOM     10  C   UNL     1      50.259   4.313  18.223  0.00  0.00    +0.000 C 
ATOM     11  C   UNL     1      51.773   6.285  18.187  0.00  0.00    +0.000 C 
BRANCH   9  12
ATOM     12  C   UNL     1      49.380   6.483  19.112  0.00  0.00    +0.000 A 
ATOM     13  C   UNL     1      48.408   5.706  19.774  0.00  0.00    +0.000 A 
ATOM     14  C   UNL     1      47.557   6.305  20.694  0.00  0.00    +0.000 A 
ATOM     15  N   UNL     1      47.618   7.605  21.039  0.00  0.00    +0.000 NA
ATOM     16  C   UNL     1      48.574   8.336  20.434  0.00  0.00    +0.000 A 
ATOM     17  C   UNL     1      49.458   7.831  19.487  0.00  0.00    +0.000 A 
ENDBRANCH   9  12
ENDBRANCH   6   9
ENDBRANCH   2   3
BRANCH   2  18
ATOM     18  N   UNL     1      47.618   6.559  12.027  0.00  0.00    +0.000 N 
ATOM     19  C   UNL     1      46.289   6.684  11.724  0.00  0.00    +0.000 C 
ATOM     20  O   UNL     1      45.624   7.683  12.008  0.00  0.00    +0.000 OA
ATOM     21  H   UNL     1      47.983   5.614  12.109  0.00  0.00    +0.000 HD
BRANCH  19  22
ATOM     22  C   UNL     1      45.694   5.585  10.968  0.00  0.00    +0.000 A 
ATOM     23  C   UNL     1      45.820   5.531   9.588  0.00  0.00    +0.000 A 
ATOM     24  S   UNL     1      45.047   4.177   8.894  0.00  0.00    +0.000 S 
ATOM     25  C   UNL     1      44.496   3.644  10.414  0.00  0.00    +0.000 A 
ATOM     26  N   UNL     1      43.718   2.537  10.536  0.00  0.00    +0.000 NA
ATOM     27  C   UNL     1      43.347   2.278  11.745  0.00  0.00    +0.000 A 
ATOM     28  N   UNL     1      43.694   3.017  12.849  0.00  0.00    +0.000 N 
ATOM     29  C   UNL     1      44.516   4.107  12.775  0.00  0.00    +0.000 A 
ATOM     30  O   UNL     1      44.885   4.705  13.795  0.00  0.00    +0.000 OA
ATOM     31  C   UNL     1      44.926   4.465  11.439  0.00  0.00    +0.000 A 
ATOM     32  H   UNL     1      43.391   2.744  13.771  0.00  0.00    +0.000 HD
ENDBRANCH  19  22
ENDBRANCH   2  18
TORSDOF 5
ENDMDL
MODEL 8
REMARK VINA RESULT:    -6.451      3.839      8.445
REMARK INTER + INTRA:          -9.774
REMARK INTER:                  -8.336
REMARK INTRA:                  -1.438
REMARK UNBOUND:                -1.437
REMARK  Name = 
REMARK  8 active torsions:
REMARK  status: ('A' for Active; 'I' for Inactive)
REMARK    1  A    between atoms: C_1  and  C_2
REMARK    2  A    between atoms: C_2  and  N_3
REMARK    3  A    between atoms: C_2  and  C_16
REMARK    4  A    between atoms: C_4  and  C_6
REMARK    5  A    between atoms: C_19  and  C_20
REMARK    6  A    between atoms: C_20  and  C_21
REMARK    7  A    between atoms: C_20  and  C_22
REMARK    8  A    between atoms: C_20  and  C_23
REMARK                            x       y       z     vdW  Elec       q    Type
REMARK                         _______ _______ _______ _____ _____    ______ ____
ROOT
ATOM      1  C   UNL     1      49.471   8.827  11.341  0.00  0.00    +0.000 C 
ATOM      2  C   UNL     1      48.296   8.373  12.212  0.00  0.00    +0.000 C 
ENDROOT
BRANCH   2   3
ATOM      3  C   UNL     1      48.827   8.043  13.595  0.00  0.00    +0.000 A 
ATOM      4  C   UNL     1      47.958   7.965  14.687  0.00  0.00    +0.000 A 
ATOM      5  C   UNL     1      48.420   7.552  15.937  0.00  0.00    +0.000 A 
ATOM      6  C   UNL     1      49.756   7.173  16.144  0.00  0.00    +0.000 A 
ATOM      7  C   UNL     1      50.627   7.309  15.046  0.00  0.00    +0.000 A 
ATOM      8  C   UNL     1      50.179   7.758  13.800  0.00  0.00    +0.000 A 
BRANCH   6   9
ATOM      9  C   UNL     1      50.261   6.622  17.505  0.00  0.00    +0.000 C 
ATOM     10  C   UNL     1      51.711   7.093  17.796  0.00  0.00    +0.000 C 
ATOM     11  C   UNL     1      49.370   7.240  18.619  0.00  0.00    +0.000 C 
BRANCH   9  12
ATOM     12  C   UNL     1      50.252   5.073  17.547  0.00  0.00    +0.000 A 
ATOM     13  C   UNL     1      51.458   4.347  17.492  0.00  0.00    +0.000 A 
ATOM     14  C   UNL     1      51.427   2.958  17.461  0.00  0.00    +0.000 A 
ATOM     15  N   UNL     1      50.294   2.232  17.519  0.00  0.00    +0.000 NA
ATOM     16  C   UNL     1      49.145   2.928  17.613  0.00  0.00    +0.000 A 
ATOM     17  C   UNL     1      49.075   4.317  17.631  0.00  0.00    +0.000 A 
ENDBRANCH   9  12
ENDBRANCH   6   9
ENDBRANCH   2   3
BRANCH   2  18
ATOM     18  N   UNL     1      47.610   7.213  11.661  0.00  0.00    +0.000 N 
ATOM     19  C   UNL     1      46.247   7.104  11.619  0.00  0.00    +0.000 C 
ATOM     20  O   UNL     1      45.488   7.978  12.048  0.00  0.00    +0.000 OA
ATOM     21  H   UNL     1      48.141   6.347  11.650  0.00  0.00    +0.000 HD
BRANCH  19  22
ATOM     22  C   UNL     1      45.715   5.912  10.966  0.00  0.00    +0.000 A 
ATOM     23  C   UNL     1      45.949   5.684   9.619  0.00  0.00    +0.000 A 
ATOM     24  S   UNL     1      45.236   4.244   9.045  0.00  0.00    +0.000 S 
ATOM     25  C   UNL     1      44.566   3.903  10.572  0.00  0.00    +0.000 A 
ATOM     26  N   UNL     1      43.782   2.811  10.774  0.00  0.00    +0.000 NA
ATOM     27  C   UNL     1      43.316   2.705  11.972  0.00  0.00    +0.000 A 
ATOM     28  N   UNL     1      43.574   3.582  12.997  0.00  0.00    +0.000 N 
ATOM     29  C   UNL     1      44.399   4.663  12.849  0.00  0.00    +0.000 A 
ATOM     30  O   UNL     1      44.684   5.390  13.810  0.00  0.00    +0.000 OA
ATOM     31  C   UNL     1      44.913   4.853  11.514  0.00  0.00    +0.000 A 
ATOM     32  H   UNL     1      43.199   3.426  13.920  0.00  0.00    +0.000 HD
ENDBRANCH  19  22
ENDBRANCH   2  18
TORSDOF 5
ENDMDL
MODEL 9
REMARK VINA RESULT:    -5.564      4.339      6.630
REMARK INTER + INTRA:          -8.627
REMARK INTER:                  -7.571
REMARK INTRA:                  -1.056
REMARK UNBOUND:                -1.437
REMARK  Name = 
REMARK  8 active torsions:
REMARK  status: ('A' for Active; 'I' for Inactive)
REMARK    1  A    between atoms: C_1  and  C_2
REMARK    2  A    between atoms: C_2  and  N_3
REMARK    3  A    between atoms: C_2  and  C_16
REMARK    4  A    between atoms: C_4  and  C_6
REMARK    5  A    between atoms: C_19  and  C_20
REMARK    6  A    between atoms: C_20  and  C_21
REMARK    7  A    between atoms: C_20  and  C_22
REMARK    8  A    between atoms: C_20  and  C_23
REMARK                            x       y       z     vdW  Elec       q    Type
REMARK                         _______ _______ _______ _____ _____    ______ ____
ROOT
ATOM      1  C   UNL     1      49.750   7.226  14.722  0.00  0.00    +0.000 C 
ATOM      2  C   UNL     1      48.971   8.129  13.763  0.00  0.00    +0.000 C 
ENDROOT
BRANCH   2   3
ATOM      3  C   UNL     1      47.851   7.313  13.142  0.00  0.00    +0.000 A 
ATOM      4  C   UNL     1      47.566   6.029  13.614  0.00  0.00    +0.000 A 
ATOM      5  C   UNL     1      46.468   5.319  13.128  0.00  0.00    +0.000 A 
ATOM      6  C   UNL     1      45.596   5.868  12.174  0.00  0.00    +0.000 A 
ATOM      7  C   UNL     1      45.930   7.140  11.672  0.00  0.00    +0.000 A 
ATOM      8  C   UNL     1      47.049   7.842  12.128  0.00  0.00    +0.000 A 
BRANCH   6   9
ATOM      9  C   UNL     1      44.319   5.126  11.694  0.00  0.00    +0.000 C 
ATOM     10  C   UNL     1      43.723   4.248  12.828  0.00  0.00    +0.000 C 
ATOM     11  C   UNL     1      43.246   6.203  11.368  0.00  0.00    +0.000 C 
BRANCH   9  12
ATOM     12  C   UNL     1      44.600   4.202  10.483  0.00  0.00    +0.000 A 
ATOM     13  C   UNL     1      45.054   4.738   9.261  0.00  0.00    +0.000 A 
ATOM     14  C   UNL     1      45.234   3.902   8.166  0.00  0.00    +0.000 A 
ATOM     15  N   UNL     1      45.036   2.571   8.197  0.00  0.00    +0.000 NA
ATOM     16  C   UNL     1      44.641   2.055   9.377  0.00  0.00    +0.000 A 
ATOM     17  C   UNL     1      44.416   2.813  10.522  0.00  0.00    +0.000 A 
ENDBRANCH   9  12
ENDBRANCH   6   9
ENDBRANCH   2   3
BRANCH   2  18
ATOM     18  N   UNL     1      49.813   8.685  12.714  0.00  0.00    +0.000 N 
ATOM     19  C   UNL     1      50.873   9.511  12.969  0.00  0.00    +0.000 C 
ATOM     20  O   UNL     1      51.201   9.855  14.107  0.00  0.00    +0.000 OA
ATOM     21  H   UNL     1      49.388   8.752  11.793  0.00  0.00    +0.000 HD
BRANCH  19  22
ATOM     22  C   UNL     1      51.664   9.921  11.811  0.00  0.00    +0.000 A 
ATOM     23  C   UNL     1      52.081  11.237  11.675  0.00  0.00    +0.000 A 
ATOM     24  S   UNL     1      52.982  11.514  10.253  0.00  0.00    +0.000 S 
ATOM     25  C   UNL     1      52.811   9.892   9.764  0.00  0.00    +0.000 A 
ATOM     26  N   UNL     1      53.320   9.451   8.583  0.00  0.00    +0.000 NA
ATOM     27  C   UNL     1      53.080   8.209   8.331  0.00  0.00    +0.000 A 
ATOM     28  N   UNL     1      52.389   7.358   9.159  0.00  0.00    +0.000 N 
ATOM     29  C   UNL     1      51.905   7.748  10.377  0.00  0.00    +0.000 A 
ATOM     30  O   UNL     1      51.362   6.941  11.142  0.00  0.00    +0.000 OA
ATOM     31  C   UNL     1      52.110   9.143  10.689  0.00  0.00    +0.000 A 
ATOM     32  H   UNL     1      52.259   6.389   8.913  0.00  0.00    +0.000 HD
ENDBRANCH  19  22
ENDBRANCH   2  18
TORSDOF 5
ENDMDL
