MODEL 1
REMARK VINA RESULT:    -7.649      0.000      0.000
REMARK INTER + INTRA:         -10.773
REMARK INTER:                 -10.109
REMARK INTRA:                  -0.664
REMARK UNBOUND:                -0.664
REMARK  Name = 
REMARK  6 active torsions:
REMARK  status: ('A' for Active; 'I' for Inactive)
REMARK    1  A    between atoms: N_1  and  C_2
REMARK    2  A    between atoms: C_2  and  C_3
REMARK    3  A    between atoms: C_6  and  C_7
REMARK    4  A    between atoms: C_7  and  O_8
REMARK    5  A    between atoms: O_8  and  C_9
REMARK    6  A    between atoms: C_12  and  C_13
REMARK                            x       y       z     vdW  Elec       q    Type
REMARK                         _______ _______ _______ _____ _____    ______ ____
ROOT
ATOM      1  O   UNL     1      44.284   4.170  11.503  0.00  0.00    +0.000 OA
ENDROOT
BRANCH   1   2
ATOM      2  C   UNL     1      44.983   5.251  11.953  0.00  0.00    +0.000 A 
ATOM      3  C   UNL     1      44.711   6.578  11.616  0.00  0.00    +0.000 A 
ATOM      4  C   UNL     1      45.502   7.611  12.135  0.00  0.00    +0.000 A 
ATOM      5  C   UNL     1      46.572   7.337  13.000  0.00  0.00    +0.000 A 
ATOM      6  C   UNL     1      46.848   6.011  13.336  0.00  0.00    +0.000 A 
ATOM      7  C   UNL     1      46.063   4.981  12.810  0.00  0.00    +0.000 A 
ATOM      8 CL   UNL     1      46.469   3.357  13.256  0.00  0.00    +0.000 Cl
BRANCH   5   9
ATOM      9  C   UNL     1      47.366   8.489  13.517  0.00  0.00    +0.000 C 
ATOM     10  N   UNL     1      47.144   8.920  14.795  0.00  0.00    +0.000 N 
ATOM     11  O   UNL     1      48.204   9.046  12.820  0.00  0.00    +0.000 OA
ATOM     12  H   UNL     1      46.481   8.532  15.446  0.00  0.00    +0.000 HD
ATOM     13  H   UNL     1      47.702   9.705  15.110  0.00  0.00    +0.000 HD
ENDBRANCH   5   9
ENDBRANCH   1   2
BRANCH   1  14
ATOM     14  C   UNL     1      43.768   4.181  10.173  0.00  0.00    +0.000 C 
BRANCH  14  18
ATOM     15  C   UNL     1      46.654   2.343   7.504  0.00  0.00    +0.000 A 
ATOM     16  C   UNL     1      46.472   3.731   7.504  0.00  0.00    +0.000 A 
ATOM     17  C   UNL     1      45.556   4.329   8.371  0.00  0.00    +0.000 A 
ATOM     18  C   UNL     1      44.785   3.551   9.246  0.00  0.00    +0.000 A 
ATOM     19  C   UNL     1      44.995   2.166   9.273  0.00  0.00    +0.000 A 
ATOM     20  C   UNL     1      45.915   1.567   8.407  0.00  0.00    +0.000 A 
BRANCH  15  21
ATOM     21  C   UNL     1      47.596   1.698   6.520  0.00  0.00    +0.000 C 
BRANCH  21  22
ATOM     22  N   UNL     1      48.732   2.557   6.211  0.00  0.00    +0.000 NA
ATOM     23  H   UNL     1      48.398   3.504   6.045  0.00  0.00    +0.000 HD
ATOM     24  H   UNL     1      49.154   2.239   5.340  0.00  0.00    +0.000 HD
ENDBRANCH  21  22
ENDBRANCH  15  21
ENDBRANCH  14  18
ENDBRANCH   1  14
TORSDOF 6
ENDMDL
MODEL 2
REMARK VINA RESULT:    -7.582      1.976      2.382
REMARK INTER + INTRA:         -10.685
REMARK INTER:                 -10.108
REMARK INTRA:                  -0.576
REMARK UNBOUND:                -0.664
REMARK  Name = 
REMARK  6 active torsions:
REMARK  status: ('A' for Active; 'I' for Inactive)
REMARK    1  A    between atoms: N_1  and  C_2
REMARK    2  A    between atoms: C_2  and  C_3
REMARK    3  A    between atoms: C_6  and  C_7
REMARK    4  A    between atoms: C_7  and  O_8
REMARK    5  A    between atoms: O_8  and  C_9
REMARK    6  A    between atoms: C_12  and  C_13
REMARK                            x       y       z     vdW  Elec       q    Type
REMARK                         _______ _______ _______ _____ _____    ______ ____
ROOT
ATOM      1  O   UNL     1      44.206   4.207  10.933  0.00  0.00    +0.000 OA
ENDROOT
BRANCH   1   2
ATOM      2  C   UNL     1      45.098   4.452  11.936  0.00  0.00    +0.000 A 
ATOM      3  C   UNL     1      45.764   3.473  12.673  0.00  0.00    +0.000 A 
ATOM      4  C   UNL     1      46.657   3.843  13.687  0.00  0.00    +0.000 A 
ATOM      5  C   UNL     1      46.902   5.194  13.977  0.00  0.00    +0.000 A 
ATOM      6  C   UNL     1      46.235   6.175  13.243  0.00  0.00    +0.000 A 
ATOM      7  C   UNL     1      45.338   5.804  12.237  0.00  0.00    +0.000 A 
ATOM      8 CL   UNL     1      44.532   7.071  11.374  0.00  0.00    +0.000 Cl
BRANCH   5   9
ATOM      9  C   UNL     1      47.870   5.511  15.066  0.00  0.00    +0.000 C 
ATOM     10  N   UNL     1      48.282   6.805  15.224  0.00  0.00    +0.000 N 
ATOM     11  O   UNL     1      48.296   4.639  15.812  0.00  0.00    +0.000 OA
ATOM     12  H   UNL     1      47.994   7.592  14.666  0.00  0.00    +0.000 HD
ATOM     13  H   UNL     1      48.940   6.981  15.974  0.00  0.00    +0.000 HD
ENDBRANCH   5   9
ENDBRANCH   1   2
BRANCH   1  14
ATOM     14  C   UNL     1      44.145   2.900  10.364  0.00  0.00    +0.000 C 
BRANCH  14  18
ATOM     15  C   UNL     1      46.644   2.749   6.819  0.00  0.00    +0.000 A 
ATOM     16  C   UNL     1      46.070   3.957   7.231  0.00  0.00    +0.000 A 
ATOM     17  C   UNL     1      45.277   4.014   8.379  0.00  0.00    +0.000 A 
ATOM     18  C   UNL     1      45.024   2.860   9.133  0.00  0.00    +0.000 A 
ATOM     19  C   UNL     1      45.630   1.659   8.742  0.00  0.00    +0.000 A 
ATOM     20  C   UNL     1      46.427   1.602   7.594  0.00  0.00    +0.000 A 
BRANCH  15  21
ATOM     21  C   UNL     1      47.444   2.680   5.543  0.00  0.00    +0.000 C 
BRANCH  21  22
ATOM     22  N   UNL     1      48.582   1.778   5.663  0.00  0.00    +0.000 NA
ATOM     23  H   UNL     1      48.869   1.732   6.639  0.00  0.00    +0.000 HD
ATOM     24  H   UNL     1      49.367   2.173   5.147  0.00  0.00    +0.000 HD
ENDBRANCH  21  22
ENDBRANCH  15  21
ENDBRANCH  14  18
ENDBRANCH   1  14
TORSDOF 6
ENDMDL
MODEL 3
REMARK VINA RESULT:    -7.302      2.441      6.669
REMARK INTER + INTRA:         -10.314
REMARK INTER:                  -9.541
REMARK INTRA:                  -0.773
REMARK UNBOUND:                -0.664
REMARK  Name = 
REMARK  6 active torsions:
REMARK  status: ('A' for Active; 'I' for Inactive)
REMARK    1  A    between atoms: N_1  and  C_2
REMARK    2  A    between atoms: C_2  and  C_3
REMARK    3  A    between atoms: C_6  and  C_7
REMARK    4  A    between atoms: C_7  and  O_8
REMARK    5  A    between atoms: O_8  and  C_9
REMARK    6  A    between atoms: C_12  and  C_13
REMARK                            x       y       z     vdW  Elec       q    Type
REMARK                         _______ _______ _______ _____ _____    ______ ____
ROOT
ATOM      1  O   UNL     1      44.366   5.147  10.043  0.00  0.00    +0.000 OA
ENDROOT
BRANCH   1   2
ATOM      2  C   UNL     1      45.101   4.322   9.243  0.00  0.00    +0.000 A 
ATOM      3  C   UNL     1      45.978   4.747   8.244  0.00  0.00    +0.000 A 
ATOM      4  C   UNL     1      46.678   3.806   7.478  0.00  0.00    +0.000 A 
ATOM      5  C   UNL     1      46.517   2.430   7.699  0.00  0.00    +0.000 A 
ATOM      6  C   UNL     1      45.638   2.003   8.695  0.00  0.00    +0.000 A 
ATOM      7  C   UNL     1      44.934   2.942   9.454  0.00  0.00    +0.000 A 
ATOM      8 CL   UNL     1      43.850   2.345  10.664  0.00  0.00    +0.000 Cl
BRANCH   5   9
ATOM      9  C   UNL     1      47.300   1.488   6.848  0.00  0.00    +0.000 C 
ATOM     10  N   UNL     1      48.325   1.983   6.090  0.00  0.00    +0.000 N 
ATOM     11  O   UNL     1      47.040   0.293   6.818  0.00  0.00    +0.000 OA
ATOM     12  H   UNL     1      48.617   2.944   6.042  0.00  0.00    +0.000 HD
ATOM     13  H   UNL     1      48.833   1.312   5.525  0.00  0.00    +0.000 HD
ENDBRANCH   5   9
ENDBRANCH   1   2
BRANCH   1  14
ATOM     14  C   UNL     1      45.009   6.252  10.676  0.00  0.00    +0.000 C 
BRANCH  14  18
ATOM     15  C   UNL     1      46.840   4.850  14.352  0.00  0.00    +0.000 A 
ATOM     16  C   UNL     1      47.536   5.711  13.496  0.00  0.00    +0.000 A 
ATOM     17  C   UNL     1      46.947   6.177  12.320  0.00  0.00    +0.000 A 
ATOM     18  C   UNL     1      45.652   5.777  11.961  0.00  0.00    +0.000 A 
ATOM     19  C   UNL     1      44.941   4.946  12.836  0.00  0.00    +0.000 A 
ATOM     20  C   UNL     1      45.530   4.482  14.016  0.00  0.00    +0.000 A 
BRANCH  15  21
ATOM     21  C   UNL     1      47.506   4.298  15.586  0.00  0.00    +0.000 C 
BRANCH  21  22
ATOM     22  N   UNL     1      47.933   2.916  15.402  0.00  0.00    +0.000 NA
ATOM     23  H   UNL     1      47.149   2.298  15.597  0.00  0.00    +0.000 HD
ATOM     24  H   UNL     1      48.652   2.703  16.091  0.00  0.00    +0.000 HD
ENDBRANCH  21  22
ENDBRANCH  15  21
ENDBRANCH  14  18
ENDBRANCH   1  14
TORSDOF 6
ENDMDL
MODEL 4
REMARK VINA RESULT:    -7.246      2.397      6.758
REMARK INTER + INTRA:         -10.240
REMARK INTER:                  -9.472
REMARK INTRA:                  -0.768
REMARK UNBOUND:                -0.664
REMARK  Name = 
REMARK  6 active torsions:
REMARK  status: ('A' for Active; 'I' for Inactive)
REMARK    1  A    between atoms: N_1  and  C_2
REMARK    2  A    between atoms: C_2  and  C_3
REMARK    3  A    between atoms: C_6  and  C_7
REMARK    4  A    between atoms: C_7  and  O_8
REMARK    5  A    between atoms: O_8  and  C_9
REMARK    6  A    between atoms: C_12  and  C_13
REMARK                            x       y       z     vdW  Elec       q    Type
REMARK                         _______ _______ _______ _____ _____    ______ ____
ROOT
ATOM      1  O   UNL     1      44.308   5.107  10.098  0.00  0.00    +0.000 OA
ENDROOT
BRANCH   1   2
ATOM      2  C   UNL     1      45.051   4.301   9.287  0.00  0.00    +0.000 A 
ATOM      3  C   UNL     1      45.916   4.748   8.287  0.00  0.00    +0.000 A 
ATOM      4  C   UNL     1      46.626   3.825   7.508  0.00  0.00    +0.000 A 
ATOM      5  C   UNL     1      46.489   2.445   7.717  0.00  0.00    +0.000 A 
ATOM      6  C   UNL     1      45.623   1.995   8.715  0.00  0.00    +0.000 A 
ATOM      7  C   UNL     1      44.908   2.917   9.486  0.00  0.00    +0.000 A 
ATOM      8 CL   UNL     1      43.841   2.291  10.697  0.00  0.00    +0.000 Cl
BRANCH   5   9
ATOM      9  C   UNL     1      47.281   1.524   6.853  0.00  0.00    +0.000 C 
ATOM     10  N   UNL     1      48.297   2.040   6.098  0.00  0.00    +0.000 N 
ATOM     11  O   UNL     1      47.037   0.325   6.812  0.00  0.00    +0.000 OA
ATOM     12  H   UNL     1      48.576   3.006   6.061  0.00  0.00    +0.000 HD
ATOM     13  H   UNL     1      48.812   1.383   5.524  0.00  0.00    +0.000 HD
ENDBRANCH   5   9
ENDBRANCH   1   2
BRANCH   1  14
ATOM     14  C   UNL     1      44.929   6.237  10.709  0.00  0.00    +0.000 C 
BRANCH  14  18
ATOM     15  C   UNL     1      46.965   4.990  14.333  0.00  0.00    +0.000 A 
ATOM     16  C   UNL     1      45.689   4.500  14.032  0.00  0.00    +0.000 A 
ATOM     17  C   UNL     1      45.035   4.886  12.860  0.00  0.00    +0.000 A 
ATOM     18  C   UNL     1      45.635   5.788  11.970  0.00  0.00    +0.000 A 
ATOM     19  C   UNL     1      46.928   6.248  12.252  0.00  0.00    +0.000 A 
ATOM     20  C   UNL     1      47.584   5.858  13.424  0.00  0.00    +0.000 A 
BRANCH  15  21
ATOM     21  C   UNL     1      47.637   4.621  15.631  0.00  0.00    +0.000 C 
BRANCH  21  22
ATOM     22  N   UNL     1      47.817   3.181  15.760  0.00  0.00    +0.000 NA
ATOM     23  H   UNL     1      46.939   2.761  16.054  0.00  0.00    +0.000 HD
ATOM     24  H   UNL     1      48.490   3.002  16.504  0.00  0.00    +0.000 HD
ENDBRANCH  21  22
ENDBRANCH  15  21
ENDBRANCH  14  18
ENDBRANCH   1  14
TORSDOF 6
ENDMDL
MODEL 5
REMARK VINA RESULT:    -7.102      2.445      6.475
REMARK INTER + INTRA:         -10.050
REMARK INTER:                  -9.364
REMARK INTRA:                  -0.687
REMARK UNBOUND:                -0.664
REMARK  Name = 
REMARK  6 active torsions:
REMARK  status: ('A' for Active; 'I' for Inactive)
REMARK    1  A    between atoms: N_1  and  C_2
REMARK    2  A    between atoms: C_2  and  C_3
REMARK    3  A    between atoms: C_6  and  C_7
REMARK    4  A    between atoms: C_7  and  O_8
REMARK    5  A    between atoms: O_8  and  C_9
REMARK    6  A    between atoms: C_12  and  C_13
REMARK                            x       y       z     vdW  Elec       q    Type
REMARK                         _______ _______ _______ _____ _____    ______ ____
ROOT
ATOM      1  O   UNL     1      43.557   3.423  10.527  0.00  0.00    +0.000 OA
ENDROOT
BRANCH   1   2
ATOM      2  C   UNL     1      44.477   3.076   9.581  0.00  0.00    +0.000 A 
ATOM      3  C   UNL     1      44.728   1.774   9.147  0.00  0.00    +0.000 A 
ATOM      4  C   UNL     1      45.703   1.535   8.170  0.00  0.00    +0.000 A 
ATOM      5  C   UNL     1      46.439   2.590   7.609  0.00  0.00    +0.000 A 
ATOM      6  C   UNL     1      46.191   3.893   8.044  0.00  0.00    +0.000 A 
ATOM      7  C   UNL     1      45.223   4.129   9.025  0.00  0.00    +0.000 A 
ATOM      8 CL   UNL     1      44.976   5.767   9.529  0.00  0.00    +0.000 Cl
BRANCH   5   9
ATOM      9  C   UNL     1      47.457   2.259   6.571  0.00  0.00    +0.000 C 
ATOM     10  N   UNL     1      47.458   2.968   5.402  0.00  0.00    +0.000 N 
ATOM     11  O   UNL     1      48.281   1.372   6.750  0.00  0.00    +0.000 OA
ATOM     12  H   UNL     1      46.826   3.712   5.158  0.00  0.00    +0.000 HD
ATOM     13  H   UNL     1      48.164   2.714   4.721  0.00  0.00    +0.000 HD
ENDBRANCH   5   9
ENDBRANCH   1   2
BRANCH   1  14
ATOM     14  C   UNL     1      43.748   2.988  11.872  0.00  0.00    +0.000 C 
BRANCH  14  18
ATOM     15  C   UNL     1      46.891   5.374  13.679  0.00  0.00    +0.000 A 
ATOM     16  C   UNL     1      45.701   5.974  13.251  0.00  0.00    +0.000 A 
ATOM     17  C   UNL     1      44.681   5.209  12.683  0.00  0.00    +0.000 A 
ATOM     18  C   UNL     1      44.834   3.827  12.510  0.00  0.00    +0.000 A 
ATOM     19  C   UNL     1      46.009   3.220  12.973  0.00  0.00    +0.000 A 
ATOM     20  C   UNL     1      47.029   3.985  13.546  0.00  0.00    +0.000 A 
BRANCH  15  21
ATOM     21  C   UNL     1      48.014   6.214  14.230  0.00  0.00    +0.000 C 
BRANCH  21  22
ATOM     22  N   UNL     1      49.054   6.450  13.237  0.00  0.00    +0.000 NA
ATOM     23  H   UNL     1      49.303   7.436  13.244  0.00  0.00    +0.000 HD
ATOM     24  H   UNL     1      48.674   6.251  12.313  0.00  0.00    +0.000 HD
ENDBRANCH  21  22
ENDBRANCH  15  21
ENDBRANCH  14  18
ENDBRANCH   1  14
TORSDOF 6
ENDMDL
MODEL 6
REMARK VINA RESULT:    -6.672      1.782      2.299
REMARK INTER + INTRA:          -9.482
REMARK INTER:                  -9.313
REMARK INTRA:                  -0.169
REMARK UNBOUND:                -0.664
REMARK  Name = 
REMARK  6 active torsions:
REMARK  status: ('A' for Active; 'I' for Inactive)
REMARK    1  A    between atoms: N_1  and  C_2
REMARK    2  A    between atoms: C_2  and  C_3
REMARK    3  A    between atoms: C_6  and  C_7
REMARK    4  A    between atoms: C_7  and  O_8
REMARK    5  A    between atoms: O_8  and  C_9
REMARK    6  A    between atoms: C_12  and  C_13
REMARK                            x       y       z     vdW  Elec       q    Type
REMARK                         _______ _______ _______ _____ _____    ______ ____
ROOT
ATOM      1  O   UNL     1      44.776   4.098  11.358  0.00  0.00    +0.000 OA
ENDROOT
BRANCH   1   2
ATOM      2  C   UNL     1      45.082   5.416  11.533  0.00  0.00    +0.000 A 
ATOM      3  C   UNL     1      46.375   5.940  11.575  0.00  0.00    +0.000 A 
ATOM      4  C   UNL     1      46.570   7.313  11.766  0.00  0.00    +0.000 A 
ATOM      5  C   UNL     1      45.481   8.185  11.913  0.00  0.00    +0.000 A 
ATOM      6  C   UNL     1      44.187   7.664  11.874  0.00  0.00    +0.000 A 
ATOM      7  C   UNL     1      43.994   6.291  11.692  0.00  0.00    +0.000 A 
ATOM      8 CL   UNL     1      42.364   5.708  11.667  0.00  0.00    +0.000 Cl
BRANCH   5   9
ATOM      9  C   UNL     1      45.767   9.636  12.107  0.00  0.00    +0.000 C 
ATOM     10  N   UNL     1      47.068  10.054  12.129  0.00  0.00    +0.000 N 
ATOM     11  O   UNL     1      44.862  10.448  12.246  0.00  0.00    +0.000 OA
ATOM     12  H   UNL     1      47.881   9.469  12.025  0.00  0.00    +0.000 HD
ATOM     13  H   UNL     1      47.222  11.046  12.264  0.00  0.00    +0.000 HD
ENDBRANCH   5   9
ENDBRANCH   1   2
BRANCH   1  14
ATOM     14  C   UNL     1      44.039   3.706  10.202  0.00  0.00    +0.000 C 
BRANCH  14  18
ATOM     15  C   UNL     1      46.835   2.314   7.189  0.00  0.00    +0.000 A 
ATOM     16  C   UNL     1      46.238   1.410   8.074  0.00  0.00    +0.000 A 
ATOM     17  C   UNL     1      45.327   1.850   9.036  0.00  0.00    +0.000 A 
ATOM     18  C   UNL     1      45.005   3.210   9.148  0.00  0.00    +0.000 A 
ATOM     19  C   UNL     1      45.572   4.109   8.237  0.00  0.00    +0.000 A 
ATOM     20  C   UNL     1      46.482   3.668   7.271  0.00  0.00    +0.000 A 
BRANCH  15  21
ATOM     21  C   UNL     1      47.868   1.843   6.197  0.00  0.00    +0.000 C 
BRANCH  21  22
ATOM     22  N   UNL     1      48.207   2.881   5.232  0.00  0.00    +0.000 NA
ATOM     23  H   UNL     1      47.794   2.645   4.332  0.00  0.00    +0.000 HD
ATOM     24  H   UNL     1      49.217   2.883   5.097  0.00  0.00    +0.000 HD
ENDBRANCH  21  22
ENDBRANCH  15  21
ENDBRANCH  14  18
ENDBRANCH   1  14
TORSDOF 6
ENDMDL
MODEL 7
REMARK VINA RESULT:    -5.861      4.939      7.507
REMARK INTER + INTRA:          -8.409
REMARK INTER:                  -7.927
REMARK INTRA:                  -0.483
REMARK UNBOUND:                -0.664
REMARK  Name = 
REMARK  6 active torsions:
REMARK  status: ('A' for Active; 'I' for Inactive)
REMARK    1  A    between atoms: N_1  and  C_2
REMARK    2  A    between atoms: C_2  and  C_3
REMARK    3  A    between atoms: C_6  and  C_7
REMARK    4  A    between atoms: C_7  and  O_8
REMARK    5  A    between atoms: O_8  and  C_9
REMARK    6  A    between atoms: C_12  and  C_13
REMARK                            x       y       z     vdW  Elec       q    Type
REMARK                         _______ _______ _______ _____ _____    ______ ____
ROOT
ATOM      1  O   UNL     1      47.773   5.474  15.139  0.00  0.00    +0.000 OA
ENDROOT
BRANCH   1   2
ATOM      2  C   UNL     1      47.049   5.283  13.998  0.00  0.00    +0.000 A 
ATOM      3  C   UNL     1      46.351   4.118  13.677  0.00  0.00    +0.000 A 
ATOM      4  C   UNL     1      45.644   4.033  12.471  0.00  0.00    +0.000 A 
ATOM      5  C   UNL     1      45.619   5.108  11.570  0.00  0.00    +0.000 A 
ATOM      6  C   UNL     1      46.318   6.274  11.888  0.00  0.00    +0.000 A 
ATOM      7  C   UNL     1      47.030   6.354  13.089  0.00  0.00    +0.000 A 
ATOM      8 CL   UNL     1      47.887   7.823  13.415  0.00  0.00    +0.000 Cl
BRANCH   5   9
ATOM      9  C   UNL     1      44.840   4.946  10.309  0.00  0.00    +0.000 C 
ATOM     10  N   UNL     1      43.488   5.146  10.339  0.00  0.00    +0.000 N 
ATOM     11  O   UNL     1      45.390   4.640   9.259  0.00  0.00    +0.000 OA
ATOM     12  H   UNL     1      42.944   5.398  11.147  0.00  0.00    +0.000 HD
ATOM     13  H   UNL     1      42.994   5.026   9.463  0.00  0.00    +0.000 HD
ENDBRANCH   5   9
ENDBRANCH   1   2
BRANCH   1  14
ATOM     14  C   UNL     1      47.451   4.710  16.300  0.00  0.00    +0.000 C 
BRANCH  14  18
ATOM     15  C   UNL     1      50.912   2.337  17.405  0.00  0.00    +0.000 A 
ATOM     16  C   UNL     1      50.862   3.703  17.707  0.00  0.00    +0.000 A 
ATOM     17  C   UNL     1      49.745   4.468  17.368  0.00  0.00    +0.000 A 
ATOM     18  C   UNL     1      48.657   3.889  16.699  0.00  0.00    +0.000 A 
ATOM     19  C   UNL     1      48.691   2.515  16.430  0.00  0.00    +0.000 A 
ATOM     20  C   UNL     1      49.808   1.747  16.774  0.00  0.00    +0.000 A 
BRANCH  15  21
ATOM     21  C   UNL     1      52.148   1.532  17.714  0.00  0.00    +0.000 C 
BRANCH  21  22
ATOM     22  N   UNL     1      51.821   0.175  18.135  0.00  0.00    +0.000 NA
ATOM     23  H   UNL     1      52.265  -0.011  19.031  0.00  0.00    +0.000 HD
ATOM     24  H   UNL     1      52.225  -0.480  17.467  0.00  0.00    +0.000 HD
ENDBRANCH  21  22
ENDBRANCH  15  21
ENDBRANCH  14  18
ENDBRANCH   1  14
TORSDOF 6
ENDMDL
MODEL 8
REMARK VINA RESULT:    -5.824      3.708      4.657
REMARK INTER + INTRA:          -8.361
REMARK INTER:                  -7.917
REMARK INTRA:                  -0.444
REMARK UNBOUND:                -0.664
REMARK  Name = 
REMARK  6 active torsions:
REMARK  status: ('A' for Active; 'I' for Inactive)
REMARK    1  A    between atoms: N_1  and  C_2
REMARK    2  A    between atoms: C_2  and  C_3
REMARK    3  A    between atoms: C_6  and  C_7
REMARK    4  A    between atoms: C_7  and  O_8
REMARK    5  A    between atoms: O_8  and  C_9
REMARK    6  A    between atoms: C_12  and  C_13
REMARK                            x       y       z     vdW  Elec       q    Type
REMARK                         _______ _______ _______ _____ _____    ______ ____
ROOT
ATOM      1  O   UNL     1      46.766   5.708  13.567  0.00  0.00    +0.000 OA
ENDROOT
BRANCH   1   2
ATOM      2  C   UNL     1      47.327   5.224  14.713  0.00  0.00    +0.000 A 
ATOM      3  C   UNL     1      47.055   3.975  15.273  0.00  0.00    +0.000 A 
ATOM      4  C   UNL     1      47.689   3.585  16.459  0.00  0.00    +0.000 A 
ATOM      5  C   UNL     1      48.605   4.431  17.103  0.00  0.00    +0.000 A 
ATOM      6  C   UNL     1      48.876   5.682  16.546  0.00  0.00    +0.000 A 
ATOM      7  C   UNL     1      48.237   6.073  15.366  0.00  0.00    +0.000 A 
ATOM      8 CL   UNL     1      48.607   7.643  14.737  0.00  0.00    +0.000 Cl
BRANCH   5   9
ATOM      9  C   UNL     1      49.244   3.945  18.359  0.00  0.00    +0.000 C 
ATOM     10  N   UNL     1      48.448   3.444  19.352  0.00  0.00    +0.000 N 
ATOM     11  O   UNL     1      50.457   3.989  18.512  0.00  0.00    +0.000 OA
ATOM     12  H   UNL     1      47.445   3.367  19.325  0.00  0.00    +0.000 HD
ATOM     13  H   UNL     1      48.918   3.125  20.190  0.00  0.00    +0.000 HD
ENDBRANCH   5   9
ENDBRANCH   1   2
BRANCH   1  14
ATOM     14  C   UNL     1      45.428   5.338  13.241  0.00  0.00    +0.000 C 
BRANCH  14  18
ATOM     15  C   UNL     1      45.336   4.037   9.102  0.00  0.00    +0.000 A 
ATOM     16  C   UNL     1      44.933   3.173  10.126  0.00  0.00    +0.000 A 
ATOM     17  C   UNL     1      44.946   3.591  11.458  0.00  0.00    +0.000 A 
ATOM     18  C   UNL     1      45.382   4.879  11.800  0.00  0.00    +0.000 A 
ATOM     19  C   UNL     1      45.748   5.757  10.772  0.00  0.00    +0.000 A 
ATOM     20  C   UNL     1      45.731   5.339   9.437  0.00  0.00    +0.000 A 
BRANCH  15  21
ATOM     21  C   UNL     1      45.382   3.558   7.673  0.00  0.00    +0.000 C 
BRANCH  21  22
ATOM     22  N   UNL     1      46.527   4.102   6.955  0.00  0.00    +0.000 NA
ATOM     23  H   UNL     1      46.443   5.116   6.914  0.00  0.00    +0.000 HD
ATOM     24  H   UNL     1      46.497   3.768   5.993  0.00  0.00    +0.000 HD
ENDBRANCH  21  22
ENDBRANCH  15  21
ENDBRANCH  14  18
ENDBRANCH   1  14
TORSDOF 6
ENDMDL
MODEL 9
REMARK VINA RESULT:    -5.623      4.240      8.099
REMARK INTER + INTRA:          -8.095
REMARK INTER:                  -7.763
REMARK INTRA:                  -0.333
REMARK UNBOUND:                -0.664
REMARK  Name = 
REMARK  6 active torsions:
REMARK  status: ('A' for Active; 'I' for Inactive)
REMARK    1  A    between atoms: N_1  and  C_2
REMARK    2  A    between atoms: C_2  and  C_3
REMARK    3  A    between atoms: C_6  and  C_7
REMARK    4  A    between atoms: C_7  and  O_8
REMARK    5  A    between atoms: O_8  and  C_9
REMARK    6  A    between atoms: C_12  and  C_13
REMARK                            x       y       z     vdW  Elec       q    Type
REMARK                         _______ _______ _______ _____ _____    ______ ____
ROOT
ATOM      1  O   UNL     1      48.284   5.724  14.018  0.00  0.00    +0.000 OA
ENDROOT
BRANCH   1   2
ATOM      2  C   UNL     1      47.075   5.644  13.392  0.00  0.00    +0.000 A 
ATOM      3  C   UNL     1      46.005   4.854  13.813  0.00  0.00    +0.000 A 
ATOM      4  C   UNL     1      44.808   4.848  13.086  0.00  0.00    +0.000 A 
ATOM      5  C   UNL     1      44.658   5.631  11.932  0.00  0.00    +0.000 A 
ATOM      6  C   UNL     1      45.728   6.420  11.507  0.00  0.00    +0.000 A 
ATOM      7  C   UNL     1      46.925   6.420  12.229  0.00  0.00    +0.000 A 
ATOM      8 CL   UNL     1      48.217   7.410  11.640  0.00  0.00    +0.000 Cl
BRANCH   5   9
ATOM      9  C   UNL     1      43.353   5.577  11.213  0.00  0.00    +0.000 C 
ATOM     10  N   UNL     1      42.297   6.290  11.710  0.00  0.00    +0.000 N 
ATOM     11  O   UNL     1      43.215   4.911  10.196  0.00  0.00    +0.000 OA
ATOM     12  H   UNL     1      42.306   6.865  12.536  0.00  0.00    +0.000 HD
ATOM     13  H   UNL     1      41.428   6.227  11.195  0.00  0.00    +0.000 HD
ENDBRANCH   5   9
ENDBRANCH   1   2
BRANCH   1  14
ATOM     14  C   UNL     1      48.542   6.821  14.891  0.00  0.00    +0.000 C 
BRANCH  14  18
ATOM     15  C   UNL     1      49.188   5.274  18.894  0.00  0.00    +0.000 A 
ATOM     16  C   UNL     1      49.497   6.604  18.589  0.00  0.00    +0.000 A 
ATOM     17  C   UNL     1      49.278   7.112  17.308  0.00  0.00    +0.000 A 
ATOM     18  C   UNL     1      48.761   6.294  16.293  0.00  0.00    +0.000 A 
ATOM     19  C   UNL     1      48.416   4.973  16.607  0.00  0.00    +0.000 A 
ATOM     20  C   UNL     1      48.632   4.466  17.893  0.00  0.00    +0.000 A 
BRANCH  15  21
ATOM     21  C   UNL     1      49.490   4.714  20.261  0.00  0.00    +0.000 C 
BRANCH  21  22
ATOM     22  N   UNL     1      48.402   3.880  20.758  0.00  0.00    +0.000 NA
ATOM     23  H   UNL     1      48.211   3.145  20.081  0.00  0.00    +0.000 HD
ATOM     24  H   UNL     1      47.559   4.448  20.819  0.00  0.00    +0.000 HD
ENDBRANCH  21  22
ENDBRANCH  15  21
ENDBRANCH  14  18
ENDBRANCH   1  14
TORSDOF 6
ENDMDL
