MODEL 1
REMARK VINA RESULT:    -8.640      0.000      0.000
REMARK INTER + INTRA:         -13.168
REMARK INTER:                 -12.176
REMARK INTRA:                  -0.992
REMARK UNBOUND:                -0.992
REMARK  Name = 
REMARK  9 active torsions:
REMARK  status: ('A' for Active; 'I' for Inactive)
REMARK    1  A    between atoms: C_1  and  C_2
REMARK    2  A    between atoms: C_4  and  N_5
REMARK    3  A    between atoms: N_5  and  C_6
REMARK    4  A    between atoms: C_6  and  C_7
REMARK    5  A    between atoms: C_7  and  C_8
REMARK    6  A    between atoms: C_7  and  C_9
REMARK    7  A    between atoms: C_13  and  O_14
REMARK    8  A    between atoms: O_14  and  C_15
REMARK    9  A    between atoms: C_22  and  C_23
REMARK                            x       y       z     vdW  Elec       q    Type
REMARK                         _______ _______ _______ _____ _____    ______ ____
ROOT
ATOM      1  N   UNL     1      43.769   3.219  10.260  0.00  0.00    +0.000 N 
ATOM      2  H   UNL     1      42.913   2.704  10.072  0.00  0.00    +0.000 HD
ENDROOT
BRANCH   1   6
ATOM      3  C   UNL     1      46.734   0.199   7.701  0.00  0.00    +0.000 C 
ATOM      4  C   UNL     1      46.167   1.569   7.944  0.00  0.00    +0.000 A 
ATOM      5  C   UNL     1      45.219   1.733   8.971  0.00  0.00    +0.000 A 
ATOM      6  C   UNL     1      44.654   2.981   9.227  0.00  0.00    +0.000 A 
ATOM      7  N   UNL     1      45.002   4.061   8.506  0.00  0.00    +0.000 NA
ATOM      8  C   UNL     1      45.932   3.901   7.527  0.00  0.00    +0.000 A 
ATOM      9  C   UNL     1      46.556   2.698   7.214  0.00  0.00    +0.000 A 
BRANCH   9  10
ATOM     10  C   UNL     1      47.573   2.642   6.132  0.00  0.00    +0.000 C 
ATOM     11  N   UNL     1      48.884   2.484   6.499  0.00  0.00    +0.000 N 
ATOM     12  O   UNL     1      47.277   2.704   4.947  0.00  0.00    +0.000 OA
ATOM     13  H   UNL     1      49.178   2.205   7.423  0.00  0.00    +0.000 HD
ATOM     14  H   UNL     1      49.541   2.347   5.740  0.00  0.00    +0.000 HD
ENDBRANCH   9  10
ENDBRANCH   1   6
BRANCH   1  15
ATOM     15  C   UNL     1      44.227   3.267  11.641  0.00  0.00    +0.000 C 
BRANCH  15  16
ATOM     16  C   UNL     1      44.074   4.679  12.258  0.00  0.00    +0.000 C 
ATOM     17  C   UNL     1      43.203   5.587  11.377  0.00  0.00    +0.000 C 
BRANCH  16  18
ATOM     18  C   UNL     1      45.467   5.244  12.527  0.00  0.00    +0.000 A 
ATOM     19  C   UNL     1      46.007   6.197  11.649  0.00  0.00    +0.000 A 
ATOM     20  C   UNL     1      47.220   6.829  11.940  0.00  0.00    +0.000 A 
ATOM     21  C   UNL     1      47.924   6.512  13.105  0.00  0.00    +0.000 A 
ATOM     22  C   UNL     1      47.419   5.546  13.968  0.00  0.00    +0.000 A 
ATOM     23  C   UNL     1      46.197   4.925  13.683  0.00  0.00    +0.000 A 
BRANCH  22  24
ATOM     24  O   UNL     1      48.000   5.160  15.151  0.00  0.00    +0.000 OA
BRANCH  24  25
ATOM     25  C   UNL     1      47.309   4.237  16.018  0.00  0.00    +0.000 C 
ATOM     26  C   UNL     1      47.352   4.518  17.541  0.00  0.00    +0.000 C 
ATOM     27  C   UNL     1      47.619   3.022  17.769  0.00  0.00    +0.000 C 
ATOM     28  C   UNL     1      48.114   2.943  16.318  0.00  0.00    +0.000 C 
ENDBRANCH  24  25
ENDBRANCH  22  24
ENDBRANCH  16  18
ENDBRANCH  15  16
ENDBRANCH   1  15
TORSDOF 7
ENDMDL
MODEL 2
REMARK VINA RESULT:    -7.909      1.154      1.759
REMARK INTER + INTRA:         -12.137
REMARK INTER:                 -11.963
REMARK INTRA:                  -0.175
REMARK UNBOUND:                -0.992
REMARK  Name = 
REMARK  9 active torsions:
REMARK  status: ('A' for Active; 'I' for Inactive)
REMARK    1  A    between atoms: C_1  and  C_2
REMARK    2  A    between atoms: C_4  and  N_5
REMARK    3  A    between atoms: N_5  and  C_6
REMARK    4  A    between atoms: C_6  and  C_7
REMARK    5  A    between atoms: C_7  and  C_8
REMARK    6  A    between atoms: C_7  and  C_9
REMARK    7  A    between atoms: C_13  and  O_14
REMARK    8  A    between atoms: O_14  and  C_15
REMARK    9  A    between atoms: C_22  and  C_23
REMARK                            x       y       z     vdW  Elec       q    Type
REMARK                         _______ _______ _______ _____ _____    ______ ____
ROOT
ATOM      1  N   UNL     1      43.381   4.768   9.776  0.00  0.00    +0.000 N 
ATOM      2  H   UNL     1      42.499   4.267   9.834  0.00  0.00    +0.000 HD
ENDROOT
BRANCH   1   6
ATOM      3  C   UNL     1      47.299   3.897   6.886  0.00  0.00    +0.000 C 
ATOM      4  C   UNL     1      46.227   3.396   7.812  0.00  0.00    +0.000 A 
ATOM      5  C   UNL     1      45.332   4.327   8.371  0.00  0.00    +0.000 A 
ATOM      6  C   UNL     1      44.329   3.915   9.246  0.00  0.00    +0.000 A 
ATOM      7  N   UNL     1      44.185   2.618   9.575  0.00  0.00    +0.000 NA
ATOM      8  C   UNL     1      45.041   1.721   9.018  0.00  0.00    +0.000 A 
ATOM      9  C   UNL     1      46.059   2.043   8.126  0.00  0.00    +0.000 A 
BRANCH   9  10
ATOM     10  C   UNL     1      46.928   0.975   7.565  0.00  0.00    +0.000 C 
ATOM     11  N   UNL     1      47.993   1.362   6.796  0.00  0.00    +0.000 N 
ATOM     12  O   UNL     1      46.738  -0.212   7.789  0.00  0.00    +0.000 OA
ATOM     13  H   UNL     1      48.340   2.308   6.752  0.00  0.00    +0.000 HD
ATOM     14  H   UNL     1      48.625   0.622   6.512  0.00  0.00    +0.000 HD
ENDBRANCH   9  10
ENDBRANCH   1   6
BRANCH   1  15
ATOM     15  C   UNL     1      43.712   5.664  10.874  0.00  0.00    +0.000 C 
BRANCH  15  16
ATOM     16  C   UNL     1      44.221   4.898  12.119  0.00  0.00    +0.000 C 
ATOM     17  C   UNL     1      43.221   4.985  13.282  0.00  0.00    +0.000 C 
BRANCH  16  18
ATOM     18  C   UNL     1      45.613   5.415  12.472  0.00  0.00    +0.000 A 
ATOM     19  C   UNL     1      46.218   6.384  11.656  0.00  0.00    +0.000 A 
ATOM     20  C   UNL     1      47.432   6.971  12.025  0.00  0.00    +0.000 A 
ATOM     21  C   UNL     1      48.072   6.594  13.208  0.00  0.00    +0.000 A 
ATOM     22  C   UNL     1      47.504   5.611  14.011  0.00  0.00    +0.000 A 
ATOM     23  C   UNL     1      46.281   5.035  13.647  0.00  0.00    +0.000 A 
BRANCH  22  24
ATOM     24  O   UNL     1      48.019   5.168  15.204  0.00  0.00    +0.000 OA
BRANCH  24  25
ATOM     25  C   UNL     1      47.276   4.214  15.992  0.00  0.00    +0.000 C 
ATOM     26  C   UNL     1      47.216   4.446  17.523  0.00  0.00    +0.000 C 
ATOM     27  C   UNL     1      47.474   2.944  17.719  0.00  0.00    +0.000 C 
ATOM     28  C   UNL     1      48.065   2.914  16.303  0.00  0.00    +0.000 C 
ENDBRANCH  24  25
ENDBRANCH  22  24
ENDBRANCH  16  18
ENDBRANCH  15  16
ENDBRANCH   1  15
TORSDOF 7
ENDMDL
MODEL 3
REMARK VINA RESULT:    -7.621      1.682      3.418
REMARK INTER + INTRA:         -11.731
REMARK INTER:                 -10.840
REMARK INTRA:                  -0.891
REMARK UNBOUND:                -0.992
REMARK  Name = 
REMARK  9 active torsions:
REMARK  status: ('A' for Active; 'I' for Inactive)
REMARK    1  A    between atoms: C_1  and  C_2
REMARK    2  A    between atoms: C_4  and  N_5
REMARK    3  A    between atoms: N_5  and  C_6
REMARK    4  A    between atoms: C_6  and  C_7
REMARK    5  A    between atoms: C_7  and  C_8
REMARK    6  A    between atoms: C_7  and  C_9
REMARK    7  A    between atoms: C_13  and  O_14
REMARK    8  A    between atoms: O_14  and  C_15
REMARK    9  A    between atoms: C_22  and  C_23
REMARK                            x       y       z     vdW  Elec       q    Type
REMARK                         _______ _______ _______ _____ _____    ______ ____
ROOT
ATOM      1  N   UNL     1      44.005   3.308  10.253  0.00  0.00    +0.000 N 
ATOM      2  H   UNL     1      44.022   2.517  10.891  0.00  0.00    +0.000 HD
ENDROOT
BRANCH   1   6
ATOM      3  C   UNL     1      46.758   0.160   7.612  0.00  0.00    +0.000 C 
ATOM      4  C   UNL     1      46.263   1.555   7.873  0.00  0.00    +0.000 A 
ATOM      5  C   UNL     1      45.350   1.759   8.924  0.00  0.00    +0.000 A 
ATOM      6  C   UNL     1      44.851   3.031   9.197  0.00  0.00    +0.000 A 
ATOM      7  N   UNL     1      45.232   4.097   8.470  0.00  0.00    +0.000 NA
ATOM      8  C   UNL     1      46.129   3.897   7.469  0.00  0.00    +0.000 A 
ATOM      9  C   UNL     1      46.687   2.666   7.137  0.00  0.00    +0.000 A 
BRANCH   9  10
ATOM     10  C   UNL     1      47.673   2.566   6.029  0.00  0.00    +0.000 C 
ATOM     11  N   UNL     1      49.000   2.502   6.363  0.00  0.00    +0.000 N 
ATOM     12  O   UNL     1      47.339   2.513   4.854  0.00  0.00    +0.000 OA
ATOM     13  H   UNL     1      49.335   2.317   7.297  0.00  0.00    +0.000 HD
ATOM     14  H   UNL     1      49.641   2.332   5.597  0.00  0.00    +0.000 HD
ENDBRANCH   9  10
ENDBRANCH   1   6
BRANCH   1  15
ATOM     15  C   UNL     1      43.955   4.638  10.843  0.00  0.00    +0.000 C 
BRANCH  15  16
ATOM     16  C   UNL     1      43.991   4.591  12.390  0.00  0.00    +0.000 C 
ATOM     17  C   UNL     1      42.757   5.272  13.003  0.00  0.00    +0.000 C 
BRANCH  16  18
ATOM     18  C   UNL     1      45.314   5.188  12.863  0.00  0.00    +0.000 A 
ATOM     19  C   UNL     1      45.988   4.602  13.946  0.00  0.00    +0.000 A 
ATOM     20  C   UNL     1      47.262   5.043  14.317  0.00  0.00    +0.000 A 
ATOM     21  C   UNL     1      47.882   6.086  13.623  0.00  0.00    +0.000 A 
ATOM     22  C   UNL     1      47.215   6.699  12.569  0.00  0.00    +0.000 A 
ATOM     23  C   UNL     1      45.946   6.246  12.190  0.00  0.00    +0.000 A 
BRANCH  22  24
ATOM     24  O   UNL     1      47.720   7.715  11.796  0.00  0.00    +0.000 OA
BRANCH  24  25
ATOM     25  C   UNL     1      48.994   8.303  12.135  0.00  0.00    +0.000 C 
ATOM     26  C   UNL     1      49.340   9.672  11.496  0.00  0.00    +0.000 C 
ATOM     27  C   UNL     1      50.755   9.139  11.221  0.00  0.00    +0.000 C 
ATOM     28  C   UNL     1      50.184   7.718  11.328  0.00  0.00    +0.000 C 
ENDBRANCH  24  25
ENDBRANCH  22  24
ENDBRANCH  16  18
ENDBRANCH  15  16
ENDBRANCH   1  15
TORSDOF 7
ENDMDL
MODEL 4
REMARK VINA RESULT:    -7.442      2.744      4.862
REMARK INTER + INTRA:         -11.479
REMARK INTER:                 -10.796
REMARK INTRA:                  -0.683
REMARK UNBOUND:                -0.992
REMARK  Name = 
REMARK  9 active torsions:
REMARK  status: ('A' for Active; 'I' for Inactive)
REMARK    1  A    between atoms: C_1  and  C_2
REMARK    2  A    between atoms: C_4  and  N_5
REMARK    3  A    between atoms: N_5  and  C_6
REMARK    4  A    between atoms: C_6  and  C_7
REMARK    5  A    between atoms: C_7  and  C_8
REMARK    6  A    between atoms: C_7  and  C_9
REMARK    7  A    between atoms: C_13  and  O_14
REMARK    8  A    between atoms: O_14  and  C_15
REMARK    9  A    between atoms: C_22  and  C_23
REMARK                            x       y       z     vdW  Elec       q    Type
REMARK                         _______ _______ _______ _____ _____    ______ ____
ROOT
ATOM      1  N   UNL     1      43.942   3.875  10.270  0.00  0.00    +0.000 N 
ATOM      2  H   UNL     1      43.683   3.073  10.837  0.00  0.00    +0.000 HD
ENDROOT
BRANCH   1   6
ATOM      3  C   UNL     1      46.402   0.280   7.926  0.00  0.00    +0.000 C 
ATOM      4  C   UNL     1      46.067   1.736   8.091  0.00  0.00    +0.000 A 
ATOM      5  C   UNL     1      45.144   2.105   9.086  0.00  0.00    +0.000 A 
ATOM      6  C   UNL     1      44.791   3.441   9.270  0.00  0.00    +0.000 A 
ATOM      7  N   UNL     1      45.324   4.411   8.506  0.00  0.00    +0.000 NA
ATOM      8  C   UNL     1      46.229   4.050   7.558  0.00  0.00    +0.000 A 
ATOM      9  C   UNL     1      46.650   2.746   7.317  0.00  0.00    +0.000 A 
BRANCH   9  10
ATOM     10  C   UNL     1      47.659   2.468   6.263  0.00  0.00    +0.000 C 
ATOM     11  N   UNL     1      47.448   3.010   5.022  0.00  0.00    +0.000 N 
ATOM     12  O   UNL     1      48.666   1.806   6.474  0.00  0.00    +0.000 OA
ATOM     13  H   UNL     1      46.774   3.737   4.835  0.00  0.00    +0.000 HD
ATOM     14  H   UNL     1      48.201   2.890   4.354  0.00  0.00    +0.000 HD
ENDBRANCH   9  10
ENDBRANCH   1   6
BRANCH   1  15
ATOM     15  C   UNL     1      44.186   5.131  10.964  0.00  0.00    +0.000 C 
BRANCH  15  16
ATOM     16  C   UNL     1      45.532   5.124  11.728  0.00  0.00    +0.000 C 
ATOM     17  C   UNL     1      45.526   4.098  12.871  0.00  0.00    +0.000 C 
BRANCH  16  18
ATOM     18  C   UNL     1      45.836   6.548  12.188  0.00  0.00    +0.000 A 
ATOM     19  C   UNL     1      47.058   6.822  12.821  0.00  0.00    +0.000 A 
ATOM     20  C   UNL     1      47.420   8.136  13.134  0.00  0.00    +0.000 A 
ATOM     21  C   UNL     1      46.565   9.199  12.833  0.00  0.00    +0.000 A 
ATOM     22  C   UNL     1      45.336   8.941  12.236  0.00  0.00    +0.000 A 
ATOM     23  C   UNL     1      44.982   7.627  11.910  0.00  0.00    +0.000 A 
BRANCH  22  24
ATOM     24  O   UNL     1      44.418   9.894  11.870  0.00  0.00    +0.000 OA
BRANCH  24  25
ATOM     25  C   UNL     1      43.721   9.768  10.613  0.00  0.00    +0.000 C 
ATOM     26  C   UNL     1      44.016  10.830   9.524  0.00  0.00    +0.000 C 
ATOM     27  C   UNL     1      42.506  10.903   9.244  0.00  0.00    +0.000 C 
ATOM     28  C   UNL     1      42.272  10.326  10.647  0.00  0.00    +0.000 C 
ENDBRANCH  24  25
ENDBRANCH  22  24
ENDBRANCH  16  18
ENDBRANCH  15  16
ENDBRANCH   1  15
TORSDOF 7
ENDMDL
MODEL 5
REMARK VINA RESULT:    -7.395      3.378      8.489
REMARK INTER + INTRA:         -11.412
REMARK INTER:                 -10.596
REMARK INTRA:                  -0.817
REMARK UNBOUND:                -0.992
REMARK  Name = 
REMARK  9 active torsions:
REMARK  status: ('A' for Active; 'I' for Inactive)
REMARK    1  A    between atoms: C_1  and  C_2
REMARK    2  A    between atoms: C_4  and  N_5
REMARK    3  A    between atoms: N_5  and  C_6
REMARK    4  A    between atoms: C_6  and  C_7
REMARK    5  A    between atoms: C_7  and  C_8
REMARK    6  A    between atoms: C_7  and  C_9
REMARK    7  A    between atoms: C_13  and  O_14
REMARK    8  A    between atoms: O_14  and  C_15
REMARK    9  A    between atoms: C_22  and  C_23
REMARK                            x       y       z     vdW  Elec       q    Type
REMARK                         _______ _______ _______ _____ _____    ______ ____
ROOT
ATOM      1  N   UNL     1      47.374   6.394  13.779  0.00  0.00    +0.000 N 
ATOM      2  H   UNL     1      48.124   6.491  13.100  0.00  0.00    +0.000 HD
ENDROOT
BRANCH   1   6
ATOM      3  C   UNL     1      47.190   3.000  17.372  0.00  0.00    +0.000 C 
ATOM      4  C   UNL     1      47.849   4.193  16.741  0.00  0.00    +0.000 A 
ATOM      5  C   UNL     1      47.310   4.707  15.547  0.00  0.00    +0.000 A 
ATOM      6  C   UNL     1      47.893   5.804  14.915  0.00  0.00    +0.000 A 
ATOM      7  N   UNL     1      48.981   6.403  15.430  0.00  0.00    +0.000 NA
ATOM      8  C   UNL     1      49.487   5.915  16.593  0.00  0.00    +0.000 A 
ATOM      9  C   UNL     1      48.961   4.836  17.297  0.00  0.00    +0.000 A 
BRANCH   9  10
ATOM     10  C   UNL     1      49.588   4.395  18.570  0.00  0.00    +0.000 C 
ATOM     11  N   UNL     1      50.608   3.484  18.495  0.00  0.00    +0.000 N 
ATOM     12  O   UNL     1      49.245   4.835  19.659  0.00  0.00    +0.000 OA
ATOM     13  H   UNL     1      51.089   3.249  17.639  0.00  0.00    +0.000 HD
ATOM     14  H   UNL     1      51.083   3.280  19.366  0.00  0.00    +0.000 HD
ENDBRANCH   9  10
ENDBRANCH   1   6
BRANCH   1  15
ATOM     15  C   UNL     1      46.062   6.016  13.274  0.00  0.00    +0.000 C 
BRANCH  15  16
ATOM     16  C   UNL     1      45.862   6.438  11.798  0.00  0.00    +0.000 C 
ATOM     17  C   UNL     1      44.943   7.663  11.680  0.00  0.00    +0.000 C 
BRANCH  16  18
ATOM     18  C   UNL     1      45.368   5.227  11.010  0.00  0.00    +0.000 A 
ATOM     19  C   UNL     1      44.547   4.280  11.642  0.00  0.00    +0.000 A 
ATOM     20  C   UNL     1      43.972   3.234  10.913  0.00  0.00    +0.000 A 
ATOM     21  C   UNL     1      44.217   3.105   9.544  0.00  0.00    +0.000 A 
ATOM     22  C   UNL     1      45.055   4.014   8.909  0.00  0.00    +0.000 A 
ATOM     23  C   UNL     1      45.618   5.070   9.637  0.00  0.00    +0.000 A 
BRANCH  22  24
ATOM     24  O   UNL     1      45.358   4.011   7.570  0.00  0.00    +0.000 OA
BRANCH  24  25
ATOM     25  C   UNL     1      46.659   3.564   7.134  0.00  0.00    +0.000 C 
ATOM     26  C   UNL     1      46.816   3.172   5.643  0.00  0.00    +0.000 C 
ATOM     27  C   UNL     1      47.617   1.940   6.094  0.00  0.00    +0.000 C 
ATOM     28  C   UNL     1      46.952   2.077   7.471  0.00  0.00    +0.000 C 
ENDBRANCH  24  25
ENDBRANCH  22  24
ENDBRANCH  16  18
ENDBRANCH  15  16
ENDBRANCH   1  15
TORSDOF 7
ENDMDL
MODEL 6
REMARK VINA RESULT:    -7.146      2.410      4.146
REMARK INTER + INTRA:         -11.062
REMARK INTER:                 -10.715
REMARK INTRA:                  -0.347
REMARK UNBOUND:                -0.992
REMARK  Name = 
REMARK  9 active torsions:
REMARK  status: ('A' for Active; 'I' for Inactive)
REMARK    1  A    between atoms: C_1  and  C_2
REMARK    2  A    between atoms: C_4  and  N_5
REMARK    3  A    between atoms: N_5  and  C_6
REMARK    4  A    between atoms: C_6  and  C_7
REMARK    5  A    between atoms: C_7  and  C_8
REMARK    6  A    between atoms: C_7  and  C_9
REMARK    7  A    between atoms: C_13  and  O_14
REMARK    8  A    between atoms: O_14  and  C_15
REMARK    9  A    between atoms: C_22  and  C_23
REMARK                            x       y       z     vdW  Elec       q    Type
REMARK                         _______ _______ _______ _____ _____    ______ ____
ROOT
ATOM      1  N   UNL     1      43.712   4.775   9.893  0.00  0.00    +0.000 N 
ATOM      2  H   UNL     1      42.767   4.541   9.601  0.00  0.00    +0.000 HD
ENDROOT
BRANCH   1   6
ATOM      3  C   UNL     1      47.178   3.854   6.486  0.00  0.00    +0.000 C 
ATOM      4  C   UNL     1      46.263   3.373   7.577  0.00  0.00    +0.000 A 
ATOM      5  C   UNL     1      45.443   4.311   8.230  0.00  0.00    +0.000 A 
ATOM      6  C   UNL     1      44.587   3.916   9.257  0.00  0.00    +0.000 A 
ATOM      7  N   UNL     1      44.518   2.631   9.648  0.00  0.00    +0.000 NA
ATOM      8  C   UNL     1      45.299   1.726   9.000  0.00  0.00    +0.000 A 
ATOM      9  C   UNL     1      46.169   2.030   7.958  0.00  0.00    +0.000 A 
BRANCH   9  10
ATOM     10  C   UNL     1      46.965   0.954   7.310  0.00  0.00    +0.000 C 
ATOM     11  N   UNL     1      46.688  -0.340   7.662  0.00  0.00    +0.000 N 
ATOM     12  O   UNL     1      47.823   1.187   6.471  0.00  0.00    +0.000 OA
ATOM     13  H   UNL     1      45.861  -0.620   8.167  0.00  0.00    +0.000 HD
ATOM     14  H   UNL     1      47.173  -1.055   7.132  0.00  0.00    +0.000 HD
ENDBRANCH   9  10
ENDBRANCH   1   6
BRANCH   1  15
ATOM     15  C   UNL     1      43.906   5.143  11.288  0.00  0.00    +0.000 C 
BRANCH  15  16
ATOM     16  C   UNL     1      45.399   5.128  11.693  0.00  0.00    +0.000 C 
ATOM     17  C   UNL     1      45.640   4.248  12.928  0.00  0.00    +0.000 C 
BRANCH  16  18
ATOM     18  C   UNL     1      45.868   6.570  11.871  0.00  0.00    +0.000 A 
ATOM     19  C   UNL     1      44.925   7.610  11.862  0.00  0.00    +0.000 A 
ATOM     20  C   UNL     1      45.307   8.923  12.154  0.00  0.00    +0.000 A 
ATOM     21  C   UNL     1      46.639   9.226  12.446  0.00  0.00    +0.000 A 
ATOM     22  C   UNL     1      47.592   8.214  12.426  0.00  0.00    +0.000 A 
ATOM     23  C   UNL     1      47.205   6.898  12.148  0.00  0.00    +0.000 A 
BRANCH  22  24
ATOM     24  O   UNL     1      48.924   8.376  12.715  0.00  0.00    +0.000 OA
BRANCH  24  25
ATOM     25  C   UNL     1      49.874   8.534  11.639  0.00  0.00    +0.000 C 
ATOM     26  C   UNL     1      51.379   8.480  12.003  0.00  0.00    +0.000 C 
ATOM     27  C   UNL     1      51.603   9.689  11.080  0.00  0.00    +0.000 C 
ATOM     28  C   UNL     1      50.110  10.013  11.229  0.00  0.00    +0.000 C 
ENDBRANCH  24  25
ENDBRANCH  22  24
ENDBRANCH  16  18
ENDBRANCH  15  16
ENDBRANCH   1  15
TORSDOF 7
ENDMDL
MODEL 7
REMARK VINA RESULT:    -6.842      2.255      3.003
REMARK INTER + INTRA:         -10.633
REMARK INTER:                 -10.016
REMARK INTRA:                  -0.617
REMARK UNBOUND:                -0.992
REMARK  Name = 
REMARK  9 active torsions:
REMARK  status: ('A' for Active; 'I' for Inactive)
REMARK    1  A    between atoms: C_1  and  C_2
REMARK    2  A    between atoms: C_4  and  N_5
REMARK    3  A    between atoms: N_5  and  C_6
REMARK    4  A    between atoms: C_6  and  C_7
REMARK    5  A    between atoms: C_7  and  C_8
REMARK    6  A    between atoms: C_7  and  C_9
REMARK    7  A    between atoms: C_13  and  O_14
REMARK    8  A    between atoms: O_14  and  C_15
REMARK    9  A    between atoms: C_22  and  C_23
REMARK                            x       y       z     vdW  Elec       q    Type
REMARK                         _______ _______ _______ _____ _____    ______ ____
ROOT
ATOM      1  N   UNL     1      43.674   4.048   9.778  0.00  0.00    +0.000 N 
ATOM      2  H   UNL     1      42.768   3.723   9.453  0.00  0.00    +0.000 HD
ENDROOT
BRANCH   1   6
ATOM      3  C   UNL     1      46.353   0.306   7.965  0.00  0.00    +0.000 C 
ATOM      4  C   UNL     1      46.032   1.773   8.015  0.00  0.00    +0.000 A 
ATOM      5  C   UNL     1      44.989   2.205   8.855  0.00  0.00    +0.000 A 
ATOM      6  C   UNL     1      44.643   3.553   8.927  0.00  0.00    +0.000 A 
ATOM      7  N   UNL     1      45.298   4.477   8.201  0.00  0.00    +0.000 NA
ATOM      8  C   UNL     1      46.317   4.057   7.406  0.00  0.00    +0.000 A 
ATOM      9  C   UNL     1      46.738   2.736   7.285  0.00  0.00    +0.000 A 
BRANCH   9  10
ATOM     10  C   UNL     1      47.877   2.392   6.395  0.00  0.00    +0.000 C 
ATOM     11  N   UNL     1      47.861   2.893   5.120  0.00  0.00    +0.000 N 
ATOM     12  O   UNL     1      48.821   1.710   6.769  0.00  0.00    +0.000 OA
ATOM     13  H   UNL     1      47.244   3.630   4.815  0.00  0.00    +0.000 HD
ATOM     14  H   UNL     1      48.696   2.727   4.570  0.00  0.00    +0.000 HD
ENDBRANCH   9  10
ENDBRANCH   1   6
BRANCH   1  15
ATOM     15  C   UNL     1      43.892   4.083  11.218  0.00  0.00    +0.000 C 
BRANCH  15  16
ATOM     16  C   UNL     1      45.386   4.268  11.577  0.00  0.00    +0.000 C 
ATOM     17  C   UNL     1      45.769   3.462  12.828  0.00  0.00    +0.000 C 
BRANCH  16  18
ATOM     18  C   UNL     1      45.674   5.762  11.702  0.00  0.00    +0.000 A 
ATOM     19  C   UNL     1      44.608   6.675  11.673  0.00  0.00    +0.000 A 
ATOM     20  C   UNL     1      44.826   8.035  11.917  0.00  0.00    +0.000 A 
ATOM     21  C   UNL     1      46.113   8.511  12.181  0.00  0.00    +0.000 A 
ATOM     22  C   UNL     1      47.185   7.625  12.180  0.00  0.00    +0.000 A 
ATOM     23  C   UNL     1      46.962   6.262  11.951  0.00  0.00    +0.000 A 
BRANCH  22  24
ATOM     24  O   UNL     1      48.489   7.960  12.446  0.00  0.00    +0.000 OA
BRANCH  24  25
ATOM     25  C   UNL     1      48.825   8.581  13.705  0.00  0.00    +0.000 C 
ATOM     26  C   UNL     1      50.069   9.505  13.736  0.00  0.00    +0.000 C 
ATOM     27  C   UNL     1      50.476   8.843  15.062  0.00  0.00    +0.000 C 
ATOM     28  C   UNL     1      49.598   7.645  14.674  0.00  0.00    +0.000 C 
ENDBRANCH  24  25
ENDBRANCH  22  24
ENDBRANCH  16  18
ENDBRANCH  15  16
ENDBRANCH   1  15
TORSDOF 7
ENDMDL
MODEL 8
REMARK VINA RESULT:    -6.681      3.725      8.879
REMARK INTER + INTRA:         -10.407
REMARK INTER:                  -9.682
REMARK INTRA:                  -0.725
REMARK UNBOUND:                -0.992
REMARK  Name = 
REMARK  9 active torsions:
REMARK  status: ('A' for Active; 'I' for Inactive)
REMARK    1  A    between atoms: C_1  and  C_2
REMARK    2  A    between atoms: C_4  and  N_5
REMARK    3  A    between atoms: N_5  and  C_6
REMARK    4  A    between atoms: C_6  and  C_7
REMARK    5  A    between atoms: C_7  and  C_8
REMARK    6  A    between atoms: C_7  and  C_9
REMARK    7  A    between atoms: C_13  and  O_14
REMARK    8  A    between atoms: O_14  and  C_15
REMARK    9  A    between atoms: C_22  and  C_23
REMARK                            x       y       z     vdW  Elec       q    Type
REMARK                         _______ _______ _______ _____ _____    ______ ____
ROOT
ATOM      1  N   UNL     1      48.072   6.814  14.380  0.00  0.00    +0.000 N 
ATOM      2  H   UNL     1      48.766   7.504  14.109  0.00  0.00    +0.000 HD
ENDROOT
BRANCH   1   6
ATOM      3  C   UNL     1      49.642   7.562  19.011  0.00  0.00    +0.000 C 
ATOM      4  C   UNL     1      49.201   6.627  17.920  0.00  0.00    +0.000 A 
ATOM      5  C   UNL     1      48.823   7.172  16.679  0.00  0.00    +0.000 A 
ATOM      6  C   UNL     1      48.394   6.347  15.640  0.00  0.00    +0.000 A 
ATOM      7  N   UNL     1      48.335   5.012  15.792  0.00  0.00    +0.000 NA
ATOM      8  C   UNL     1      48.719   4.490  16.987  0.00  0.00    +0.000 A 
ATOM      9  C   UNL     1      49.173   5.236  18.070  0.00  0.00    +0.000 A 
BRANCH   9  10
ATOM     10  C   UNL     1      49.584   4.557  19.327  0.00  0.00    +0.000 C 
ATOM     11  N   UNL     1      48.614   3.908  20.045  0.00  0.00    +0.000 N 
ATOM     12  O   UNL     1      50.743   4.538  19.716  0.00  0.00    +0.000 OA
ATOM     13  H   UNL     1      47.697   3.692  19.682  0.00  0.00    +0.000 HD
ATOM     14  H   UNL     1      48.939   3.369  20.840  0.00  0.00    +0.000 HD
ENDBRANCH   9  10
ENDBRANCH   1   6
BRANCH   1  15
ATOM     15  C   UNL     1      47.596   5.906  13.346  0.00  0.00    +0.000 C 
BRANCH  15  16
ATOM     16  C   UNL     1      46.623   6.601  12.363  0.00  0.00    +0.000 C 
ATOM     17  C   UNL     1      46.001   7.862  12.982  0.00  0.00    +0.000 C 
BRANCH  16  18
ATOM     18  C   UNL     1      45.590   5.577  11.898  0.00  0.00    +0.000 A 
ATOM     19  C   UNL     1      44.765   4.949  12.844  0.00  0.00    +0.000 A 
ATOM     20  C   UNL     1      43.725   4.108  12.437  0.00  0.00    +0.000 A 
ATOM     21  C   UNL     1      43.496   3.868  11.080  0.00  0.00    +0.000 A 
ATOM     22  C   UNL     1      44.324   4.456  10.131  0.00  0.00    +0.000 A 
ATOM     23  C   UNL     1      45.356   5.309  10.539  0.00  0.00    +0.000 A 
BRANCH  22  24
ATOM     24  O   UNL     1      44.193   4.319   8.771  0.00  0.00    +0.000 OA
BRANCH  24  25
ATOM     25  C   UNL     1      44.665   3.117   8.126  0.00  0.00    +0.000 C 
ATOM     26  C   UNL     1      45.454   2.104   8.994  0.00  0.00    +0.000 C 
ATOM     27  C   UNL     1      46.456   1.957   7.838  0.00  0.00    +0.000 C 
ATOM     28  C   UNL     1      45.975   3.319   7.317  0.00  0.00    +0.000 C 
ENDBRANCH  24  25
ENDBRANCH  22  24
ENDBRANCH  16  18
ENDBRANCH  15  16
ENDBRANCH   1  15
TORSDOF 7
ENDMDL
MODEL 9
REMARK VINA RESULT:    -6.557      3.426      6.162
REMARK INTER + INTRA:         -10.232
REMARK INTER:                  -8.668
REMARK INTRA:                  -1.564
REMARK UNBOUND:                -0.992
REMARK  Name = 
REMARK  9 active torsions:
REMARK  status: ('A' for Active; 'I' for Inactive)
REMARK    1  A    between atoms: C_1  and  C_2
REMARK    2  A    between atoms: C_4  and  N_5
REMARK    3  A    between atoms: N_5  and  C_6
REMARK    4  A    between atoms: C_6  and  C_7
REMARK    5  A    between atoms: C_7  and  C_8
REMARK    6  A    between atoms: C_7  and  C_9
REMARK    7  A    between atoms: C_13  and  O_14
REMARK    8  A    between atoms: O_14  and  C_15
REMARK    9  A    between atoms: C_22  and  C_23
REMARK                            x       y       z     vdW  Elec       q    Type
REMARK                         _______ _______ _______ _____ _____    ______ ____
ROOT
ATOM      1  N   UNL     1      47.338   3.462  14.872  0.00  0.00    +0.000 N 
ATOM      2  H   UNL     1      48.265   3.271  14.500  0.00  0.00    +0.000 HD
ENDROOT
BRANCH   1   6
ATOM      3  C   UNL     1      45.208   7.189  12.416  0.00  0.00    +0.000 C 
ATOM      4  C   UNL     1      45.431   5.715  12.609  0.00  0.00    +0.000 A 
ATOM      5  C   UNL     1      46.299   5.295  13.633  0.00  0.00    +0.000 A 
ATOM      6  C   UNL     1      46.549   3.940  13.844  0.00  0.00    +0.000 A 
ATOM      7  N   UNL     1      45.967   3.000  13.079  0.00  0.00    +0.000 NA
ATOM      8  C   UNL     1      45.115   3.411  12.103  0.00  0.00    +0.000 A 
ATOM      9  C   UNL     1      44.797   4.738  11.833  0.00  0.00    +0.000 A 
BRANCH   9  10
ATOM     10  C   UNL     1      43.838   5.073  10.749  0.00  0.00    +0.000 C 
ATOM     11  N   UNL     1      44.269   4.940   9.455  0.00  0.00    +0.000 N 
ATOM     12  O   UNL     1      42.689   5.429  10.973  0.00  0.00    +0.000 OA
ATOM     13  H   UNL     1      45.110   4.448   9.192  0.00  0.00    +0.000 HD
ATOM     14  H   UNL     1      43.566   5.076   8.739  0.00  0.00    +0.000 HD
ENDBRANCH   9  10
ENDBRANCH   1   6
BRANCH   1  15
ATOM     15  C   UNL     1      47.262   4.042  16.205  0.00  0.00    +0.000 C 
BRANCH  15  16
ATOM     16  C   UNL     1      48.558   3.808  17.018  0.00  0.00    +0.000 C 
ATOM     17  C   UNL     1      48.251   3.483  18.488  0.00  0.00    +0.000 C 
BRANCH  16  18
ATOM     18  C   UNL     1      49.469   5.020  16.838  0.00  0.00    +0.000 A 
ATOM     19  C   UNL     1      50.779   4.980  17.339  0.00  0.00    +0.000 A 
ATOM     20  C   UNL     1      51.677   6.019  17.076  0.00  0.00    +0.000 A 
ATOM     21  C   UNL     1      51.279   7.125  16.319  0.00  0.00    +0.000 A 
ATOM     22  C   UNL     1      49.975   7.197  15.844  0.00  0.00    +0.000 A 
ATOM     23  C   UNL     1      49.082   6.148  16.096  0.00  0.00    +0.000 A 
BRANCH  22  24
ATOM     24  O   UNL     1      49.467   8.214  15.075  0.00  0.00    +0.000 OA
BRANCH  24  25
ATOM     25  C   UNL     1      48.707   7.901  13.889  0.00  0.00    +0.000 C 
ATOM     26  C   UNL     1      49.486   7.362  12.663  0.00  0.00    +0.000 C 
ATOM     27  C   UNL     1      48.653   8.298  11.773  0.00  0.00    +0.000 C 
ATOM     28  C   UNL     1      48.365   9.143  13.022  0.00  0.00    +0.000 C 
ENDBRANCH  24  25
ENDBRANCH  22  24
ENDBRANCH  16  18
ENDBRANCH  15  16
ENDBRANCH   1  15
TORSDOF 7
ENDMDL
