MODEL 1
REMARK VINA RESULT:    -8.223      0.000      0.000
REMARK INTER + INTRA:         -12.449
REMARK INTER:                 -11.348
REMARK INTRA:                  -1.101
REMARK UNBOUND:                -1.101
REMARK  Name = 
REMARK  8 active torsions:
REMARK  status: ('A' for Active; 'I' for Inactive)
REMARK    1  A    between atoms: C_1  and  C_2
REMARK    2  A    between atoms: C_2  and  C_3
REMARK    3  A    between atoms: C_7  and  C_8
REMARK    4  A    between atoms: C_8  and  C_9
REMARK    5  A    between atoms: C_9  and  N_10
REMARK    6  A    between atoms: N_10  and  C_11
REMARK    7  A    between atoms: C_14  and  C_15
REMARK    8  A    between atoms: C_23  and  O_24
REMARK                            x       y       z     vdW  Elec       q    Type
REMARK                         _______ _______ _______ _____ _____    ______ ____
ROOT
ATOM      1  C   UNL     1      46.854   6.655  12.952  0.00  0.00    +0.000 A 
ATOM      2  C   UNL     1      47.500   5.549  13.524  0.00  0.00    +0.000 A 
ATOM      3  C   UNL     1      46.829   4.334  13.705  0.00  0.00    +0.000 A 
ATOM      4  C   UNL     1      45.491   4.198  13.331  0.00  0.00    +0.000 A 
ATOM      5  C   UNL     1      44.813   5.273  12.752  0.00  0.00    +0.000 A 
ATOM      6  C   UNL     1      45.523   6.471  12.550  0.00  0.00    +0.000 A 
ENDROOT
BRANCH   1   8
ATOM      7  C   UNL     1      46.419   9.065  12.552  0.00  0.00    +0.000 C 
ATOM      8  C   UNL     1      47.539   8.040  12.861  0.00  0.00    +0.000 C 
ATOM      9  C   UNL     1      48.240   8.376  14.203  0.00  0.00    +0.000 C 
ATOM     10  C   UNL     1      49.052   9.677  14.173  0.00  0.00    +0.000 C 
ATOM     11  C   UNL     1      50.058   9.733  13.026  0.00  0.00    +0.000 C 
ATOM     12  C   UNL     1      49.406   9.422  11.684  0.00  0.00    +0.000 C 
ATOM     13  C   UNL     1      48.607   8.120  11.722  0.00  0.00    +0.000 C 
BRANCH  11  14
ATOM     14  O   UNL     1      51.134   8.830  13.266  0.00  0.00    +0.000 OA
ATOM     15  H   UNL     1      50.880   7.944  12.960  0.00  0.00    +0.000 HD
ENDBRANCH  11  14
ENDBRANCH   1   8
BRANCH   5  16
ATOM     16  C   UNL     1      43.333   5.146  12.411  0.00  0.00    +0.000 C 
BRANCH  16  17
ATOM     17  C   UNL     1      43.077   4.352  11.122  0.00  0.00    +0.000 C 
BRANCH  17  18
ATOM     18  N   UNL     1      43.735   4.903   9.937  0.00  0.00    +0.000 N 
ATOM     19  H   UNL     1      44.254   5.755  10.147  0.00  0.00    +0.000 HD
BRANCH  18  20
ATOM     20  C   UNL     1      44.533   3.979   9.224  0.00  0.00    +0.000 A 
ATOM     21  C   UNL     1      45.485   4.366   8.270  0.00  0.00    +0.000 A 
ATOM     22  C   UNL     1      46.310   3.424   7.658  0.00  0.00    +0.000 A 
ATOM     23  C   UNL     1      46.188   2.101   8.041  0.00  0.00    +0.000 A 
ATOM     24  N   UNL     1      45.301   1.663   8.980  0.00  0.00    +0.000 NA
ATOM     25  C   UNL     1      44.520   2.619   9.550  0.00  0.00    +0.000 A 
BRANCH  23  26
ATOM     26  C   UNL     1      47.095   1.076   7.434  0.00  0.00    +0.000 C 
ATOM     27  N   UNL     1      46.755  -0.224   7.677  0.00  0.00    +0.000 N 
ATOM     28  O   UNL     1      48.082   1.375   6.771  0.00  0.00    +0.000 OA
ATOM     29  H   UNL     1      45.953  -0.425   8.265  0.00  0.00    +0.000 HD
ATOM     30  H   UNL     1      47.351  -0.967   7.343  0.00  0.00    +0.000 HD
ENDBRANCH  23  26
ENDBRANCH  18  20
ENDBRANCH  17  18
ENDBRANCH  16  17
ENDBRANCH   5  16
TORSDOF 7
ENDMDL
MODEL 2
REMARK VINA RESULT:    -7.919      1.430      1.997
REMARK INTER + INTRA:         -12.028
REMARK INTER:                 -10.925
REMARK INTRA:                  -1.104
REMARK UNBOUND:                -1.101
REMARK  Name = 
REMARK  8 active torsions:
REMARK  status: ('A' for Active; 'I' for Inactive)
REMARK    1  A    between atoms: C_1  and  C_2
REMARK    2  A    between atoms: C_2  and  C_3
REMARK    3  A    between atoms: C_7  and  C_8
REMARK    4  A    between atoms: C_8  and  C_9
REMARK    5  A    between atoms: C_9  and  N_10
REMARK    6  A    between atoms: N_10  and  C_11
REMARK    7  A    between atoms: C_14  and  C_15
REMARK    8  A    between atoms: C_23  and  O_24
REMARK                            x       y       z     vdW  Elec       q    Type
REMARK                         _______ _______ _______ _____ _____    ______ ____
ROOT
ATOM      1  C   UNL     1      47.230   6.577  13.126  0.00  0.00    +0.000 A 
ATOM      2  C   UNL     1      47.566   5.398  13.808  0.00  0.00    +0.000 A 
ATOM      3  C   UNL     1      46.664   4.331  13.893  0.00  0.00    +0.000 A 
ATOM      4  C   UNL     1      45.400   4.420  13.310  0.00  0.00    +0.000 A 
ATOM      5  C   UNL     1      45.028   5.574  12.616  0.00  0.00    +0.000 A 
ATOM      6  C   UNL     1      45.968   6.616  12.516  0.00  0.00    +0.000 A 
ENDROOT
BRANCH   1   8
ATOM      7  C   UNL     1      49.589   7.285  13.426  0.00  0.00    +0.000 C 
ATOM      8  C   UNL     1      48.163   7.812  13.130  0.00  0.00    +0.000 C 
ATOM      9  C   UNL     1      48.111   8.522  11.751  0.00  0.00    +0.000 C 
ATOM     10  C   UNL     1      48.910   9.831  11.694  0.00  0.00    +0.000 C 
ATOM     11  C   UNL     1      48.540  10.811  12.805  0.00  0.00    +0.000 C 
ATOM     12  C   UNL     1      48.592  10.157  14.179  0.00  0.00    +0.000 C 
ATOM     13  C   UNL     1      47.787   8.858  14.229  0.00  0.00    +0.000 C 
BRANCH  11  14
ATOM     14  O   UNL     1      47.244  11.357  12.574  0.00  0.00    +0.000 OA
ATOM     15  H   UNL     1      47.215  12.265  12.915  0.00  0.00    +0.000 HD
ENDBRANCH  11  14
ENDBRANCH   1   8
BRANCH   5  16
ATOM     16  C   UNL     1      43.623   5.699  12.041  0.00  0.00    +0.000 C 
BRANCH  16  17
ATOM     17  C   UNL     1      43.294   4.612  11.008  0.00  0.00    +0.000 C 
BRANCH  17  18
ATOM     18  N   UNL     1      43.725   4.928   9.646  0.00  0.00    +0.000 N 
ATOM     19  H   UNL     1      44.051   5.890   9.560  0.00  0.00    +0.000 HD
BRANCH  18  20
ATOM     20  C   UNL     1      44.659   4.019   9.099  0.00  0.00    +0.000 A 
ATOM     21  C   UNL     1      44.646   2.646   9.381  0.00  0.00    +0.000 A 
ATOM     22  C   UNL     1      45.532   1.775   8.748  0.00  0.00    +0.000 A 
ATOM     23  C   UNL     1      46.403   2.298   7.810  0.00  0.00    +0.000 A 
ATOM     24  N   UNL     1      46.449   3.619   7.472  0.00  0.00    +0.000 NA
ATOM     25  C   UNL     1      45.565   4.427   8.114  0.00  0.00    +0.000 A 
BRANCH  23  26
ATOM     26  C   UNL     1      47.332   1.378   7.081  0.00  0.00    +0.000 C 
ATOM     27  N   UNL     1      48.462   1.961   6.583  0.00  0.00    +0.000 N 
ATOM     28  O   UNL     1      47.098   0.184   6.929  0.00  0.00    +0.000 OA
ATOM     29  H   UNL     1      48.596   2.960   6.697  0.00  0.00    +0.000 HD
ATOM     30  H   UNL     1      49.108   1.412   6.035  0.00  0.00    +0.000 HD
ENDBRANCH  23  26
ENDBRANCH  18  20
ENDBRANCH  17  18
ENDBRANCH  16  17
ENDBRANCH   5  16
TORSDOF 7
ENDMDL
MODEL 3
REMARK VINA RESULT:    -7.565      2.278      3.173
REMARK INTER + INTRA:         -11.540
REMARK INTER:                 -10.578
REMARK INTRA:                  -0.962
REMARK UNBOUND:                -1.101
REMARK  Name = 
REMARK  8 active torsions:
REMARK  status: ('A' for Active; 'I' for Inactive)
REMARK    1  A    between atoms: C_1  and  C_2
REMARK    2  A    between atoms: C_2  and  C_3
REMARK    3  A    between atoms: C_7  and  C_8
REMARK    4  A    between atoms: C_8  and  C_9
REMARK    5  A    between atoms: C_9  and  N_10
REMARK    6  A    between atoms: N_10  and  C_11
REMARK    7  A    between atoms: C_14  and  C_15
REMARK    8  A    between atoms: C_23  and  O_24
REMARK                            x       y       z     vdW  Elec       q    Type
REMARK                         _______ _______ _______ _____ _____    ______ ____
ROOT
ATOM      1  C   UNL     1      48.425   7.107  14.051  0.00  0.00    +0.000 A 
ATOM      2  C   UNL     1      49.085   7.774  13.008  0.00  0.00    +0.000 A 
ATOM      3  C   UNL     1      48.618   7.696  11.691  0.00  0.00    +0.000 A 
ATOM      4  C   UNL     1      47.488   6.939  11.381  0.00  0.00    +0.000 A 
ATOM      5  C   UNL     1      46.798   6.264  12.391  0.00  0.00    +0.000 A 
ATOM      6  C   UNL     1      47.270   6.389  13.710  0.00  0.00    +0.000 A 
ENDROOT
BRANCH   1   8
ATOM      7  C   UNL     1      48.548   8.396  16.167  0.00  0.00    +0.000 C 
ATOM      8  C   UNL     1      48.998   7.078  15.489  0.00  0.00    +0.000 C 
ATOM      9  C   UNL     1      48.449   5.847  16.256  0.00  0.00    +0.000 C 
ATOM     10  C   UNL     1      49.054   5.662  17.653  0.00  0.00    +0.000 C 
ATOM     11  C   UNL     1      50.581   5.642  17.651  0.00  0.00    +0.000 C 
ATOM     12  C   UNL     1      51.162   6.845  16.918  0.00  0.00    +0.000 C 
ATOM     13  C   UNL     1      50.560   7.015  15.524  0.00  0.00    +0.000 C 
BRANCH  11  14
ATOM     14  O   UNL     1      51.060   4.435  17.063  0.00  0.00    +0.000 OA
ATOM     15  H   UNL     1      50.303   3.893  16.789  0.00  0.00    +0.000 HD
ENDBRANCH  11  14
ENDBRANCH   1   8
BRANCH   5  16
ATOM     16  C   UNL     1      45.608   5.379  12.041  0.00  0.00    +0.000 C 
BRANCH  16  17
ATOM     17  C   UNL     1      44.826   5.875  10.817  0.00  0.00    +0.000 C 
BRANCH  17  18
ATOM     18  N   UNL     1      44.008   4.849  10.171  0.00  0.00    +0.000 N 
ATOM     19  H   UNL     1      43.226   5.250   9.653  0.00  0.00    +0.000 HD
BRANCH  18  20
ATOM     20  C   UNL     1      44.734   3.933   9.375  0.00  0.00    +0.000 A 
ATOM     21  C   UNL     1      45.668   4.331   8.409  0.00  0.00    +0.000 A 
ATOM     22  C   UNL     1      46.423   3.391   7.711  0.00  0.00    +0.000 A 
ATOM     23  C   UNL     1      46.250   2.054   8.021  0.00  0.00    +0.000 A 
ATOM     24  N   UNL     1      45.378   1.603   8.967  0.00  0.00    +0.000 NA
ATOM     25  C   UNL     1      44.666   2.558   9.622  0.00  0.00    +0.000 A 
BRANCH  23  26
ATOM     26  C   UNL     1      47.084   1.026   7.320  0.00  0.00    +0.000 C 
ATOM     27  N   UNL     1      46.837  -0.269   7.676  0.00  0.00    +0.000 N 
ATOM     28  O   UNL     1      47.937   1.319   6.489  0.00  0.00    +0.000 OA
ATOM     29  H   UNL     1      46.151  -0.463   8.397  0.00  0.00    +0.000 HD
ATOM     30  H   UNL     1      47.398  -1.011   7.283  0.00  0.00    +0.000 HD
ENDBRANCH  23  26
ENDBRANCH  18  20
ENDBRANCH  17  18
ENDBRANCH  16  17
ENDBRANCH   5  16
TORSDOF 7
ENDMDL
MODEL 4
REMARK VINA RESULT:    -7.431      2.471      3.469
REMARK INTER + INTRA:         -11.356
REMARK INTER:                 -10.387
REMARK INTRA:                  -0.968
REMARK UNBOUND:                -1.101
REMARK  Name = 
REMARK  8 active torsions:
REMARK  status: ('A' for Active; 'I' for Inactive)
REMARK    1  A    between atoms: C_1  and  C_2
REMARK    2  A    between atoms: C_2  and  C_3
REMARK    3  A    between atoms: C_7  and  C_8
REMARK    4  A    between atoms: C_8  and  C_9
REMARK    5  A    between atoms: C_9  and  N_10
REMARK    6  A    between atoms: N_10  and  C_11
REMARK    7  A    between atoms: C_14  and  C_15
REMARK    8  A    between atoms: C_23  and  O_24
REMARK                            x       y       z     vdW  Elec       q    Type
REMARK                         _______ _______ _______ _____ _____    ______ ____
ROOT
ATOM      1  C   UNL     1      48.325   7.197  13.891  0.00  0.00    +0.000 A 
ATOM      2  C   UNL     1      48.900   7.894  12.817  0.00  0.00    +0.000 A 
ATOM      3  C   UNL     1      48.413   7.740  11.513  0.00  0.00    +0.000 A 
ATOM      4  C   UNL     1      47.350   6.876  11.248  0.00  0.00    +0.000 A 
ATOM      5  C   UNL     1      46.746   6.169  12.290  0.00  0.00    +0.000 A 
ATOM      6  C   UNL     1      47.232   6.370  13.594  0.00  0.00    +0.000 A 
ENDROOT
BRANCH   1   8
ATOM      7  C   UNL     1      50.465   7.352  15.137  0.00  0.00    +0.000 C 
ATOM      8  C   UNL     1      48.929   7.257  15.314  0.00  0.00    +0.000 C 
ATOM      9  C   UNL     1      48.383   8.496  16.072  0.00  0.00    +0.000 C 
ATOM     10  C   UNL     1      48.828   8.576  17.538  0.00  0.00    +0.000 C 
ATOM     11  C   UNL     1      48.533   7.303  18.328  0.00  0.00    +0.000 C 
ATOM     12  C   UNL     1      49.067   6.062  17.624  0.00  0.00    +0.000 C 
ATOM     13  C   UNL     1      48.610   5.986  16.167  0.00  0.00    +0.000 C 
BRANCH  11  14
ATOM     14  O   UNL     1      47.132   7.172  18.552  0.00  0.00    +0.000 OA
ATOM     15  H   UNL     1      46.860   6.263  18.345  0.00  0.00    +0.000 HD
ENDBRANCH  11  14
ENDBRANCH   1   8
BRANCH   5  16
ATOM     16  C   UNL     1      45.633   5.172  11.990  0.00  0.00    +0.000 C 
BRANCH  16  17
ATOM     17  C   UNL     1      44.553   5.736  11.056  0.00  0.00    +0.000 C 
BRANCH  17  18
ATOM     18  N   UNL     1      43.979   4.752  10.139  0.00  0.00    +0.000 N 
ATOM     19  H   UNL     1      43.224   5.144   9.577  0.00  0.00    +0.000 HD
BRANCH  18  20
ATOM     20  C   UNL     1      44.924   4.081   9.329  0.00  0.00    +0.000 A 
ATOM     21  C   UNL     1      45.022   2.684   9.264  0.00  0.00    +0.000 A 
ATOM     22  C   UNL     1      45.910   2.067   8.385  0.00  0.00    +0.000 A 
ATOM     23  C   UNL     1      46.669   2.870   7.553  0.00  0.00    +0.000 A 
ATOM     24  N   UNL     1      46.602   4.232   7.548  0.00  0.00    +0.000 NA
ATOM     25  C   UNL     1      45.721   4.787   8.422  0.00  0.00    +0.000 A 
BRANCH  23  26
ATOM     26  C   UNL     1      47.595   2.232   6.565  0.00  0.00    +0.000 C 
ATOM     27  N   UNL     1      47.890   2.988   5.466  0.00  0.00    +0.000 N 
ATOM     28  O   UNL     1      48.055   1.106   6.719  0.00  0.00    +0.000 OA
ATOM     29  H   UNL     1      47.455   3.898   5.359  0.00  0.00    +0.000 HD
ATOM     30  H   UNL     1      48.466   2.600   4.733  0.00  0.00    +0.000 HD
ENDBRANCH  23  26
ENDBRANCH  18  20
ENDBRANCH  17  18
ENDBRANCH  16  17
ENDBRANCH   5  16
TORSDOF 7
ENDMDL
MODEL 5
REMARK VINA RESULT:    -7.359      1.721      2.267
REMARK INTER + INTRA:         -11.256
REMARK INTER:                 -10.486
REMARK INTRA:                  -0.770
REMARK UNBOUND:                -1.101
REMARK  Name = 
REMARK  8 active torsions:
REMARK  status: ('A' for Active; 'I' for Inactive)
REMARK    1  A    between atoms: C_1  and  C_2
REMARK    2  A    between atoms: C_2  and  C_3
REMARK    3  A    between atoms: C_7  and  C_8
REMARK    4  A    between atoms: C_8  and  C_9
REMARK    5  A    between atoms: C_9  and  N_10
REMARK    6  A    between atoms: N_10  and  C_11
REMARK    7  A    between atoms: C_14  and  C_15
REMARK    8  A    between atoms: C_23  and  O_24
REMARK                            x       y       z     vdW  Elec       q    Type
REMARK                         _______ _______ _______ _____ _____    ______ ____
ROOT
ATOM      1  C   UNL     1      48.063   6.539  13.987  0.00  0.00    +0.000 A 
ATOM      2  C   UNL     1      47.714   5.451  14.801  0.00  0.00    +0.000 A 
ATOM      3  C   UNL     1      46.732   4.537  14.402  0.00  0.00    +0.000 A 
ATOM      4  C   UNL     1      46.066   4.694  13.185  0.00  0.00    +0.000 A 
ATOM      5  C   UNL     1      46.389   5.759  12.343  0.00  0.00    +0.000 A 
ATOM      6  C   UNL     1      47.404   6.643  12.754  0.00  0.00    +0.000 A 
ENDROOT
BRANCH   1   8
ATOM      7  C   UNL     1      49.870   8.058  13.223  0.00  0.00    +0.000 C 
ATOM      8  C   UNL     1      49.052   7.628  14.467  0.00  0.00    +0.000 C 
ATOM      9  C   UNL     1      48.273   8.832  15.058  0.00  0.00    +0.000 C 
ATOM     10  C   UNL     1      49.170   9.914  15.673  0.00  0.00    +0.000 C 
ATOM     11  C   UNL     1      50.153   9.367  16.705  0.00  0.00    +0.000 C 
ATOM     12  C   UNL     1      50.951   8.189  16.159  0.00  0.00    +0.000 C 
ATOM     13  C   UNL     1      50.048   7.113  15.556  0.00  0.00    +0.000 C 
BRANCH  11  14
ATOM     14  O   UNL     1      49.463   8.979  17.891  0.00  0.00    +0.000 OA
ATOM     15  H   UNL     1      50.111   8.768  18.582  0.00  0.00    +0.000 HD
ENDBRANCH  11  14
ENDBRANCH   1   8
BRANCH   5  16
ATOM     16  C   UNL     1      45.612   5.971  11.049  0.00  0.00    +0.000 C 
BRANCH  16  17
ATOM     17  C   UNL     1      44.183   5.412  11.105  0.00  0.00    +0.000 C 
BRANCH  17  18
ATOM     18  N   UNL     1      43.662   4.967   9.812  0.00  0.00    +0.000 N 
ATOM     19  H   UNL     1      43.427   5.750   9.203  0.00  0.00    +0.000 HD
BRANCH  18  20
ATOM     20  C   UNL     1      44.476   4.024   9.143  0.00  0.00    +0.000 A 
ATOM     21  C   UNL     1      45.429   4.382   8.180  0.00  0.00    +0.000 A 
ATOM     22  C   UNL     1      46.269   3.425   7.612  0.00  0.00    +0.000 A 
ATOM     23  C   UNL     1      46.159   2.118   8.049  0.00  0.00    +0.000 A 
ATOM     24  N   UNL     1      45.272   1.709   9.001  0.00  0.00    +0.000 NA
ATOM     25  C   UNL     1      44.476   2.678   9.525  0.00  0.00    +0.000 A 
BRANCH  23  26
ATOM     26  C   UNL     1      47.082   1.080   7.491  0.00  0.00    +0.000 C 
ATOM     27  N   UNL     1      48.139   1.561   6.773  0.00  0.00    +0.000 N 
ATOM     28  O   UNL     1      46.903  -0.123   7.655  0.00  0.00    +0.000 OA
ATOM     29  H   UNL     1      48.225   2.561   6.627  0.00  0.00    +0.000 HD
ATOM     30  H   UNL     1      48.772   0.916   6.322  0.00  0.00    +0.000 HD
ENDBRANCH  23  26
ENDBRANCH  18  20
ENDBRANCH  17  18
ENDBRANCH  16  17
ENDBRANCH   5  16
TORSDOF 7
ENDMDL
MODEL 6
REMARK VINA RESULT:    -7.288      4.238      7.458
REMARK INTER + INTRA:         -11.157
REMARK INTER:                  -9.494
REMARK INTRA:                  -1.663
REMARK UNBOUND:                -1.101
REMARK  Name = 
REMARK  8 active torsions:
REMARK  status: ('A' for Active; 'I' for Inactive)
REMARK    1  A    between atoms: C_1  and  C_2
REMARK    2  A    between atoms: C_2  and  C_3
REMARK    3  A    between atoms: C_7  and  C_8
REMARK    4  A    between atoms: C_8  and  C_9
REMARK    5  A    between atoms: C_9  and  N_10
REMARK    6  A    between atoms: N_10  and  C_11
REMARK    7  A    between atoms: C_14  and  C_15
REMARK    8  A    between atoms: C_23  and  O_24
REMARK                            x       y       z     vdW  Elec       q    Type
REMARK                         _______ _______ _______ _____ _____    ______ ____
ROOT
ATOM      1  C   UNL     1      45.486   7.326  11.727  0.00  0.00    +0.000 A 
ATOM      2  C   UNL     1      44.981   8.615  11.953  0.00  0.00    +0.000 A 
ATOM      3  C   UNL     1      45.838   9.710  12.111  0.00  0.00    +0.000 A 
ATOM      4  C   UNL     1      47.223   9.542  12.059  0.00  0.00    +0.000 A 
ATOM      5  C   UNL     1      47.767   8.277  11.829  0.00  0.00    +0.000 A 
ATOM      6  C   UNL     1      46.880   7.200  11.639  0.00  0.00    +0.000 A 
ENDROOT
BRANCH   1   8
ATOM      7  C   UNL     1      43.194   6.580  11.141  0.00  0.00    +0.000 C 
ATOM      8  C   UNL     1      44.561   6.086  11.677  0.00  0.00    +0.000 C 
ATOM      9  C   UNL     1      45.165   5.008  10.740  0.00  0.00    +0.000 C 
ATOM     10  C   UNL     1      44.381   3.689  10.720  0.00  0.00    +0.000 C 
ATOM     11  C   UNL     1      44.147   3.106  12.111  0.00  0.00    +0.000 C 
ATOM     12  C   UNL     1      43.539   4.130  13.061  0.00  0.00    +0.000 C 
ATOM     13  C   UNL     1      44.333   5.437  13.081  0.00  0.00    +0.000 C 
BRANCH  11  14
ATOM     14  O   UNL     1      45.367   2.605  12.650  0.00  0.00    +0.000 OA
ATOM     15  H   UNL     1      46.018   3.325  12.688  0.00  0.00    +0.000 HD
ENDBRANCH  11  14
ENDBRANCH   1   8
BRANCH   5  16
ATOM     16  C   UNL     1      49.278   8.082  11.845  0.00  0.00    +0.000 C 
BRANCH  16  17
ATOM     17  C   UNL     1      49.772   7.295  13.067  0.00  0.00    +0.000 C 
BRANCH  17  18
ATOM     18  N   UNL     1      49.217   7.753  14.341  0.00  0.00    +0.000 N 
ATOM     19  H   UNL     1      48.566   8.528  14.219  0.00  0.00    +0.000 HD
BRANCH  18  20
ATOM     20  C   UNL     1      48.655   6.731  15.139  0.00  0.00    +0.000 A 
ATOM     21  C   UNL     1      47.812   5.735  14.626  0.00  0.00    +0.000 A 
ATOM     22  C   UNL     1      47.353   4.697  15.434  0.00  0.00    +0.000 A 
ATOM     23  C   UNL     1      47.779   4.657  16.749  0.00  0.00    +0.000 A 
ATOM     24  N   UNL     1      48.618   5.578  17.302  0.00  0.00    +0.000 NA
ATOM     25  C   UNL     1      49.039   6.570  16.474  0.00  0.00    +0.000 A 
BRANCH  23  26
ATOM     26  C   UNL     1      47.340   3.525  17.626  0.00  0.00    +0.000 C 
ATOM     27  N   UNL     1      48.141   3.275  18.703  0.00  0.00    +0.000 N 
ATOM     28  O   UNL     1      46.336   2.859  17.396  0.00  0.00    +0.000 OA
ATOM     29  H   UNL     1      48.983   3.825  18.834  0.00  0.00    +0.000 HD
ATOM     30  H   UNL     1      47.935   2.493  19.309  0.00  0.00    +0.000 HD
ENDBRANCH  23  26
ENDBRANCH  18  20
ENDBRANCH  17  18
ENDBRANCH  16  17
ENDBRANCH   5  16
TORSDOF 7
ENDMDL
MODEL 7
REMARK VINA RESULT:    -6.864      1.655      2.228
REMARK INTER + INTRA:         -10.573
REMARK INTER:                  -9.669
REMARK INTRA:                  -0.903
REMARK UNBOUND:                -1.101
REMARK  Name = 
REMARK  8 active torsions:
REMARK  status: ('A' for Active; 'I' for Inactive)
REMARK    1  A    between atoms: C_1  and  C_2
REMARK    2  A    between atoms: C_2  and  C_3
REMARK    3  A    between atoms: C_7  and  C_8
REMARK    4  A    between atoms: C_8  and  C_9
REMARK    5  A    between atoms: C_9  and  N_10
REMARK    6  A    between atoms: N_10  and  C_11
REMARK    7  A    between atoms: C_14  and  C_15
REMARK    8  A    between atoms: C_23  and  O_24
REMARK                            x       y       z     vdW  Elec       q    Type
REMARK                         _______ _______ _______ _____ _____    ______ ____
ROOT
ATOM      1  C   UNL     1      48.746   7.174  13.030  0.00  0.00    +0.000 A 
ATOM      2  C   UNL     1      48.830   6.896  14.403  0.00  0.00    +0.000 A 
ATOM      3  C   UNL     1      47.943   6.001  15.014  0.00  0.00    +0.000 A 
ATOM      4  C   UNL     1      46.944   5.371  14.271  0.00  0.00    +0.000 A 
ATOM      5  C   UNL     1      46.831   5.615  12.901  0.00  0.00    +0.000 A 
ATOM      6  C   UNL     1      47.757   6.492  12.307  0.00  0.00    +0.000 A 
ENDROOT
BRANCH   1   8
ATOM      7  C   UNL     1      48.668   9.253  11.679  0.00  0.00    +0.000 C 
ATOM      8  C   UNL     1      49.633   8.253  12.364  0.00  0.00    +0.000 C 
ATOM      9  C   UNL     1      50.498   8.967  13.435  0.00  0.00    +0.000 C 
ATOM     10  C   UNL     1      51.503   9.972  12.857  0.00  0.00    +0.000 C 
ATOM     11  C   UNL     1      52.396   9.375  11.771  0.00  0.00    +0.000 C 
ATOM     12  C   UNL     1      51.583   8.675  10.689  0.00  0.00    +0.000 C 
ATOM     13  C   UNL     1      50.591   7.670  11.275  0.00  0.00    +0.000 C 
BRANCH  11  14
ATOM     14  O   UNL     1      53.330   8.464  12.344  0.00  0.00    +0.000 OA
ATOM     15  H   UNL     1      53.940   8.954  12.920  0.00  0.00    +0.000 HD
ENDBRANCH  11  14
ENDBRANCH   1   8
BRANCH   5  16
ATOM     16  C   UNL     1      45.695   4.984  12.105  0.00  0.00    +0.000 C 
BRANCH  16  17
ATOM     17  C   UNL     1      45.073   5.940  11.078  0.00  0.00    +0.000 C 
BRANCH  17  18
ATOM     18  N   UNL     1      44.359   5.271   9.990  0.00  0.00    +0.000 N 
ATOM     19  H   UNL     1      43.889   5.934   9.375  0.00  0.00    +0.000 HD
BRANCH  18  20
ATOM     20  C   UNL     1      45.140   4.351   9.253  0.00  0.00    +0.000 A 
ATOM     21  C   UNL     1      44.987   2.962   9.357  0.00  0.00    +0.000 A 
ATOM     22  C   UNL     1      45.718   2.097   8.545  0.00  0.00    +0.000 A 
ATOM     23  C   UNL     1      46.576   2.648   7.610  0.00  0.00    +0.000 A 
ATOM     24  N   UNL     1      46.751   3.990   7.440  0.00  0.00    +0.000 NA
ATOM     25  C   UNL     1      46.015   4.792   8.254  0.00  0.00    +0.000 A 
BRANCH  23  26
ATOM     26  C   UNL     1      47.337   1.743   6.692  0.00  0.00    +0.000 C 
ATOM     27  N   UNL     1      48.291   2.352   5.927  0.00  0.00    +0.000 N 
ATOM     28  O   UNL     1      47.120   0.538   6.618  0.00  0.00    +0.000 OA
ATOM     29  H   UNL     1      48.409   3.357   5.991  0.00  0.00    +0.000 HD
ATOM     30  H   UNL     1      48.807   1.812   5.248  0.00  0.00    +0.000 HD
ENDBRANCH  23  26
ENDBRANCH  18  20
ENDBRANCH  17  18
ENDBRANCH  16  17
ENDBRANCH   5  16
TORSDOF 7
ENDMDL
MODEL 8
REMARK VINA RESULT:    -6.864      3.518      5.866
REMARK INTER + INTRA:         -10.573
REMARK INTER:                  -9.259
REMARK INTRA:                  -1.314
REMARK UNBOUND:                -1.101
REMARK  Name = 
REMARK  8 active torsions:
REMARK  status: ('A' for Active; 'I' for Inactive)
REMARK    1  A    between atoms: C_1  and  C_2
REMARK    2  A    between atoms: C_2  and  C_3
REMARK    3  A    between atoms: C_7  and  C_8
REMARK    4  A    between atoms: C_8  and  C_9
REMARK    5  A    between atoms: C_9  and  N_10
REMARK    6  A    between atoms: N_10  and  C_11
REMARK    7  A    between atoms: C_14  and  C_15
REMARK    8  A    between atoms: C_23  and  O_24
REMARK                            x       y       z     vdW  Elec       q    Type
REMARK                         _______ _______ _______ _____ _____    ______ ____
ROOT
ATOM      1  C   UNL     1      48.996   6.582  16.523  0.00  0.00    +0.000 A 
ATOM      2  C   UNL     1      49.447   7.759  17.139  0.00  0.00    +0.000 A 
ATOM      3  C   UNL     1      49.564   8.953  16.418  0.00  0.00    +0.000 A 
ATOM      4  C   UNL     1      49.245   8.998  15.060  0.00  0.00    +0.000 A 
ATOM      5  C   UNL     1      48.786   7.851  14.410  0.00  0.00    +0.000 A 
ATOM      6  C   UNL     1      48.645   6.673  15.168  0.00  0.00    +0.000 A 
ENDROOT
BRANCH   1   8
ATOM      7  C   UNL     1      48.650   5.544  18.749  0.00  0.00    +0.000 C 
ATOM      8  C   UNL     1      48.982   5.227  17.270  0.00  0.00    +0.000 C 
ATOM      9  C   UNL     1      47.911   4.290  16.652  0.00  0.00    +0.000 C 
ATOM     10  C   UNL     1      47.903   2.875  17.246  0.00  0.00    +0.000 C 
ATOM     11  C   UNL     1      49.272   2.201  17.215  0.00  0.00    +0.000 C 
ATOM     12  C   UNL     1      50.353   3.084  17.826  0.00  0.00    +0.000 C 
ATOM     13  C   UNL     1      50.359   4.488  17.222  0.00  0.00    +0.000 C 
BRANCH  11  14
ATOM     14  O   UNL     1      49.624   1.856  15.878  0.00  0.00    +0.000 OA
ATOM     15  H   UNL     1      50.331   2.447  15.572  0.00  0.00    +0.000 HD
ENDBRANCH  11  14
ENDBRANCH   1   8
BRANCH   5  16
ATOM     16  C   UNL     1      48.508   7.883  12.913  0.00  0.00    +0.000 C 
BRANCH  16  17
ATOM     17  C   UNL     1      47.146   8.501  12.565  0.00  0.00    +0.000 C 
BRANCH  17  18
ATOM     18  N   UNL     1      46.009   7.855  13.220  0.00  0.00    +0.000 N 
ATOM     19  H   UNL     1      45.205   8.477  13.296  0.00  0.00    +0.000 HD
BRANCH  18  20
ATOM     20  C   UNL     1      45.640   6.608  12.663  0.00  0.00    +0.000 A 
ATOM     21  C   UNL     1      45.909   5.382  13.287  0.00  0.00    +0.000 A 
ATOM     22  C   UNL     1      45.448   4.184  12.743  0.00  0.00    +0.000 A 
ATOM     23  C   UNL     1      44.690   4.241  11.587  0.00  0.00    +0.000 A 
ATOM     24  N   UNL     1      44.372   5.402  10.946  0.00  0.00    +0.000 NA
ATOM     25  C   UNL     1      44.843   6.543  11.516  0.00  0.00    +0.000 A 
BRANCH  23  26
ATOM     26  C   UNL     1      44.142   2.973  11.008  0.00  0.00    +0.000 C 
ATOM     27  N   UNL     1      44.919   2.382  10.054  0.00  0.00    +0.000 N 
ATOM     28  O   UNL     1      43.067   2.497  11.355  0.00  0.00    +0.000 OA
ATOM     29  H   UNL     1      45.782   2.832   9.768  0.00  0.00    +0.000 HD
ATOM     30  H   UNL     1      44.588   1.553   9.582  0.00  0.00    +0.000 HD
ENDBRANCH  23  26
ENDBRANCH  18  20
ENDBRANCH  17  18
ENDBRANCH  16  17
ENDBRANCH   5  16
TORSDOF 7
ENDMDL
MODEL 9
REMARK VINA RESULT:    -6.477      3.176      4.105
REMARK INTER + INTRA:         -10.039
REMARK INTER:                  -9.298
REMARK INTRA:                  -0.741
REMARK UNBOUND:                -1.101
REMARK  Name = 
REMARK  8 active torsions:
REMARK  status: ('A' for Active; 'I' for Inactive)
REMARK    1  A    between atoms: C_1  and  C_2
REMARK    2  A    between atoms: C_2  and  C_3
REMARK    3  A    between atoms: C_7  and  C_8
REMARK    4  A    between atoms: C_8  and  C_9
REMARK    5  A    between atoms: C_9  and  N_10
REMARK    6  A    between atoms: N_10  and  C_11
REMARK    7  A    between atoms: C_14  and  C_15
REMARK    8  A    between atoms: C_23  and  O_24
REMARK                            x       y       z     vdW  Elec       q    Type
REMARK                         _______ _______ _______ _____ _____    ______ ____
ROOT
ATOM      1  C   UNL     1      47.510   4.714  15.204  0.00  0.00    +0.000 A 
ATOM      2  C   UNL     1      47.458   3.375  14.786  0.00  0.00    +0.000 A 
ATOM      3  C   UNL     1      46.738   3.003  13.645  0.00  0.00    +0.000 A 
ATOM      4  C   UNL     1      46.043   3.955  12.900  0.00  0.00    +0.000 A 
ATOM      5  C   UNL     1      46.074   5.299  13.278  0.00  0.00    +0.000 A 
ATOM      6  C   UNL     1      46.834   5.650  14.409  0.00  0.00    +0.000 A 
ENDROOT
BRANCH   1   8
ATOM      7  C   UNL     1      48.806   6.528  16.292  0.00  0.00    +0.000 C 
ATOM      8  C   UNL     1      48.193   5.125  16.530  0.00  0.00    +0.000 C 
ATOM      9  C   UNL     1      47.149   5.167  17.676  0.00  0.00    +0.000 C 
ATOM     10  C   UNL     1      47.751   5.446  19.059  0.00  0.00    +0.000 C 
ATOM     11  C   UNL     1      48.893   4.500  19.422  0.00  0.00    +0.000 C 
ATOM     12  C   UNL     1      49.950   4.441  18.327  0.00  0.00    +0.000 C 
ATOM     13  C   UNL     1      49.341   4.152  16.954  0.00  0.00    +0.000 C 
BRANCH  11  14
ATOM     14  O   UNL     1      48.389   3.193  19.683  0.00  0.00    +0.000 OA
ATOM     15  H   UNL     1      47.974   3.181  20.561  0.00  0.00    +0.000 HD
ENDBRANCH  11  14
ENDBRANCH   1   8
BRANCH   5  16
ATOM     16  C   UNL     1      45.255   6.328  12.507  0.00  0.00    +0.000 C 
BRANCH  16  17
ATOM     17  C   UNL     1      45.441   6.229  10.986  0.00  0.00    +0.000 C 
BRANCH  17  18
ATOM     18  N   UNL     1      44.554   5.264  10.335  0.00  0.00    +0.000 N 
ATOM     19  H   UNL     1      43.712   5.704   9.967  0.00  0.00    +0.000 HD
BRANCH  18  20
ATOM     20  C   UNL     1      45.181   4.457   9.358  0.00  0.00    +0.000 A 
ATOM     21  C   UNL     1      46.078   4.964   8.407  0.00  0.00    +0.000 A 
ATOM     22  C   UNL     1      46.739   4.115   7.520  0.00  0.00    +0.000 A 
ATOM     23  C   UNL     1      46.509   2.755   7.624  0.00  0.00    +0.000 A 
ATOM     24  N   UNL     1      45.669   2.197   8.542  0.00  0.00    +0.000 NA
ATOM     25  C   UNL     1      45.050   3.065   9.386  0.00  0.00    +0.000 A 
BRANCH  23  26
ATOM     26  C   UNL     1      47.242   1.818   6.716  0.00  0.00    +0.000 C 
ATOM     27  N   UNL     1      47.977   2.412   5.731  0.00  0.00    +0.000 N 
ATOM     28  O   UNL     1      47.185   0.598   6.836  0.00  0.00    +0.000 OA
ATOM     29  H   UNL     1      47.964   3.423   5.643  0.00  0.00    +0.000 HD
ATOM     30  H   UNL     1      48.455   1.840   5.049  0.00  0.00    +0.000 HD
ENDBRANCH  23  26
ENDBRANCH  18  20
ENDBRANCH  17  18
ENDBRANCH  16  17
ENDBRANCH   5  16
TORSDOF 7
ENDMDL
