MODEL 1
REMARK VINA RESULT:    -7.630      0.000      0.000
REMARK INTER + INTRA:         -10.554
REMARK INTER:                 -10.083
REMARK INTRA:                  -0.472
REMARK UNBOUND:                -0.472
REMARK  Name = 
REMARK  6 active torsions:
REMARK  status: ('A' for Active; 'I' for Inactive)
REMARK    1  A    between atoms: N_1  and  C_2
REMARK    2  A    between atoms: C_2  and  C_3
REMARK    3  A    between atoms: C_3  and  C_4
REMARK    4  A    between atoms: C_7  and  C_8
REMARK    5  A    between atoms: C_8  and  N_9
REMARK    6  A    between atoms: C_16  and  C_17
REMARK                            x       y       z     vdW  Elec       q    Type
REMARK                         _______ _______ _______ _____ _____    ______ ____
ROOT
ATOM      1  N   UNL     1      45.522   5.008  12.647  0.00  0.00    +0.000 N 
ATOM      2  C   UNL     1      46.037   3.846  13.189  0.00  0.00    +0.000 A 
ATOM      3  C   UNL     1      47.119   4.147  13.961  0.00  0.00    +0.000 A 
ATOM      4  C   UNL     1      47.266   5.548  13.953  0.00  0.00    +0.000 A 
ATOM      5  C   UNL     1      48.218   6.370  14.571  0.00  0.00    +0.000 A 
ATOM      6  N   UNL     1      48.175   7.706  14.450  0.00  0.00    +0.000 NA
ATOM      7  C   UNL     1      47.190   8.230  13.691  0.00  0.00    +0.000 A 
ATOM      8  C   UNL     1      46.216   7.514  12.982  0.00  0.00    +0.000 A 
ATOM      9  C   UNL     1      46.246   6.105  13.143  0.00  0.00    +0.000 A 
ENDROOT
BRANCH   8  10
ATOM     10  C   UNL     1      45.260   8.293  12.186  0.00  0.00    +0.000 C 
ATOM     11  N   UNL     1      44.732   9.427  12.775  0.00  0.00    +0.000 N 
ATOM     12  O   UNL     1      44.910   7.963  11.063  0.00  0.00    +0.000 OA
ATOM     13  H   UNL     1      45.057   9.821  13.647  0.00  0.00    +0.000 HD
ATOM     14  H   UNL     1      44.017   9.939  12.271  0.00  0.00    +0.000 HD
ENDBRANCH   8  10
BRANCH   1  15
ATOM     15  C   UNL     1      44.440   5.009  11.641  0.00  0.00    +0.000 C 
BRANCH  15  19
ATOM     16  C   UNL     1      45.826   3.298   7.871  0.00  0.00    +0.000 A 
ATOM     17  C   UNL     1      45.016   2.555   8.737  0.00  0.00    +0.000 A 
ATOM     18  C   UNL     1      44.530   3.120   9.925  0.00  0.00    +0.000 A 
ATOM     19  C   UNL     1      44.857   4.441  10.283  0.00  0.00    +0.000 A 
ATOM     20  C   UNL     1      45.667   5.182   9.406  0.00  0.00    +0.000 A 
ATOM     21  C   UNL     1      46.135   4.621   8.208  0.00  0.00    +0.000 A 
BRANCH  16  22
ATOM     22  C   UNL     1      46.343   2.681   6.592  0.00  0.00    +0.000 C 
BRANCH  22  23
ATOM     23  C   UNL     1      47.543   1.760   6.841  0.00  0.00    +0.000 C 
BRANCH  23  24
ATOM     24  N   UNL     1      48.501   1.836   5.736  0.00  0.00    +0.000 NA
ATOM     25  H   UNL     1      48.487   0.957   5.219  0.00  0.00    +0.000 HD
ATOM     26  H   UNL     1      49.445   1.931   6.108  0.00  0.00    +0.000 HD
ENDBRANCH  23  24
ENDBRANCH  22  23
ENDBRANCH  16  22
ENDBRANCH  15  19
ENDBRANCH   1  15
TORSDOF 6
ENDMDL
MODEL 2
REMARK VINA RESULT:    -7.476      1.452      2.710
REMARK INTER + INTRA:         -10.351
REMARK INTER:                  -9.857
REMARK INTRA:                  -0.494
REMARK UNBOUND:                -0.472
REMARK  Name = 
REMARK  6 active torsions:
REMARK  status: ('A' for Active; 'I' for Inactive)
REMARK    1  A    between atoms: N_1  and  C_2
REMARK    2  A    between atoms: C_2  and  C_3
REMARK    3  A    between atoms: C_3  and  C_4
REMARK    4  A    between atoms: C_7  and  C_8
REMARK    5  A    between atoms: C_8  and  N_9
REMARK    6  A    between atoms: C_16  and  C_17
REMARK                            x       y       z     vdW  Elec       q    Type
REMARK                         _______ _______ _______ _____ _____    ______ ____
ROOT
ATOM      1  N   UNL     1      45.229   6.321  12.055  0.00  0.00    +0.000 N 
ATOM      2  C   UNL     1      44.827   7.507  11.473  0.00  0.00    +0.000 A 
ATOM      3  C   UNL     1      45.538   8.539  12.010  0.00  0.00    +0.000 A 
ATOM      4  C   UNL     1      46.458   7.986  12.923  0.00  0.00    +0.000 A 
ATOM      5  C   UNL     1      47.409   8.603  13.746  0.00  0.00    +0.000 A 
ATOM      6  N   UNL     1      48.213   7.887  14.548  0.00  0.00    +0.000 NA
ATOM      7  C   UNL     1      48.056   6.547  14.548  0.00  0.00    +0.000 A 
ATOM      8  C   UNL     1      47.109   5.820  13.814  0.00  0.00    +0.000 A 
ATOM      9  C   UNL     1      46.287   6.580  12.943  0.00  0.00    +0.000 A 
ENDROOT
BRANCH   8  10
ATOM     10  C   UNL     1      47.093   4.364  13.997  0.00  0.00    +0.000 C 
ATOM     11  N   UNL     1      46.673   3.892  15.228  0.00  0.00    +0.000 N 
ATOM     12  O   UNL     1      47.452   3.583  13.129  0.00  0.00    +0.000 OA
ATOM     13  H   UNL     1      46.257   4.467  15.947  0.00  0.00    +0.000 HD
ATOM     14  H   UNL     1      46.723   2.895  15.399  0.00  0.00    +0.000 HD
ENDBRANCH   8  10
BRANCH   1  15
ATOM     15  C   UNL     1      44.546   5.035  11.803  0.00  0.00    +0.000 C 
BRANCH  15  19
ATOM     16  C   UNL     1      45.827   3.128   8.090  0.00  0.00    +0.000 A 
ATOM     17  C   UNL     1      45.167   2.392   9.080  0.00  0.00    +0.000 A 
ATOM     18  C   UNL     1      44.711   3.014  10.251  0.00  0.00    +0.000 A 
ATOM     19  C   UNL     1      44.921   4.388  10.468  0.00  0.00    +0.000 A 
ATOM     20  C   UNL     1      45.580   5.121   9.467  0.00  0.00    +0.000 A 
ATOM     21  C   UNL     1      46.017   4.501   8.286  0.00  0.00    +0.000 A 
BRANCH  16  22
ATOM     22  C   UNL     1      46.312   2.450   6.830  0.00  0.00    +0.000 C 
BRANCH  22  23
ATOM     23  C   UNL     1      47.686   1.796   7.019  0.00  0.00    +0.000 C 
BRANCH  23  24
ATOM     24  N   UNL     1      48.467   1.849   5.781  0.00  0.00    +0.000 NA
ATOM     25  H   UNL     1      48.136   1.126   5.145  0.00  0.00    +0.000 HD
ATOM     26  H   UNL     1      49.441   1.627   5.982  0.00  0.00    +0.000 HD
ENDBRANCH  23  24
ENDBRANCH  22  23
ENDBRANCH  16  22
ENDBRANCH  15  19
ENDBRANCH   1  15
TORSDOF 6
ENDMDL
MODEL 3
REMARK VINA RESULT:    -6.297      2.121      3.237
REMARK INTER + INTRA:          -8.794
REMARK INTER:                  -8.070
REMARK INTRA:                  -0.724
REMARK UNBOUND:                -0.472
REMARK  Name = 
REMARK  6 active torsions:
REMARK  status: ('A' for Active; 'I' for Inactive)
REMARK    1  A    between atoms: N_1  and  C_2
REMARK    2  A    between atoms: C_2  and  C_3
REMARK    3  A    between atoms: C_3  and  C_4
REMARK    4  A    between atoms: C_7  and  C_8
REMARK    5  A    between atoms: C_8  and  N_9
REMARK    6  A    between atoms: C_16  and  C_17
REMARK                            x       y       z     vdW  Elec       q    Type
REMARK                         _______ _______ _______ _____ _____    ______ ____
ROOT
ATOM      1  N   UNL     1      46.541   7.584  12.638  0.00  0.00    +0.000 N 
ATOM      2  C   UNL     1      47.763   7.039  12.979  0.00  0.00    +0.000 A 
ATOM      3  C   UNL     1      48.757   7.913  12.651  0.00  0.00    +0.000 A 
ATOM      4  C   UNL     1      48.145   9.071  12.134  0.00  0.00    +0.000 A 
ATOM      5  C   UNL     1      48.706  10.258  11.642  0.00  0.00    +0.000 A 
ATOM      6  N   UNL     1      47.938  11.265  11.200  0.00  0.00    +0.000 NA
ATOM      7  C   UNL     1      46.601  11.086  11.227  0.00  0.00    +0.000 A 
ATOM      8  C   UNL     1      45.925   9.931  11.644  0.00  0.00    +0.000 A 
ATOM      9  C   UNL     1      46.741   8.884  12.142  0.00  0.00    +0.000 A 
ENDROOT
BRANCH   8  10
ATOM     10  C   UNL     1      44.460   9.943  11.553  0.00  0.00    +0.000 C 
ATOM     11  N   UNL     1      43.884   9.105  10.616  0.00  0.00    +0.000 N 
ATOM     12  O   UNL     1      43.760  10.669  12.243  0.00  0.00    +0.000 OA
ATOM     13  H   UNL     1      44.387   8.400  10.096  0.00  0.00    +0.000 HD
ATOM     14  H   UNL     1      42.879   9.151  10.488  0.00  0.00    +0.000 HD
ENDBRANCH   8  10
BRANCH   1  15
ATOM     15  C   UNL     1      45.276   6.826  12.723  0.00  0.00    +0.000 C 
BRANCH  15  19
ATOM     16  C   UNL     1      44.920   3.365  10.085  0.00  0.00    +0.000 A 
ATOM     17  C   UNL     1      45.322   4.608   9.583  0.00  0.00    +0.000 A 
ATOM     18  C   UNL     1      45.484   5.708  10.437  0.00  0.00    +0.000 A 
ATOM     19  C   UNL     1      45.231   5.595  11.816  0.00  0.00    +0.000 A 
ATOM     20  C   UNL     1      44.833   4.342  12.314  0.00  0.00    +0.000 A 
ATOM     21  C   UNL     1      44.691   3.238  11.460  0.00  0.00    +0.000 A 
BRANCH  16  22
ATOM     22  C   UNL     1      44.751   2.185   9.157  0.00  0.00    +0.000 C 
BRANCH  22  23
ATOM     23  C   UNL     1      45.876   2.102   8.120  0.00  0.00    +0.000 C 
BRANCH  23  24
ATOM     24  N   UNL     1      46.431   0.748   8.054  0.00  0.00    +0.000 NA
ATOM     25  H   UNL     1      45.857   0.181   7.432  0.00  0.00    +0.000 HD
ATOM     26  H   UNL     1      46.373   0.310   8.973  0.00  0.00    +0.000 HD
ENDBRANCH  23  24
ENDBRANCH  22  23
ENDBRANCH  16  22
ENDBRANCH  15  19
ENDBRANCH   1  15
TORSDOF 6
ENDMDL
MODEL 4
REMARK VINA RESULT:    -6.251      2.096      3.565
REMARK INTER + INTRA:          -8.732
REMARK INTER:                  -7.924
REMARK INTRA:                  -0.808
REMARK UNBOUND:                -0.472
REMARK  Name = 
REMARK  6 active torsions:
REMARK  status: ('A' for Active; 'I' for Inactive)
REMARK    1  A    between atoms: N_1  and  C_2
REMARK    2  A    between atoms: C_2  and  C_3
REMARK    3  A    between atoms: C_3  and  C_4
REMARK    4  A    between atoms: C_7  and  C_8
REMARK    5  A    between atoms: C_8  and  N_9
REMARK    6  A    between atoms: C_16  and  C_17
REMARK                            x       y       z     vdW  Elec       q    Type
REMARK                         _______ _______ _______ _____ _____    ______ ____
ROOT
ATOM      1  N   UNL     1      45.637   8.319  12.421  0.00  0.00    +0.000 N 
ATOM      2  C   UNL     1      45.032   9.405  11.818  0.00  0.00    +0.000 A 
ATOM      3  C   UNL     1      45.887  10.467  11.836  0.00  0.00    +0.000 A 
ATOM      4  C   UNL     1      47.092  10.028  12.419  0.00  0.00    +0.000 A 
ATOM      5  C   UNL     1      48.282  10.719  12.685  0.00  0.00    +0.000 A 
ATOM      6  N   UNL     1      49.338  10.107  13.243  0.00  0.00    +0.000 NA
ATOM      7  C   UNL     1      49.204   8.802  13.561  0.00  0.00    +0.000 A 
ATOM      8  C   UNL     1      48.053   8.020  13.395  0.00  0.00    +0.000 A 
ATOM      9  C   UNL     1      46.953   8.663  12.773  0.00  0.00    +0.000 A 
ENDROOT
BRANCH   8  10
ATOM     10  C   UNL     1      48.121   6.625  13.848  0.00  0.00    +0.000 C 
ATOM     11  N   UNL     1      48.065   6.406  15.212  0.00  0.00    +0.000 N 
ATOM     12  O   UNL     1      48.246   5.684  13.078  0.00  0.00    +0.000 OA
ATOM     13  H   UNL     1      47.850   7.117  15.896  0.00  0.00    +0.000 HD
ATOM     14  H   UNL     1      48.183   5.457  15.549  0.00  0.00    +0.000 HD
ENDBRANCH   8  10
BRANCH   1  15
ATOM     15  C   UNL     1      44.920   7.057  12.698  0.00  0.00    +0.000 C 
BRANCH  15  19
ATOM     16  C   UNL     1      44.792   4.216   9.386  0.00  0.00    +0.000 A 
ATOM     17  C   UNL     1      43.793   4.215  10.367  0.00  0.00    +0.000 A 
ATOM     18  C   UNL     1      43.807   5.159  11.403  0.00  0.00    +0.000 A 
ATOM     19  C   UNL     1      44.831   6.118  11.494  0.00  0.00    +0.000 A 
ATOM     20  C   UNL     1      45.827   6.117  10.502  0.00  0.00    +0.000 A 
ATOM     21  C   UNL     1      45.800   5.184   9.454  0.00  0.00    +0.000 A 
BRANCH  16  22
ATOM     22  C   UNL     1      44.767   3.197   8.270  0.00  0.00    +0.000 C 
BRANCH  22  23
ATOM     23  C   UNL     1      44.986   1.771   8.788  0.00  0.00    +0.000 C 
BRANCH  23  24
ATOM     24  N   UNL     1      46.217   1.198   8.241  0.00  0.00    +0.000 NA
ATOM     25  H   UNL     1      46.786   1.943   7.842  0.00  0.00    +0.000 HD
ATOM     26  H   UNL     1      45.990   0.571   7.470  0.00  0.00    +0.000 HD
ENDBRANCH  23  24
ENDBRANCH  22  23
ENDBRANCH  16  22
ENDBRANCH  15  19
ENDBRANCH   1  15
TORSDOF 6
ENDMDL
MODEL 5
REMARK VINA RESULT:    -6.004      2.641      6.483
REMARK INTER + INTRA:          -8.406
REMARK INTER:                  -7.603
REMARK INTRA:                  -0.803
REMARK UNBOUND:                -0.472
REMARK  Name = 
REMARK  6 active torsions:
REMARK  status: ('A' for Active; 'I' for Inactive)
REMARK    1  A    between atoms: N_1  and  C_2
REMARK    2  A    between atoms: C_2  and  C_3
REMARK    3  A    between atoms: C_3  and  C_4
REMARK    4  A    between atoms: C_7  and  C_8
REMARK    5  A    between atoms: C_8  and  N_9
REMARK    6  A    between atoms: C_16  and  C_17
REMARK                            x       y       z     vdW  Elec       q    Type
REMARK                         _______ _______ _______ _____ _____    ______ ____
ROOT
ATOM      1  N   UNL     1      45.263   5.756  10.491  0.00  0.00    +0.000 N 
ATOM      2  C   UNL     1      45.949   5.708   9.293  0.00  0.00    +0.000 A 
ATOM      3  C   UNL     1      45.810   4.470   8.740  0.00  0.00    +0.000 A 
ATOM      4  C   UNL     1      44.966   3.724   9.586  0.00  0.00    +0.000 A 
ATOM      5  C   UNL     1      44.515   2.400   9.489  0.00  0.00    +0.000 A 
ATOM      6  N   UNL     1      43.691   1.871  10.406  0.00  0.00    +0.000 NA
ATOM      7  C   UNL     1      43.328   2.656  11.442  0.00  0.00    +0.000 A 
ATOM      8  C   UNL     1      43.753   3.971  11.678  0.00  0.00    +0.000 A 
ATOM      9  C   UNL     1      44.596   4.535  10.686  0.00  0.00    +0.000 A 
ENDROOT
BRANCH   8  10
ATOM     10  C   UNL     1      43.259   4.626  12.895  0.00  0.00    +0.000 C 
ATOM     11  N   UNL     1      42.459   5.741  12.725  0.00  0.00    +0.000 N 
ATOM     12  O   UNL     1      43.545   4.240  14.018  0.00  0.00    +0.000 OA
ATOM     13  H   UNL     1      42.090   6.048  11.836  0.00  0.00    +0.000 HD
ATOM     14  H   UNL     1      42.166   6.250  13.551  0.00  0.00    +0.000 HD
ENDBRANCH   8  10
BRANCH   1  15
ATOM     15  C   UNL     1      45.342   6.909  11.411  0.00  0.00    +0.000 C 
BRANCH  15  19
ATOM     16  C   UNL     1      48.853   7.119  13.998  0.00  0.00    +0.000 A 
ATOM     17  C   UNL     1      47.905   6.103  14.162  0.00  0.00    +0.000 A 
ATOM     18  C   UNL     1      46.803   6.005  13.301  0.00  0.00    +0.000 A 
ATOM     19  C   UNL     1      46.613   6.935  12.263  0.00  0.00    +0.000 A 
ATOM     20  C   UNL     1      47.572   7.950  12.101  0.00  0.00    +0.000 A 
ATOM     21  C   UNL     1      48.685   8.032  12.952  0.00  0.00    +0.000 A 
BRANCH  16  22
ATOM     22  C   UNL     1      50.039   7.214  14.930  0.00  0.00    +0.000 C 
BRANCH  22  23
ATOM     23  C   UNL     1      49.705   6.716  16.341  0.00  0.00    +0.000 C 
BRANCH  23  24
ATOM     24  N   UNL     1      50.507   5.540  16.686  0.00  0.00    +0.000 NA
ATOM     25  H   UNL     1      49.965   4.698  16.497  0.00  0.00    +0.000 HD
ATOM     26  H   UNL     1      50.696   5.537  17.688  0.00  0.00    +0.000 HD
ENDBRANCH  23  24
ENDBRANCH  22  23
ENDBRANCH  16  22
ENDBRANCH  15  19
ENDBRANCH   1  15
TORSDOF 6
ENDMDL
MODEL 6
REMARK VINA RESULT:    -5.649      2.740      4.562
REMARK INTER + INTRA:          -7.937
REMARK INTER:                  -7.177
REMARK INTRA:                  -0.760
REMARK UNBOUND:                -0.472
REMARK  Name = 
REMARK  6 active torsions:
REMARK  status: ('A' for Active; 'I' for Inactive)
REMARK    1  A    between atoms: N_1  and  C_2
REMARK    2  A    between atoms: C_2  and  C_3
REMARK    3  A    between atoms: C_3  and  C_4
REMARK    4  A    between atoms: C_7  and  C_8
REMARK    5  A    between atoms: C_8  and  N_9
REMARK    6  A    between atoms: C_16  and  C_17
REMARK                            x       y       z     vdW  Elec       q    Type
REMARK                         _______ _______ _______ _____ _____    ______ ____
ROOT
ATOM      1  N   UNL     1      48.237   8.044  12.937  0.00  0.00    +0.000 N 
ATOM      2  C   UNL     1      48.559   8.646  11.736  0.00  0.00    +0.000 A 
ATOM      3  C   UNL     1      49.890   8.942  11.719  0.00  0.00    +0.000 A 
ATOM      4  C   UNL     1      50.442   8.466  12.924  0.00  0.00    +0.000 A 
ATOM      5  C   UNL     1      51.754   8.524  13.413  0.00  0.00    +0.000 A 
ATOM      6  N   UNL     1      52.085   7.990  14.599  0.00  0.00    +0.000 NA
ATOM      7  C   UNL     1      51.099   7.413  15.317  0.00  0.00    +0.000 A 
ATOM      8  C   UNL     1      49.745   7.341  14.964  0.00  0.00    +0.000 A 
ATOM      9  C   UNL     1      49.409   7.876  13.693  0.00  0.00    +0.000 A 
ENDROOT
BRANCH   8  10
ATOM     10  C   UNL     1      48.836   6.697  15.919  0.00  0.00    +0.000 C 
ATOM     11  N   UNL     1      48.228   7.514  16.855  0.00  0.00    +0.000 N 
ATOM     12  O   UNL     1      48.628   5.492  15.927  0.00  0.00    +0.000 OA
ATOM     13  H   UNL     1      48.263   8.524  16.838  0.00  0.00    +0.000 HD
ATOM     14  H   UNL     1      47.654   7.080  17.568  0.00  0.00    +0.000 HD
ENDBRANCH   8  10
BRANCH   1  15
ATOM     15  C   UNL     1      46.846   7.739  13.330  0.00  0.00    +0.000 C 
BRANCH  15  19
ATOM     16  C   UNL     1      44.981   4.258  11.469  0.00  0.00    +0.000 A 
ATOM     17  C   UNL     1      44.922   5.514  10.854  0.00  0.00    +0.000 A 
ATOM     18  C   UNL     1      45.562   6.622  11.426  0.00  0.00    +0.000 A 
ATOM     19  C   UNL     1      46.265   6.504  12.639  0.00  0.00    +0.000 A 
ATOM     20  C   UNL     1      46.325   5.238  13.247  0.00  0.00    +0.000 A 
ATOM     21  C   UNL     1      45.701   4.126  12.662  0.00  0.00    +0.000 A 
BRANCH  16  22
ATOM     22  C   UNL     1      44.290   3.068  10.843  0.00  0.00    +0.000 C 
BRANCH  22  23
ATOM     23  C   UNL     1      44.681   2.883   9.372  0.00  0.00    +0.000 C 
BRANCH  23  24
ATOM     24  N   UNL     1      45.369   1.607   9.169  0.00  0.00    +0.000 NA
ATOM     25  H   UNL     1      44.763   0.847   9.475  0.00  0.00    +0.000 HD
ATOM     26  H   UNL     1      46.197   1.566   9.761  0.00  0.00    +0.000 HD
ENDBRANCH  23  24
ENDBRANCH  22  23
ENDBRANCH  16  22
ENDBRANCH  15  19
ENDBRANCH   1  15
TORSDOF 6
ENDMDL
MODEL 7
REMARK VINA RESULT:    -5.639      3.700      5.367
REMARK INTER + INTRA:          -7.923
REMARK INTER:                  -7.075
REMARK INTRA:                  -0.848
REMARK UNBOUND:                -0.472
REMARK  Name = 
REMARK  6 active torsions:
REMARK  status: ('A' for Active; 'I' for Inactive)
REMARK    1  A    between atoms: N_1  and  C_2
REMARK    2  A    between atoms: C_2  and  C_3
REMARK    3  A    between atoms: C_3  and  C_4
REMARK    4  A    between atoms: C_7  and  C_8
REMARK    5  A    between atoms: C_8  and  N_9
REMARK    6  A    between atoms: C_16  and  C_17
REMARK                            x       y       z     vdW  Elec       q    Type
REMARK                         _______ _______ _______ _____ _____    ______ ____
ROOT
ATOM      1  N   UNL     1      48.916   7.932  14.240  0.00  0.00    +0.000 N 
ATOM      2  C   UNL     1      48.943   9.184  13.658  0.00  0.00    +0.000 A 
ATOM      3  C   UNL     1      48.705  10.131  14.609  0.00  0.00    +0.000 A 
ATOM      4  C   UNL     1      48.577   9.465  15.843  0.00  0.00    +0.000 A 
ATOM      5  C   UNL     1      48.318   9.963  17.128  0.00  0.00    +0.000 A 
ATOM      6  N   UNL     1      48.247   9.152  18.194  0.00  0.00    +0.000 NA
ATOM      7  C   UNL     1      48.413   7.830  17.980  0.00  0.00    +0.000 A 
ATOM      8  C   UNL     1      48.622   7.206  16.742  0.00  0.00    +0.000 A 
ATOM      9  C   UNL     1      48.731   8.074  15.625  0.00  0.00    +0.000 A 
ENDROOT
BRANCH   8  10
ATOM     10  C   UNL     1      48.739   5.744  16.740  0.00  0.00    +0.000 C 
ATOM     11  N   UNL     1      47.590   5.023  17.010  0.00  0.00    +0.000 N 
ATOM     12  O   UNL     1      49.795   5.164  16.537  0.00  0.00    +0.000 OA
ATOM     13  H   UNL     1      46.666   5.426  17.075  0.00  0.00    +0.000 HD
ATOM     14  H   UNL     1      47.664   4.015  17.085  0.00  0.00    +0.000 HD
ENDBRANCH   8  10
BRANCH   1  15
ATOM     15  C   UNL     1      48.986   6.684  13.452  0.00  0.00    +0.000 C 
BRANCH  15  19
ATOM     16  C   UNL     1      45.240   5.183  11.786  0.00  0.00    +0.000 A 
ATOM     17  C   UNL     1      45.721   4.701  13.008  0.00  0.00    +0.000 A 
ATOM     18  C   UNL     1      46.898   5.218  13.568  0.00  0.00    +0.000 A 
ATOM     19  C   UNL     1      47.633   6.219  12.909  0.00  0.00    +0.000 A 
ATOM     20  C   UNL     1      47.141   6.702  11.684  0.00  0.00    +0.000 A 
ATOM     21  C   UNL     1      45.951   6.198  11.136  0.00  0.00    +0.000 A 
BRANCH  16  22
ATOM     22  C   UNL     1      43.969   4.623  11.192  0.00  0.00    +0.000 C 
BRANCH  22  23
ATOM     23  C   UNL     1      43.244   3.683  12.163  0.00  0.00    +0.000 C 
BRANCH  23  24
ATOM     24  N   UNL     1      43.055   2.358  11.568  0.00  0.00    +0.000 NA
ATOM     25  H   UNL     1      43.556   2.314  10.682  0.00  0.00    +0.000 HD
ATOM     26  H   UNL     1      42.070   2.221  11.344  0.00  0.00    +0.000 HD
ENDBRANCH  23  24
ENDBRANCH  22  23
ENDBRANCH  16  22
ENDBRANCH  15  19
ENDBRANCH   1  15
TORSDOF 6
ENDMDL
MODEL 8
REMARK VINA RESULT:    -5.561      3.658      6.129
REMARK INTER + INTRA:          -7.821
REMARK INTER:                  -7.213
REMARK INTRA:                  -0.607
REMARK UNBOUND:                -0.472
REMARK  Name = 
REMARK  6 active torsions:
REMARK  status: ('A' for Active; 'I' for Inactive)
REMARK    1  A    between atoms: N_1  and  C_2
REMARK    2  A    between atoms: C_2  and  C_3
REMARK    3  A    between atoms: C_3  and  C_4
REMARK    4  A    between atoms: C_7  and  C_8
REMARK    5  A    between atoms: C_8  and  N_9
REMARK    6  A    between atoms: C_16  and  C_17
REMARK                            x       y       z     vdW  Elec       q    Type
REMARK                         _______ _______ _______ _____ _____    ______ ____
ROOT
ATOM      1  N   UNL     1      46.693   7.641  13.275  0.00  0.00    +0.000 N 
ATOM      2  C   UNL     1      46.144   8.749  12.660  0.00  0.00    +0.000 A 
ATOM      3  C   UNL     1      45.078   8.365  11.902  0.00  0.00    +0.000 A 
ATOM      4  C   UNL     1      44.910   6.979  12.083  0.00  0.00    +0.000 A 
ATOM      5  C   UNL     1      43.978   6.091  11.528  0.00  0.00    +0.000 A 
ATOM      6  N   UNL     1      43.977   4.787  11.844  0.00  0.00    +0.000 NA
ATOM      7  C   UNL     1      44.925   4.355  12.702  0.00  0.00    +0.000 A 
ATOM      8  C   UNL     1      45.941   5.129  13.278  0.00  0.00    +0.000 A 
ATOM      9  C   UNL     1      45.914   6.513  12.968  0.00  0.00    +0.000 A 
ENDROOT
BRANCH   8  10
ATOM     10  C   UNL     1      46.892   4.439  14.158  0.00  0.00    +0.000 C 
ATOM     11  N   UNL     1      46.909   4.824  15.486  0.00  0.00    +0.000 N 
ATOM     12  O   UNL     1      47.661   3.579  13.757  0.00  0.00    +0.000 OA
ATOM     13  H   UNL     1      46.231   5.441  15.910  0.00  0.00    +0.000 HD
ATOM     14  H   UNL     1      47.607   4.412  16.094  0.00  0.00    +0.000 HD
ENDBRANCH   8  10
BRANCH   1  15
ATOM     15  C   UNL     1      47.954   7.697  14.043  0.00  0.00    +0.000 C 
BRANCH  15  19
ATOM     16  C   UNL     1      51.568   8.133  11.633  0.00  0.00    +0.000 A 
ATOM     17  C   UNL     1      50.396   7.610  11.075  0.00  0.00    +0.000 A 
ATOM     18  C   UNL     1      49.221   7.515  11.834  0.00  0.00    +0.000 A 
ATOM     19  C   UNL     1      49.195   7.927  13.179  0.00  0.00    +0.000 A 
ATOM     20  C   UNL     1      50.374   8.456  13.731  0.00  0.00    +0.000 A 
ATOM     21  C   UNL     1      51.543   8.569  12.963  0.00  0.00    +0.000 A 
BRANCH  16  22
ATOM     22  C   UNL     1      52.828   8.234  10.806  0.00  0.00    +0.000 C 
BRANCH  22  23
ATOM     23  C   UNL     1      52.960   7.073   9.813  0.00  0.00    +0.000 C 
BRANCH  23  24
ATOM     24  N   UNL     1      53.476   5.873  10.474  0.00  0.00    +0.000 NA
ATOM     25  H   UNL     1      54.131   5.403   9.851  0.00  0.00    +0.000 HD
ATOM     26  H   UNL     1      52.714   5.215  10.632  0.00  0.00    +0.000 HD
ENDBRANCH  23  24
ENDBRANCH  22  23
ENDBRANCH  16  22
ENDBRANCH  15  19
ENDBRANCH   1  15
TORSDOF 6
ENDMDL
MODEL 9
REMARK VINA RESULT:    -5.408      3.312      6.185
REMARK INTER + INTRA:          -7.619
REMARK INTER:                  -6.888
REMARK INTRA:                  -0.731
REMARK UNBOUND:                -0.472
REMARK  Name = 
REMARK  6 active torsions:
REMARK  status: ('A' for Active; 'I' for Inactive)
REMARK    1  A    between atoms: N_1  and  C_2
REMARK    2  A    between atoms: C_2  and  C_3
REMARK    3  A    between atoms: C_3  and  C_4
REMARK    4  A    between atoms: C_7  and  C_8
REMARK    5  A    between atoms: C_8  and  N_9
REMARK    6  A    between atoms: C_16  and  C_17
REMARK                            x       y       z     vdW  Elec       q    Type
REMARK                         _______ _______ _______ _____ _____    ______ ____
ROOT
ATOM      1  N   UNL     1      45.993   7.104  12.602  0.00  0.00    +0.000 N 
ATOM      2  C   UNL     1      45.157   7.354  11.531  0.00  0.00    +0.000 A 
ATOM      3  C   UNL     1      44.706   6.172  11.023  0.00  0.00    +0.000 A 
ATOM      4  C   UNL     1      45.228   5.141  11.828  0.00  0.00    +0.000 A 
ATOM      5  C   UNL     1      45.084   3.750  11.736  0.00  0.00    +0.000 A 
ATOM      6  N   UNL     1      45.661   2.925  12.624  0.00  0.00    +0.000 NA
ATOM      7  C   UNL     1      46.405   3.486  13.601  0.00  0.00    +0.000 A 
ATOM      8  C   UNL     1      46.667   4.853  13.766  0.00  0.00    +0.000 A 
ATOM      9  C   UNL     1      46.026   5.720  12.844  0.00  0.00    +0.000 A 
ENDROOT
BRANCH   8  10
ATOM     10  C   UNL     1      47.539   5.237  14.882  0.00  0.00    +0.000 C 
ATOM     11  N   UNL     1      47.125   4.881  16.152  0.00  0.00    +0.000 N 
ATOM     12  O   UNL     1      48.576   5.866  14.727  0.00  0.00    +0.000 OA
ATOM     13  H   UNL     1      46.345   4.268  16.347  0.00  0.00    +0.000 HD
ATOM     14  H   UNL     1      47.675   5.199  16.942  0.00  0.00    +0.000 HD
ENDBRANCH   8  10
BRANCH   1  15
ATOM     15  C   UNL     1      46.766   8.166  13.277  0.00  0.00    +0.000 C 
BRANCH  15  19
ATOM     16  C   UNL     1      50.300   9.629  11.170  0.00  0.00    +0.000 A 
ATOM     17  C   UNL     1      50.141   8.264  11.436  0.00  0.00    +0.000 A 
ATOM     18  C   UNL     1      48.984   7.787  12.068  0.00  0.00    +0.000 A 
ATOM     19  C   UNL     1      47.963   8.669  12.466  0.00  0.00    +0.000 A 
ATOM     20  C   UNL     1      48.127  10.038  12.191  0.00  0.00    +0.000 A 
ATOM     21  C   UNL     1      49.277  10.509  11.539  0.00  0.00    +0.000 A 
BRANCH  16  22
ATOM     22  C   UNL     1      51.549  10.132  10.484  0.00  0.00    +0.000 C 
BRANCH  22  23
ATOM     23  C   UNL     1      52.459   8.985  10.029  0.00  0.00    +0.000 C 
BRANCH  23  24
ATOM     24  N   UNL     1      53.689   8.946  10.821  0.00  0.00    +0.000 NA
ATOM     25  H   UNL     1      54.083   8.007  10.782  0.00  0.00    +0.000 HD
ATOM     26  H   UNL     1      53.471   9.121  11.802  0.00  0.00    +0.000 HD
ENDBRANCH  23  24
ENDBRANCH  22  23
ENDBRANCH  16  22
ENDBRANCH  15  19
ENDBRANCH   1  15
TORSDOF 6
ENDMDL
