MODEL 1
REMARK VINA RESULT:    -6.998      0.000      0.000
REMARK INTER + INTRA:          -9.885
REMARK INTER:                  -9.247
REMARK INTRA:                  -0.638
REMARK UNBOUND:                -0.638
REMARK  Name = 
REMARK  6 active torsions:
REMARK  status: ('A' for Active; 'I' for Inactive)
REMARK    1  A    between atoms: N_1  and  C_2
REMARK    2  A    between atoms: C_2  and  C_3
REMARK    3  A    between atoms: C_3  and  C_4
REMARK    4  A    between atoms: C_4  and  C_5
REMARK    5  A    between atoms: C_8  and  C_9
REMARK    6  A    between atoms: C_9  and  N_10
REMARK                            x       y       z     vdW  Elec       q    Type
REMARK                         _______ _______ _______ _____ _____    ______ ____
ROOT
ATOM      1  C   UNL     1      45.291   3.434   8.917  0.00  0.00    +0.000 A 
ATOM      2  C   UNL     1      44.625   2.909  10.032  0.00  0.00    +0.000 A 
ATOM      3  C   UNL     1      44.347   3.717  11.143  0.00  0.00    +0.000 A 
ATOM      4  C   UNL     1      44.717   5.067  11.162  0.00  0.00    +0.000 A 
ATOM      5  C   UNL     1      45.404   5.586  10.058  0.00  0.00    +0.000 A 
ATOM      6  C   UNL     1      45.679   4.778   8.948  0.00  0.00    +0.000 A 
ENDROOT
BRANCH   1   7
ATOM      7  C   UNL     1      45.630   2.563   7.730  0.00  0.00    +0.000 C 
BRANCH   7   8
ATOM      8  C   UNL     1      46.723   3.135   6.815  0.00  0.00    +0.000 C 
BRANCH   8   9
ATOM      9  C   UNL     1      47.979   2.261   6.849  0.00  0.00    +0.000 C 
BRANCH   9  10
ATOM     10  N   UNL     1      48.427   1.946   5.496  0.00  0.00    +0.000 NA
ATOM     11  H   UNL     1      47.715   1.387   5.026  0.00  0.00    +0.000 HD
ATOM     12  H   UNL     1      49.264   1.367   5.535  0.00  0.00    +0.000 HD
ENDBRANCH   9  10
ENDBRANCH   8   9
ENDBRANCH   7   8
ENDBRANCH   1   7
BRANCH   4  13
ATOM     13  C   UNL     1      44.350   5.945  12.335  0.00  0.00    +0.000 C 
BRANCH  13  14
ATOM     14  N   UNL     1      45.182   7.141  12.466  0.00  0.00    +0.000 N 
ATOM     15  C   UNL     1      44.778   8.370  11.981  0.00  0.00    +0.000 A 
ATOM     16  C   UNL     1      45.818   9.249  12.113  0.00  0.00    +0.000 A 
ATOM     17  C   UNL     1      46.977   8.457  12.303  0.00  0.00    +0.000 A 
ATOM     18  C   UNL     1      48.354   8.727  12.164  0.00  0.00    +0.000 A 
ATOM     19  C   UNL     1      49.281   7.731  12.460  0.00  0.00    +0.000 A 
ATOM     20  C   UNL     1      48.857   6.536  13.032  0.00  0.00    +0.000 A 
ATOM     21  C   UNL     1      47.491   6.254  13.196  0.00  0.00    +0.000 A 
ATOM     22 CL   UNL     1      47.065   4.822  14.051  0.00  0.00    +0.000 Cl
ATOM     23  C   UNL     1      46.542   7.173  12.696  0.00  0.00    +0.000 A 
ENDBRANCH  13  14
ENDBRANCH   4  13
TORSDOF 6
ENDMDL
MODEL 2
REMARK VINA RESULT:    -6.333      1.779      2.594
REMARK INTER + INTRA:          -9.007
REMARK INTER:                  -8.405
REMARK INTRA:                  -0.601
REMARK UNBOUND:                -0.638
REMARK  Name = 
REMARK  6 active torsions:
REMARK  status: ('A' for Active; 'I' for Inactive)
REMARK    1  A    between atoms: N_1  and  C_2
REMARK    2  A    between atoms: C_2  and  C_3
REMARK    3  A    between atoms: C_3  and  C_4
REMARK    4  A    between atoms: C_4  and  C_5
REMARK    5  A    between atoms: C_8  and  C_9
REMARK    6  A    between atoms: C_9  and  N_10
REMARK                            x       y       z     vdW  Elec       q    Type
REMARK                         _______ _______ _______ _____ _____    ______ ____
ROOT
ATOM      1  C   UNL     1      45.368   3.781   8.891  0.00  0.00    +0.000 A 
ATOM      2  C   UNL     1      44.963   3.117  10.056  0.00  0.00    +0.000 A 
ATOM      3  C   UNL     1      44.983   3.772  11.295  0.00  0.00    +0.000 A 
ATOM      4  C   UNL     1      45.395   5.107  11.397  0.00  0.00    +0.000 A 
ATOM      5  C   UNL     1      45.823   5.763  10.236  0.00  0.00    +0.000 A 
ATOM      6  C   UNL     1      45.801   5.107   8.999  0.00  0.00    +0.000 A 
ENDROOT
BRANCH   1   7
ATOM      7  C   UNL     1      45.389   3.072   7.557  0.00  0.00    +0.000 C 
BRANCH   7   8
ATOM      8  C   UNL     1      46.506   2.027   7.411  0.00  0.00    +0.000 C 
BRANCH   8   9
ATOM      9  C   UNL     1      47.760   2.650   6.791  0.00  0.00    +0.000 C 
BRANCH   9  10
ATOM     10  N   UNL     1      48.402   1.714   5.873  0.00  0.00    +0.000 NA
ATOM     11  H   UNL     1      47.854   1.652   5.015  0.00  0.00    +0.000 HD
ATOM     12  H   UNL     1      48.401   0.779   6.278  0.00  0.00    +0.000 HD
ENDBRANCH   9  10
ENDBRANCH   8   9
ENDBRANCH   7   8
ENDBRANCH   1   7
BRANCH   4  13
ATOM     13  C   UNL     1      45.344   5.824  12.725  0.00  0.00    +0.000 C 
BRANCH  13  14
ATOM     14  N   UNL     1      46.448   5.489  13.624  0.00  0.00    +0.000 N 
ATOM     15  C   UNL     1      46.364   4.452  14.532  0.00  0.00    +0.000 A 
ATOM     16  C   UNL     1      47.478   4.480  15.326  0.00  0.00    +0.000 A 
ATOM     17  C   UNL     1      48.041   5.770  15.162  0.00  0.00    +0.000 A 
ATOM     18  C   UNL     1      48.956   6.519  15.930  0.00  0.00    +0.000 A 
ATOM     19  C   UNL     1      49.355   7.777  15.486  0.00  0.00    +0.000 A 
ATOM     20  C   UNL     1      48.970   8.223  14.226  0.00  0.00    +0.000 A 
ATOM     21  C   UNL     1      48.071   7.485  13.438  0.00  0.00    +0.000 A 
ATOM     22 CL   UNL     1      47.773   8.035  11.835  0.00  0.00    +0.000 Cl
ATOM     23  C   UNL     1      47.497   6.313  13.978  0.00  0.00    +0.000 A 
ENDBRANCH  13  14
ENDBRANCH   4  13
TORSDOF 6
ENDMDL
MODEL 3
REMARK VINA RESULT:    -5.809      1.907      2.367
REMARK INTER + INTRA:          -8.315
REMARK INTER:                  -7.598
REMARK INTRA:                  -0.717
REMARK UNBOUND:                -0.638
REMARK  Name = 
REMARK  6 active torsions:
REMARK  status: ('A' for Active; 'I' for Inactive)
REMARK    1  A    between atoms: N_1  and  C_2
REMARK    2  A    between atoms: C_2  and  C_3
REMARK    3  A    between atoms: C_3  and  C_4
REMARK    4  A    between atoms: C_4  and  C_5
REMARK    5  A    between atoms: C_8  and  C_9
REMARK    6  A    between atoms: C_9  and  N_10
REMARK                            x       y       z     vdW  Elec       q    Type
REMARK                         _______ _______ _______ _____ _____    ______ ____
ROOT
ATOM      1  C   UNL     1      44.917   4.413   9.122  0.00  0.00    +0.000 A 
ATOM      2  C   UNL     1      43.877   4.437  10.059  0.00  0.00    +0.000 A 
ATOM      3  C   UNL     1      43.925   5.306  11.158  0.00  0.00    +0.000 A 
ATOM      4  C   UNL     1      45.005   6.178  11.339  0.00  0.00    +0.000 A 
ATOM      5  C   UNL     1      46.057   6.138  10.415  0.00  0.00    +0.000 A 
ATOM      6  C   UNL     1      46.006   5.270   9.318  0.00  0.00    +0.000 A 
ENDROOT
BRANCH   1   7
ATOM      7  C   UNL     1      44.895   3.453   7.956  0.00  0.00    +0.000 C 
BRANCH   7   8
ATOM      8  C   UNL     1      46.211   3.383   7.166  0.00  0.00    +0.000 C 
BRANCH   8   9
ATOM      9  C   UNL     1      46.806   1.973   7.218  0.00  0.00    +0.000 C 
BRANCH   9  10
ATOM     10  N   UNL     1      46.191   1.192   8.287  0.00  0.00    +0.000 NA
ATOM     11  H   UNL     1      45.184   1.141   8.132  0.00  0.00    +0.000 HD
ATOM     12  H   UNL     1      46.317   1.668   9.179  0.00  0.00    +0.000 HD
ENDBRANCH   9  10
ENDBRANCH   8   9
ENDBRANCH   7   8
ENDBRANCH   1   7
BRANCH   4  13
ATOM     13  C   UNL     1      45.012   7.160  12.487  0.00  0.00    +0.000 C 
BRANCH  13  14
ATOM     14  N   UNL     1      44.992   8.562  12.070  0.00  0.00    +0.000 N 
ATOM     15  C   UNL     1      44.036   9.054  11.203  0.00  0.00    +0.000 A 
ATOM     16  C   UNL     1      44.364  10.344  10.884  0.00  0.00    +0.000 A 
ATOM     17  C   UNL     1      45.727  10.498  11.238  0.00  0.00    +0.000 A 
ATOM     18  C   UNL     1      46.712  11.435  10.865  0.00  0.00    +0.000 A 
ATOM     19  C   UNL     1      47.987  11.346  11.417  0.00  0.00    +0.000 A 
ATOM     20  C   UNL     1      48.240  10.436  12.437  0.00  0.00    +0.000 A 
ATOM     21  C   UNL     1      47.267   9.504  12.836  0.00  0.00    +0.000 A 
ATOM     22 CL   UNL     1      47.612   8.523  14.208  0.00  0.00    +0.000 Cl
ATOM     23  C   UNL     1      46.045   9.451  12.129  0.00  0.00    +0.000 A 
ENDBRANCH  13  14
ENDBRANCH   4  13
TORSDOF 6
ENDMDL
MODEL 4
REMARK VINA RESULT:    -5.774      1.728      2.793
REMARK INTER + INTRA:          -8.268
REMARK INTER:                  -7.539
REMARK INTRA:                  -0.729
REMARK UNBOUND:                -0.638
REMARK  Name = 
REMARK  6 active torsions:
REMARK  status: ('A' for Active; 'I' for Inactive)
REMARK    1  A    between atoms: N_1  and  C_2
REMARK    2  A    between atoms: C_2  and  C_3
REMARK    3  A    between atoms: C_3  and  C_4
REMARK    4  A    between atoms: C_4  and  C_5
REMARK    5  A    between atoms: C_8  and  C_9
REMARK    6  A    between atoms: C_9  and  N_10
REMARK                            x       y       z     vdW  Elec       q    Type
REMARK                         _______ _______ _______ _____ _____    ______ ____
ROOT
ATOM      1  C   UNL     1      45.191   3.427   9.167  0.00  0.00    +0.000 A 
ATOM      2  C   UNL     1      44.881   3.051  10.479  0.00  0.00    +0.000 A 
ATOM      3  C   UNL     1      44.981   3.973  11.529  0.00  0.00    +0.000 A 
ATOM      4  C   UNL     1      45.380   5.294  11.291  0.00  0.00    +0.000 A 
ATOM      5  C   UNL     1      45.713   5.665   9.982  0.00  0.00    +0.000 A 
ATOM      6  C   UNL     1      45.612   4.741   8.935  0.00  0.00    +0.000 A 
ENDROOT
BRANCH   1   7
ATOM      7  C   UNL     1      45.125   2.430   8.033  0.00  0.00    +0.000 C 
BRANCH   7   8
ATOM      8  C   UNL     1      46.477   1.804   7.660  0.00  0.00    +0.000 C 
BRANCH   8   9
ATOM      9  C   UNL     1      47.013   2.396   6.353  0.00  0.00    +0.000 C 
BRANCH   9  10
ATOM     10  N   UNL     1      48.280   1.774   5.985  0.00  0.00    +0.000 NA
ATOM     11  H   UNL     1      48.821   2.421   5.412  0.00  0.00    +0.000 HD
ATOM     12  H   UNL     1      48.107   0.955   5.404  0.00  0.00    +0.000 HD
ENDBRANCH   9  10
ENDBRANCH   8   9
ENDBRANCH   7   8
ENDBRANCH   1   7
BRANCH   4  13
ATOM     13  C   UNL     1      45.415   6.299  12.419  0.00  0.00    +0.000 C 
BRANCH  13  14
ATOM     14  N   UNL     1      46.246   7.471  12.145  0.00  0.00    +0.000 N 
ATOM     15  C   UNL     1      47.565   7.545  12.549  0.00  0.00    +0.000 A 
ATOM     16  C   UNL     1      48.027   8.806  12.287  0.00  0.00    +0.000 A 
ATOM     17  C   UNL     1      46.877   9.612  12.096  0.00  0.00    +0.000 A 
ATOM     18  C   UNL     1      46.668  11.005  12.135  0.00  0.00    +0.000 A 
ATOM     19  C   UNL     1      45.400  11.516  11.869  0.00  0.00    +0.000 A 
ATOM     20  C   UNL     1      44.391  10.670  11.421  0.00  0.00    +0.000 A 
ATOM     21  C   UNL     1      44.583   9.280  11.359  0.00  0.00    +0.000 A 
ATOM     22 CL   UNL     1      43.336   8.329  10.649  0.00  0.00    +0.000 Cl
ATOM     23  C   UNL     1      45.798   8.739  11.835  0.00  0.00    +0.000 A 
ENDBRANCH  13  14
ENDBRANCH   4  13
TORSDOF 6
ENDMDL
MODEL 5
REMARK VINA RESULT:    -5.394      2.767      7.099
REMARK INTER + INTRA:          -7.765
REMARK INTER:                  -7.267
REMARK INTRA:                  -0.499
REMARK UNBOUND:                -0.638
REMARK  Name = 
REMARK  6 active torsions:
REMARK  status: ('A' for Active; 'I' for Inactive)
REMARK    1  A    between atoms: N_1  and  C_2
REMARK    2  A    between atoms: C_2  and  C_3
REMARK    3  A    between atoms: C_3  and  C_4
REMARK    4  A    between atoms: C_4  and  C_5
REMARK    5  A    between atoms: C_8  and  C_9
REMARK    6  A    between atoms: C_9  and  N_10
REMARK                            x       y       z     vdW  Elec       q    Type
REMARK                         _______ _______ _______ _____ _____    ______ ____
ROOT
ATOM      1  C   UNL     1      48.430   6.523  15.080  0.00  0.00    +0.000 A 
ATOM      2  C   UNL     1      48.333   7.724  14.367  0.00  0.00    +0.000 A 
ATOM      3  C   UNL     1      47.526   7.812  13.225  0.00  0.00    +0.000 A 
ATOM      4  C   UNL     1      46.790   6.709  12.776  0.00  0.00    +0.000 A 
ATOM      5  C   UNL     1      46.905   5.501  13.475  0.00  0.00    +0.000 A 
ATOM      6  C   UNL     1      47.711   5.415  14.617  0.00  0.00    +0.000 A 
ENDROOT
BRANCH   1   7
ATOM      7  C   UNL     1      49.328   6.405  16.290  0.00  0.00    +0.000 C 
BRANCH   7   8
ATOM      8  C   UNL     1      48.835   5.410  17.352  0.00  0.00    +0.000 C 
BRANCH   8   9
ATOM      9  C   UNL     1      47.774   6.051  18.251  0.00  0.00    +0.000 C 
BRANCH   9  10
ATOM     10  N   UNL     1      46.678   5.119  18.501  0.00  0.00    +0.000 NA
ATOM     11  H   UNL     1      45.967   5.231  17.779  0.00  0.00    +0.000 HD
ATOM     12  H   UNL     1      46.225   5.349  19.385  0.00  0.00    +0.000 HD
ENDBRANCH   9  10
ENDBRANCH   8   9
ENDBRANCH   7   8
ENDBRANCH   1   7
BRANCH   4  13
ATOM     13  C   UNL     1      45.868   6.836  11.586  0.00  0.00    +0.000 C 
BRANCH  13  14
ATOM     14  N   UNL     1      44.698   5.961  11.644  0.00  0.00    +0.000 N 
ATOM     15  C   UNL     1      43.805   6.001  12.698  0.00  0.00    +0.000 A 
ATOM     16  C   UNL     1      42.913   4.974  12.548  0.00  0.00    +0.000 A 
ATOM     17  C   UNL     1      43.505   4.074  11.628  0.00  0.00    +0.000 A 
ATOM     18  C   UNL     1      43.267   2.717  11.329  0.00  0.00    +0.000 A 
ATOM     19  C   UNL     1      44.007   2.096  10.327  0.00  0.00    +0.000 A 
ATOM     20  C   UNL     1      44.864   2.847   9.529  0.00  0.00    +0.000 A 
ATOM     21  C   UNL     1      45.103   4.205   9.799  0.00  0.00    +0.000 A 
ATOM     22 CL   UNL     1      46.054   5.091   8.671  0.00  0.00    +0.000 Cl
ATOM     23  C   UNL     1      44.519   4.783  10.947  0.00  0.00    +0.000 A 
ENDBRANCH  13  14
ENDBRANCH   4  13
TORSDOF 6
ENDMDL
MODEL 6
REMARK VINA RESULT:    -5.339      1.958      3.019
REMARK INTER + INTRA:          -7.693
REMARK INTER:                  -7.432
REMARK INTRA:                  -0.262
REMARK UNBOUND:                -0.638
REMARK  Name = 
REMARK  6 active torsions:
REMARK  status: ('A' for Active; 'I' for Inactive)
REMARK    1  A    between atoms: N_1  and  C_2
REMARK    2  A    between atoms: C_2  and  C_3
REMARK    3  A    between atoms: C_3  and  C_4
REMARK    4  A    between atoms: C_4  and  C_5
REMARK    5  A    between atoms: C_8  and  C_9
REMARK    6  A    between atoms: C_9  and  N_10
REMARK                            x       y       z     vdW  Elec       q    Type
REMARK                         _______ _______ _______ _____ _____    ______ ____
ROOT
ATOM      1  C   UNL     1      44.997   4.105  10.900  0.00  0.00    +0.000 A 
ATOM      2  C   UNL     1      45.404   5.324  10.345  0.00  0.00    +0.000 A 
ATOM      3  C   UNL     1      46.029   6.297  11.137  0.00  0.00    +0.000 A 
ATOM      4  C   UNL     1      46.273   6.069  12.497  0.00  0.00    +0.000 A 
ATOM      5  C   UNL     1      45.845   4.860  13.058  0.00  0.00    +0.000 A 
ATOM      6  C   UNL     1      45.221   3.889  12.265  0.00  0.00    +0.000 A 
ENDROOT
BRANCH   1   7
ATOM      7  C   UNL     1      44.286   3.066  10.064  0.00  0.00    +0.000 C 
BRANCH   7   8
ATOM      8  C   UNL     1      45.141   2.465   8.938  0.00  0.00    +0.000 C 
BRANCH   8   9
ATOM      9  C   UNL     1      44.965   3.254   7.638  0.00  0.00    +0.000 C 
BRANCH   9  10
ATOM     10  N   UNL     1      46.220   3.887   7.244  0.00  0.00    +0.000 NA
ATOM     11  H   UNL     1      46.054   4.499   6.445  0.00  0.00    +0.000 HD
ATOM     12  H   UNL     1      46.879   3.177   6.927  0.00  0.00    +0.000 HD
ENDBRANCH   9  10
ENDBRANCH   8   9
ENDBRANCH   7   8
ENDBRANCH   1   7
BRANCH   4  13
ATOM     13  C   UNL     1      47.011   7.095  13.325  0.00  0.00    +0.000 C 
BRANCH  13  14
ATOM     14  N   UNL     1      46.724   8.479  12.949  0.00  0.00    +0.000 N 
ATOM     15  C   UNL     1      45.432   8.935  12.767  0.00  0.00    +0.000 A 
ATOM     16  C   UNL     1      45.490  10.212  12.278  0.00  0.00    +0.000 A 
ATOM     17  C   UNL     1      46.808  10.383  11.787  0.00  0.00    +0.000 A 
ATOM     18  C   UNL     1      47.382  11.307  10.890  0.00  0.00    +0.000 A 
ATOM     19  C   UNL     1      48.746  11.242  10.619  0.00  0.00    +0.000 A 
ATOM     20  C   UNL     1      49.557  10.373  11.342  0.00  0.00    +0.000 A 
ATOM     21  C   UNL     1      49.007   9.456  12.253  0.00  0.00    +0.000 A 
ATOM     22 CL   UNL     1      50.095   8.530  13.213  0.00  0.00    +0.000 Cl
ATOM     23  C   UNL     1      47.602   9.372  12.370  0.00  0.00    +0.000 A 
ENDBRANCH  13  14
ENDBRANCH   4  13
TORSDOF 6
ENDMDL
MODEL 7
REMARK VINA RESULT:    -5.304      3.927      6.271
REMARK INTER + INTRA:          -7.647
REMARK INTER:                  -6.758
REMARK INTRA:                  -0.889
REMARK UNBOUND:                -0.638
REMARK  Name = 
REMARK  6 active torsions:
REMARK  status: ('A' for Active; 'I' for Inactive)
REMARK    1  A    between atoms: N_1  and  C_2
REMARK    2  A    between atoms: C_2  and  C_3
REMARK    3  A    between atoms: C_3  and  C_4
REMARK    4  A    between atoms: C_4  and  C_5
REMARK    5  A    between atoms: C_8  and  C_9
REMARK    6  A    between atoms: C_9  and  N_10
REMARK                            x       y       z     vdW  Elec       q    Type
REMARK                         _______ _______ _______ _____ _____    ______ ____
ROOT
ATOM      1  C   UNL     1      45.688   7.044  12.370  0.00  0.00    +0.000 A 
ATOM      2  C   UNL     1      46.145   8.247  12.922  0.00  0.00    +0.000 A 
ATOM      3  C   UNL     1      47.308   8.278  13.703  0.00  0.00    +0.000 A 
ATOM      4  C   UNL     1      48.047   7.113  13.940  0.00  0.00    +0.000 A 
ATOM      5  C   UNL     1      47.578   5.905  13.407  0.00  0.00    +0.000 A 
ATOM      6  C   UNL     1      46.416   5.877  12.626  0.00  0.00    +0.000 A 
ENDROOT
BRANCH   1   7
ATOM      7  C   UNL     1      44.413   6.993  11.559  0.00  0.00    +0.000 C 
BRANCH   7   8
ATOM      8  C   UNL     1      43.935   5.573  11.220  0.00  0.00    +0.000 C 
BRANCH   8   9
ATOM      9  C   UNL     1      42.568   5.291  11.850  0.00  0.00    +0.000 C 
BRANCH   9  10
ATOM     10  N   UNL     1      42.645   5.367  13.306  0.00  0.00    +0.000 NA
ATOM     11  H   UNL     1      41.850   4.874  13.713  0.00  0.00    +0.000 HD
ATOM     12  H   UNL     1      42.561   6.338  13.605  0.00  0.00    +0.000 HD
ENDBRANCH   9  10
ENDBRANCH   8   9
ENDBRANCH   7   8
ENDBRANCH   1   7
BRANCH   4  13
ATOM     13  C   UNL     1      49.338   7.170  14.723  0.00  0.00    +0.000 C 
BRANCH  13  14
ATOM     14  N   UNL     1      49.169   6.966  16.161  0.00  0.00    +0.000 N 
ATOM     15  C   UNL     1      49.061   5.704  16.714  0.00  0.00    +0.000 A 
ATOM     16  C   UNL     1      48.762   5.838  18.043  0.00  0.00    +0.000 A 
ATOM     17  C   UNL     1      48.294   7.165  18.205  0.00  0.00    +0.000 A 
ATOM     18  C   UNL     1      47.537   7.796  19.214  0.00  0.00    +0.000 A 
ATOM     19  C   UNL     1      47.252   9.155  19.109  0.00  0.00    +0.000 A 
ATOM     20  C   UNL     1      47.837   9.911  18.098  0.00  0.00    +0.000 A 
ATOM     21  C   UNL     1      48.609   9.305  17.093  0.00  0.00    +0.000 A 
ATOM     22 CL   UNL     1      49.419  10.333  15.975  0.00  0.00    +0.000 Cl
ATOM     23  C   UNL     1      48.720   7.897  17.075  0.00  0.00    +0.000 A 
ENDBRANCH  13  14
ENDBRANCH   4  13
TORSDOF 6
ENDMDL
MODEL 8
REMARK VINA RESULT:    -5.230      3.924      5.810
REMARK INTER + INTRA:          -7.549
REMARK INTER:                  -6.740
REMARK INTRA:                  -0.809
REMARK UNBOUND:                -0.638
REMARK  Name = 
REMARK  6 active torsions:
REMARK  status: ('A' for Active; 'I' for Inactive)
REMARK    1  A    between atoms: N_1  and  C_2
REMARK    2  A    between atoms: C_2  and  C_3
REMARK    3  A    between atoms: C_3  and  C_4
REMARK    4  A    between atoms: C_4  and  C_5
REMARK    5  A    between atoms: C_8  and  C_9
REMARK    6  A    between atoms: C_9  and  N_10
REMARK                            x       y       z     vdW  Elec       q    Type
REMARK                         _______ _______ _______ _____ _____    ______ ____
ROOT
ATOM      1  C   UNL     1      46.196   5.981  11.987  0.00  0.00    +0.000 A 
ATOM      2  C   UNL     1      46.266   5.283  13.199  0.00  0.00    +0.000 A 
ATOM      3  C   UNL     1      47.262   5.581  14.139  0.00  0.00    +0.000 A 
ATOM      4  C   UNL     1      48.202   6.590  13.896  0.00  0.00    +0.000 A 
ATOM      5  C   UNL     1      48.147   7.273  12.674  0.00  0.00    +0.000 A 
ATOM      6  C   UNL     1      47.150   6.974  11.737  0.00  0.00    +0.000 A 
ENDROOT
BRANCH   1   7
ATOM      7  C   UNL     1      45.151   5.641  10.950  0.00  0.00    +0.000 C 
BRANCH   7   8
ATOM      8  C   UNL     1      44.105   4.617  11.416  0.00  0.00    +0.000 C 
BRANCH   8   9
ATOM      9  C   UNL     1      42.791   5.309  11.789  0.00  0.00    +0.000 C 
BRANCH   9  10
ATOM     10  N   UNL     1      42.645   5.392  13.239  0.00  0.00    +0.000 NA
ATOM     11  H   UNL     1      41.754   5.834  13.465  0.00  0.00    +0.000 HD
ATOM     12  H   UNL     1      43.368   5.998  13.624  0.00  0.00    +0.000 HD
ENDBRANCH   9  10
ENDBRANCH   8   9
ENDBRANCH   7   8
ENDBRANCH   1   7
BRANCH   4  13
ATOM     13  C   UNL     1      49.226   6.952  14.946  0.00  0.00    +0.000 C 
BRANCH  13  14
ATOM     14  N   UNL     1      48.658   7.580  16.139  0.00  0.00    +0.000 N 
ATOM     15  C   UNL     1      48.376   8.932  16.190  0.00  0.00    +0.000 A 
ATOM     16  C   UNL     1      48.003   9.247  17.469  0.00  0.00    +0.000 A 
ATOM     17  C   UNL     1      48.444   8.173  18.280  0.00  0.00    +0.000 A 
ATOM     18  C   UNL     1      48.667   8.050  19.667  0.00  0.00    +0.000 A 
ATOM     19  C   UNL     1      49.082   6.828  20.189  0.00  0.00    +0.000 A 
ATOM     20  C   UNL     1      49.127   5.703  19.372  0.00  0.00    +0.000 A 
ATOM     21  C   UNL     1      48.892   5.800  17.990  0.00  0.00    +0.000 A 
ATOM     22 CL   UNL     1      48.817   4.337  17.086  0.00  0.00    +0.000 Cl
ATOM     23  C   UNL     1      48.684   7.077  17.423  0.00  0.00    +0.000 A 
ENDBRANCH  13  14
ENDBRANCH   4  13
TORSDOF 6
ENDMDL
MODEL 9
REMARK VINA RESULT:    -5.049      5.480      7.831
REMARK INTER + INTRA:          -7.310
REMARK INTER:                  -6.768
REMARK INTRA:                  -0.542
REMARK UNBOUND:                -0.638
REMARK  Name = 
REMARK  6 active torsions:
REMARK  status: ('A' for Active; 'I' for Inactive)
REMARK    1  A    between atoms: N_1  and  C_2
REMARK    2  A    between atoms: C_2  and  C_3
REMARK    3  A    between atoms: C_3  and  C_4
REMARK    4  A    between atoms: C_4  and  C_5
REMARK    5  A    between atoms: C_8  and  C_9
REMARK    6  A    between atoms: C_9  and  N_10
REMARK                            x       y       z     vdW  Elec       q    Type
REMARK                         _______ _______ _______ _____ _____    ______ ____
ROOT
ATOM      1  C   UNL     1      50.890   2.221  17.417  0.00  0.00    +0.000 A 
ATOM      2  C   UNL     1      49.588   1.998  16.951  0.00  0.00    +0.000 A 
ATOM      3  C   UNL     1      48.708   3.070  16.751  0.00  0.00    +0.000 A 
ATOM      4  C   UNL     1      49.111   4.388  16.999  0.00  0.00    +0.000 A 
ATOM      5  C   UNL     1      50.405   4.609  17.487  0.00  0.00    +0.000 A 
ATOM      6  C   UNL     1      51.283   3.536  17.685  0.00  0.00    +0.000 A 
ENDROOT
BRANCH   1   7
ATOM      7  C   UNL     1      51.834   1.069  17.674  0.00  0.00    +0.000 C 
BRANCH   7   8
ATOM      8  C   UNL     1      53.322   1.448  17.639  0.00  0.00    +0.000 C 
BRANCH   8   9
ATOM      9  C   UNL     1      54.194   0.293  18.139  0.00  0.00    +0.000 C 
BRANCH   9  10
ATOM     10  N   UNL     1      53.365  -0.807  18.623  0.00  0.00    +0.000 NA
ATOM     11  H   UNL     1      52.449  -0.448  18.890  0.00  0.00    +0.000 HD
ATOM     12  H   UNL     1      53.774  -1.200  19.470  0.00  0.00    +0.000 HD
ENDBRANCH   9  10
ENDBRANCH   8   9
ENDBRANCH   7   8
ENDBRANCH   1   7
BRANCH   4  13
ATOM     13  C   UNL     1      48.178   5.541  16.711  0.00  0.00    +0.000 C 
BRANCH  13  14
ATOM     14  N   UNL     1      48.574   6.352  15.561  0.00  0.00    +0.000 N 
ATOM     15  C   UNL     1      49.313   7.511  15.701  0.00  0.00    +0.000 A 
ATOM     16  C   UNL     1      49.395   8.122  14.479  0.00  0.00    +0.000 A 
ATOM     17  C   UNL     1      48.372   7.547  13.686  0.00  0.00    +0.000 A 
ATOM     18  C   UNL     1      47.733   7.963  12.500  0.00  0.00    +0.000 A 
ATOM     19  C   UNL     1      46.761   7.149  11.923  0.00  0.00    +0.000 A 
ATOM     20  C   UNL     1      46.534   5.873  12.429  0.00  0.00    +0.000 A 
ATOM     21  C   UNL     1      47.173   5.433  13.600  0.00  0.00    +0.000 A 
ATOM     22 CL   UNL     1      46.951   3.790  14.064  0.00  0.00    +0.000 Cl
ATOM     23  C   UNL     1      47.996   6.337  14.308  0.00  0.00    +0.000 A 
ENDBRANCH  13  14
ENDBRANCH   4  13
TORSDOF 6
ENDMDL
