MODEL 1
REMARK VINA RESULT:    -8.938      0.000      0.000
REMARK INTER + INTRA:         -14.309
REMARK INTER:                 -12.857
REMARK INTRA:                  -1.452
REMARK UNBOUND:                -1.452
REMARK  Name = 
REMARK  8 active torsions:
REMARK  status: ('A' for Active; 'I' for Inactive)
REMARK    1  A    between atoms: C_2  and  C_4
REMARK    2  A    between atoms: N_8  and  C_9
REMARK    3  A    between atoms: C_9  and  C_10
REMARK    4  A    between atoms: C_10  and  C_11
REMARK    5  A    between atoms: C_10  and  C_13
REMARK    6  A    between atoms: C_11  and  O_12
REMARK    7  A    between atoms: C_17  and  C_18
REMARK    8  A    between atoms: C_21  and  C_22
REMARK                            x       y       z     vdW  Elec       q    Type
REMARK                         _______ _______ _______ _____ _____    ______ ____
ROOT
ATOM      1  C   UNL     1      43.773   5.009  12.220  0.00  0.00    +0.000 C 
ENDROOT
BRANCH   1   2
ATOM      2  C   UNL     1      45.229   5.412  12.486  0.00  0.00    +0.000 A 
ATOM      3  C   UNL     1      45.938   6.204  11.567  0.00  0.00    +0.000 A 
ATOM      4  C   UNL     1      47.238   6.628  11.851  0.00  0.00    +0.000 A 
ATOM      5  C   UNL     1      47.838   6.289  13.058  0.00  0.00    +0.000 A 
ATOM      6  C   UNL     1      47.161   5.521  14.019  0.00  0.00    +0.000 A 
ATOM      7  C   UNL     1      45.873   5.063  13.687  0.00  0.00    +0.000 A 
BRANCH   6   8
ATOM      8  C   UNL     1      47.740   5.280  15.359  0.00  0.00    +0.000 A 
ATOM      9  C   UNL     1      48.636   6.214  15.918  0.00  0.00    +0.000 A 
ATOM     10  C   UNL     1      49.158   6.041  17.201  0.00  0.00    +0.000 A 
ATOM     11  C   UNL     1      48.802   4.929  17.970  0.00  0.00    +0.000 A 
ATOM     12  C   UNL     1      47.905   3.998  17.431  0.00  0.00    +0.000 A 
ATOM     13  C   UNL     1      47.391   4.172  16.140  0.00  0.00    +0.000 A 
BRANCH  11  14
ATOM     14  C   UNL     1      49.369   4.732  19.350  0.00  0.00    +0.000 C 
ATOM     15  F   UNL     1      48.639   3.876  20.122  0.00  0.00    +0.000 F 
ATOM     16  F   UNL     1      50.633   4.230  19.331  0.00  0.00    +0.000 F 
ATOM     17  F   UNL     1      49.437   5.896  20.053  0.00  0.00    +0.000 F 
ENDBRANCH  11  14
ENDBRANCH   6   8
ENDBRANCH   1   2
BRANCH   1  18
ATOM     18  C   UNL     1      43.431   5.066  10.715  0.00  0.00    +0.000 C 
BRANCH  18  23
ATOM     19  C   UNL     1      46.619   2.676   7.515  0.00  0.00    +0.000 A 
ATOM     20  C   UNL     1      46.284   4.021   7.606  0.00  0.00    +0.000 A 
ATOM     21  C   UNL     1      45.261   4.413   8.472  0.00  0.00    +0.000 A 
ATOM     22  C   UNL     1      44.606   3.462   9.247  0.00  0.00    +0.000 A 
ATOM     23  N   UNL     1      43.544   3.754  10.076  0.00  0.00    +0.000 N 
ATOM     24  N   UNL     1      44.935   2.154   9.177  0.00  0.00    +0.000 NA
ATOM     25  C   UNL     1      45.912   1.784   8.306  0.00  0.00    +0.000 A 
ATOM     26  H   UNL     1      43.362   2.922  10.628  0.00  0.00    +0.000 HD
BRANCH  19  28
ATOM     27  N   UNL     1      47.907   2.923   5.474  0.00  0.00    +0.000 N 
ATOM     28  C   UNL     1      47.651   2.171   6.587  0.00  0.00    +0.000 C 
ATOM     29  O   UNL     1      48.270   1.141   6.816  0.00  0.00    +0.000 OA
ATOM     30  H   UNL     1      48.677   2.621   4.890  0.00  0.00    +0.000 HD
ATOM     31  H   UNL     1      47.601   3.882   5.383  0.00  0.00    +0.000 HD
ENDBRANCH  19  28
ENDBRANCH  18  23
ENDBRANCH   1  18
BRANCH   1  32
ATOM     32  C   UNL     1      43.443   3.630  12.832  0.00  0.00    +0.000 C 
BRANCH  32  33
ATOM     33  O   UNL     1      44.385   2.617  12.488  0.00  0.00    +0.000 OA
ATOM     34  H   UNL     1      44.080   2.179  11.676  0.00  0.00    +0.000 HD
ENDBRANCH  32  33
ENDBRANCH   1  32
TORSDOF 8
ENDMDL
MODEL 2
REMARK VINA RESULT:    -8.258      5.826      9.069
REMARK INTER + INTRA:         -13.330
REMARK INTER:                 -12.106
REMARK INTRA:                  -1.224
REMARK UNBOUND:                -1.452
REMARK  Name = 
REMARK  8 active torsions:
REMARK  status: ('A' for Active; 'I' for Inactive)
REMARK    1  A    between atoms: C_2  and  C_4
REMARK    2  A    between atoms: N_8  and  C_9
REMARK    3  A    between atoms: C_9  and  C_10
REMARK    4  A    between atoms: C_10  and  C_11
REMARK    5  A    between atoms: C_10  and  C_13
REMARK    6  A    between atoms: C_11  and  O_12
REMARK    7  A    between atoms: C_17  and  C_18
REMARK    8  A    between atoms: C_21  and  C_22
REMARK                            x       y       z     vdW  Elec       q    Type
REMARK                         _______ _______ _______ _____ _____    ______ ____
ROOT
ATOM      1  C   UNL     1      45.779   7.601  13.024  0.00  0.00    +0.000 C 
ENDROOT
BRANCH   1   2
ATOM      2  C   UNL     1      44.982   6.429  12.436  0.00  0.00    +0.000 A 
ATOM      3  C   UNL     1      43.666   6.169  12.854  0.00  0.00    +0.000 A 
ATOM      4  C   UNL     1      42.922   5.147  12.262  0.00  0.00    +0.000 A 
ATOM      5  C   UNL     1      43.469   4.387  11.234  0.00  0.00    +0.000 A 
ATOM      6  C   UNL     1      44.771   4.625  10.764  0.00  0.00    +0.000 A 
ATOM      7  C   UNL     1      45.517   5.626  11.413  0.00  0.00    +0.000 A 
BRANCH   6   8
ATOM      8  C   UNL     1      45.302   3.917   9.579  0.00  0.00    +0.000 A 
ATOM      9  C   UNL     1      45.897   4.646   8.530  0.00  0.00    +0.000 A 
ATOM     10  C   UNL     1      46.454   4.003   7.423  0.00  0.00    +0.000 A 
ATOM     11  C   UNL     1      46.435   2.609   7.327  0.00  0.00    +0.000 A 
ATOM     12  C   UNL     1      45.857   1.871   8.367  0.00  0.00    +0.000 A 
ATOM     13  C   UNL     1      45.292   2.521   9.471  0.00  0.00    +0.000 A 
BRANCH  11  14
ATOM     14  C   UNL     1      47.026   1.911   6.131  0.00  0.00    +0.000 C 
ATOM     15  F   UNL     1      48.370   2.104   5.997  0.00  0.00    +0.000 F 
ATOM     16  F   UNL     1      46.846   0.563   6.169  0.00  0.00    +0.000 F 
ATOM     17  F   UNL     1      46.473   2.331   4.960  0.00  0.00    +0.000 F 
ENDBRANCH  11  14
ENDBRANCH   6   8
ENDBRANCH   1   2
BRANCH   1  18
ATOM     18  C   UNL     1      47.290   7.288  13.087  0.00  0.00    +0.000 C 
BRANCH  18  23
ATOM     19  C   UNL     1      48.661   4.236  16.950  0.00  0.00    +0.000 A 
ATOM     20  C   UNL     1      47.680   4.068  15.981  0.00  0.00    +0.000 A 
ATOM     21  C   UNL     1      47.388   5.123  15.115  0.00  0.00    +0.000 A 
ATOM     22  C   UNL     1      48.092   6.318  15.214  0.00  0.00    +0.000 A 
ATOM     23  N   UNL     1      47.823   7.429  14.444  0.00  0.00    +0.000 N 
ATOM     24  N   UNL     1      49.059   6.486  16.143  0.00  0.00    +0.000 NA
ATOM     25  C   UNL     1      49.309   5.460  17.000  0.00  0.00    +0.000 A 
ATOM     26  H   UNL     1      48.573   8.093  14.610  0.00  0.00    +0.000 HD
BRANCH  19  28
ATOM     27  N   UNL     1      48.240   3.152  19.080  0.00  0.00    +0.000 N 
ATOM     28  C   UNL     1      48.993   3.191  17.939  0.00  0.00    +0.000 C 
ATOM     29  O   UNL     1      49.885   2.378  17.736  0.00  0.00    +0.000 OA
ATOM     30  H   UNL     1      48.412   2.378  19.709  0.00  0.00    +0.000 HD
ATOM     31  H   UNL     1      47.357   3.636  19.165  0.00  0.00    +0.000 HD
ENDBRANCH  19  28
ENDBRANCH  18  23
ENDBRANCH   1  18
BRANCH   1  32
ATOM     32  C   UNL     1      45.496   8.918  12.269  0.00  0.00    +0.000 C 
BRANCH  32  33
ATOM     33  O   UNL     1      44.494   9.722  12.888  0.00  0.00    +0.000 OA
ATOM     34  H   UNL     1      43.918   9.141  13.414  0.00  0.00    +0.000 HD
ENDBRANCH  32  33
ENDBRANCH   1  32
TORSDOF 8
ENDMDL
MODEL 3
REMARK VINA RESULT:    -7.322      3.942      4.702
REMARK INTER + INTRA:         -11.985
REMARK INTER:                 -10.932
REMARK INTRA:                  -1.053
REMARK UNBOUND:                -1.452
REMARK  Name = 
REMARK  8 active torsions:
REMARK  status: ('A' for Active; 'I' for Inactive)
REMARK    1  A    between atoms: C_2  and  C_4
REMARK    2  A    between atoms: N_8  and  C_9
REMARK    3  A    between atoms: C_9  and  C_10
REMARK    4  A    between atoms: C_10  and  C_11
REMARK    5  A    between atoms: C_10  and  C_13
REMARK    6  A    between atoms: C_11  and  O_12
REMARK    7  A    between atoms: C_17  and  C_18
REMARK    8  A    between atoms: C_21  and  C_22
REMARK                            x       y       z     vdW  Elec       q    Type
REMARK                         _______ _______ _______ _____ _____    ______ ____
ROOT
ATOM      1  C   UNL     1      44.814   5.730  12.142  0.00  0.00    +0.000 C 
ENDROOT
BRANCH   1   2
ATOM      2  C   UNL     1      45.525   7.089  12.146  0.00  0.00    +0.000 A 
ATOM      3  C   UNL     1      44.814   8.275  12.393  0.00  0.00    +0.000 A 
ATOM      4  C   UNL     1      45.479   9.500  12.468  0.00  0.00    +0.000 A 
ATOM      5  C   UNL     1      46.861   9.556  12.321  0.00  0.00    +0.000 A 
ATOM      6  C   UNL     1      47.619   8.396  12.098  0.00  0.00    +0.000 A 
ATOM      7  C   UNL     1      46.918   7.183  11.976  0.00  0.00    +0.000 A 
BRANCH   6   8
ATOM      8  C   UNL     1      49.098   8.434  12.085  0.00  0.00    +0.000 A 
ATOM      9  C   UNL     1      49.794   9.162  13.071  0.00  0.00    +0.000 A 
ATOM     10  C   UNL     1      51.189   9.174  13.116  0.00  0.00    +0.000 A 
ATOM     11  C   UNL     1      51.937   8.459  12.177  0.00  0.00    +0.000 A 
ATOM     12  C   UNL     1      51.259   7.723  11.197  0.00  0.00    +0.000 A 
ATOM     13  C   UNL     1      49.859   7.721  11.151  0.00  0.00    +0.000 A 
BRANCH  11  14
ATOM     14  C   UNL     1      53.441   8.476  12.215  0.00  0.00    +0.000 C 
ATOM     15  F   UNL     1      53.981   7.410  12.874  0.00  0.00    +0.000 F 
ATOM     16  F   UNL     1      53.997   8.465  10.973  0.00  0.00    +0.000 F 
ATOM     17  F   UNL     1      53.931   9.583  12.837  0.00  0.00    +0.000 F 
ENDBRANCH  11  14
ENDBRANCH   6   8
ENDBRANCH   1   2
BRANCH   1  18
ATOM     18  C   UNL     1      43.922   5.557  10.893  0.00  0.00    +0.000 C 
BRANCH  18  23
ATOM     19  C   UNL     1      46.470   2.451   7.735  0.00  0.00    +0.000 A 
ATOM     20  C   UNL     1      46.247   3.820   7.657  0.00  0.00    +0.000 A 
ATOM     21  C   UNL     1      45.380   4.424   8.571  0.00  0.00    +0.000 A 
ATOM     22  C   UNL     1      44.770   3.658   9.558  0.00  0.00    +0.000 A 
ATOM     23  N   UNL     1      43.854   4.161  10.456  0.00  0.00    +0.000 N 
ATOM     24  N   UNL     1      44.993   2.329   9.652  0.00  0.00    +0.000 NA
ATOM     25  C   UNL     1      45.815   1.751   8.735  0.00  0.00    +0.000 A 
ATOM     26  H   UNL     1      43.690   3.437  11.149  0.00  0.00    +0.000 HD
BRANCH  19  28
ATOM     27  N   UNL     1      48.355   2.429   6.206  0.00  0.00    +0.000 N 
ATOM     28  C   UNL     1      47.329   1.727   6.776  0.00  0.00    +0.000 C 
ATOM     29  O   UNL     1      47.149   0.543   6.522  0.00  0.00    +0.000 OA
ATOM     30  H   UNL     1      48.993   1.904   5.622  0.00  0.00    +0.000 HD
ATOM     31  H   UNL     1      48.678   3.314   6.573  0.00  0.00    +0.000 HD
ENDBRANCH  19  28
ENDBRANCH  18  23
ENDBRANCH   1  18
BRANCH   1  32
ATOM     32  C   UNL     1      45.814   4.563  12.300  0.00  0.00    +0.000 C 
BRANCH  32  33
ATOM     33  O   UNL     1      45.235   3.394  12.875  0.00  0.00    +0.000 OA
ATOM     34  H   UNL     1      45.743   2.622  12.574  0.00  0.00    +0.000 HD
ENDBRANCH  32  33
ENDBRANCH   1  32
TORSDOF 8
ENDMDL
MODEL 4
REMARK VINA RESULT:    -7.010      3.677      6.034
REMARK INTER + INTRA:         -11.535
REMARK INTER:                 -10.252
REMARK INTRA:                  -1.284
REMARK UNBOUND:                -1.452
REMARK  Name = 
REMARK  8 active torsions:
REMARK  status: ('A' for Active; 'I' for Inactive)
REMARK    1  A    between atoms: C_2  and  C_4
REMARK    2  A    between atoms: N_8  and  C_9
REMARK    3  A    between atoms: C_9  and  C_10
REMARK    4  A    between atoms: C_10  and  C_11
REMARK    5  A    between atoms: C_10  and  C_13
REMARK    6  A    between atoms: C_11  and  O_12
REMARK    7  A    between atoms: C_17  and  C_18
REMARK    8  A    between atoms: C_21  and  C_22
REMARK                            x       y       z     vdW  Elec       q    Type
REMARK                         _______ _______ _______ _____ _____    ______ ____
ROOT
ATOM      1  C   UNL     1      49.129   7.555  15.636  0.00  0.00    +0.000 C 
ENDROOT
BRANCH   1   2
ATOM      2  C   UNL     1      49.217   6.600  16.833  0.00  0.00    +0.000 A 
ATOM      3  C   UNL     1      48.286   6.670  17.883  0.00  0.00    +0.000 A 
ATOM      4  C   UNL     1      48.328   5.751  18.933  0.00  0.00    +0.000 A 
ATOM      5  C   UNL     1      49.282   4.739  18.940  0.00  0.00    +0.000 A 
ATOM      6  C   UNL     1      50.218   4.611  17.901  0.00  0.00    +0.000 A 
ATOM      7  C   UNL     1      50.186   5.581  16.883  0.00  0.00    +0.000 A 
BRANCH   6   8
ATOM      8  C   UNL     1      51.138   3.455  17.832  0.00  0.00    +0.000 A 
ATOM      9  C   UNL     1      52.477   3.593  18.248  0.00  0.00    +0.000 A 
ATOM     10  C   UNL     1      53.355   2.507  18.243  0.00  0.00    +0.000 A 
ATOM     11  C   UNL     1      52.924   1.246  17.823  0.00  0.00    +0.000 A 
ATOM     12  C   UNL     1      51.593   1.092  17.416  0.00  0.00    +0.000 A 
ATOM     13  C   UNL     1      50.719   2.186  17.415  0.00  0.00    +0.000 A 
BRANCH  11  14
ATOM     14  C   UNL     1      53.868   0.074  17.807  0.00  0.00    +0.000 C 
ATOM     15  F   UNL     1      54.069  -0.446  16.562  0.00  0.00    +0.000 F 
ATOM     16  F   UNL     1      55.103   0.389  18.283  0.00  0.00    +0.000 F 
ATOM     17  F   UNL     1      53.423  -0.960  18.573  0.00  0.00    +0.000 F 
ENDBRANCH  11  14
ENDBRANCH   6   8
ENDBRANCH   1   2
BRANCH   1  18
ATOM     18  C   UNL     1      48.656   6.826  14.359  0.00  0.00    +0.000 C 
BRANCH  18  23
ATOM     19  C   UNL     1      44.871   4.735  11.636  0.00  0.00    +0.000 A 
ATOM     20  C   UNL     1      45.581   5.911  11.426  0.00  0.00    +0.000 A 
ATOM     21  C   UNL     1      46.474   6.353  12.405  0.00  0.00    +0.000 A 
ATOM     22  C   UNL     1      46.660   5.606  13.563  0.00  0.00    +0.000 A 
ATOM     23  N   UNL     1      47.471   6.002  14.605  0.00  0.00    +0.000 N 
ATOM     24  N   UNL     1      45.986   4.453  13.769  0.00  0.00    +0.000 NA
ATOM     25  C   UNL     1      45.097   4.052  12.820  0.00  0.00    +0.000 A 
ATOM     26  H   UNL     1      47.544   5.213  15.239  0.00  0.00    +0.000 HD
BRANCH  19  28
ATOM     27  N   UNL     1      44.022   4.590   9.368  0.00  0.00    +0.000 N 
ATOM     28  C   UNL     1      43.870   4.226  10.677  0.00  0.00    +0.000 C 
ATOM     29  O   UNL     1      42.960   3.489  11.032  0.00  0.00    +0.000 OA
ATOM     30  H   UNL     1      43.387   4.164   8.703  0.00  0.00    +0.000 HD
ATOM     31  H   UNL     1      44.881   4.980   9.008  0.00  0.00    +0.000 HD
ENDBRANCH  19  28
ENDBRANCH  18  23
ENDBRANCH   1  18
BRANCH   1  32
ATOM     32  C   UNL     1      48.253   8.786  15.954  0.00  0.00    +0.000 C 
BRANCH  32  33
ATOM     33  O   UNL     1      47.190   8.980  15.024  0.00  0.00    +0.000 OA
ATOM     34  H   UNL     1      47.015   8.134  14.579  0.00  0.00    +0.000 HD
ENDBRANCH  32  33
ENDBRANCH   1  32
TORSDOF 8
ENDMDL
MODEL 5
REMARK VINA RESULT:    -6.908      5.568      8.503
REMARK INTER + INTRA:         -11.389
REMARK INTER:                  -9.308
REMARK INTRA:                  -2.080
REMARK UNBOUND:                -1.452
REMARK  Name = 
REMARK  8 active torsions:
REMARK  status: ('A' for Active; 'I' for Inactive)
REMARK    1  A    between atoms: C_2  and  C_4
REMARK    2  A    between atoms: N_8  and  C_9
REMARK    3  A    between atoms: C_9  and  C_10
REMARK    4  A    between atoms: C_10  and  C_11
REMARK    5  A    between atoms: C_10  and  C_13
REMARK    6  A    between atoms: C_11  and  O_12
REMARK    7  A    between atoms: C_17  and  C_18
REMARK    8  A    between atoms: C_21  and  C_22
REMARK                            x       y       z     vdW  Elec       q    Type
REMARK                         _______ _______ _______ _____ _____    ______ ____
ROOT
ATOM      1  C   UNL     1      49.043   9.377  16.202  0.00  0.00    +0.000 C 
ENDROOT
BRANCH   1   2
ATOM      2  C   UNL     1      49.119   8.717  14.819  0.00  0.00    +0.000 A 
ATOM      3  C   UNL     1      50.286   8.802  14.042  0.00  0.00    +0.000 A 
ATOM      4  C   UNL     1      50.373   8.138  12.817  0.00  0.00    +0.000 A 
ATOM      5  C   UNL     1      49.311   7.364  12.362  0.00  0.00    +0.000 A 
ATOM      6  C   UNL     1      48.134   7.227  13.115  0.00  0.00    +0.000 A 
ATOM      7  C   UNL     1      48.052   7.948  14.320  0.00  0.00    +0.000 A 
BRANCH   6   8
ATOM      8  C   UNL     1      47.062   6.293  12.705  0.00  0.00    +0.000 A 
ATOM      9  C   UNL     1      46.566   5.343  13.620  0.00  0.00    +0.000 A 
ATOM     10  C   UNL     1      45.520   4.483  13.280  0.00  0.00    +0.000 A 
ATOM     11  C   UNL     1      44.935   4.543  12.012  0.00  0.00    +0.000 A 
ATOM     12  C   UNL     1      45.411   5.488  11.095  0.00  0.00    +0.000 A 
ATOM     13  C   UNL     1      46.466   6.343  11.439  0.00  0.00    +0.000 A 
BRANCH  11  14
ATOM     14  C   UNL     1      43.814   3.612  11.636  0.00  0.00    +0.000 C 
ATOM     15  F   UNL     1      43.966   3.045  10.404  0.00  0.00    +0.000 F 
ATOM     16  F   UNL     1      43.677   2.576  12.507  0.00  0.00    +0.000 F 
ATOM     17  F   UNL     1      42.606   4.240  11.606  0.00  0.00    +0.000 F 
ENDBRANCH  11  14
ENDBRANCH   6   8
ENDBRANCH   1   2
BRANCH   1  18
ATOM     18  C   UNL     1      48.280   8.494  17.214  0.00  0.00    +0.000 C 
BRANCH  18  23
ATOM     19  C   UNL     1      49.798   3.615  17.169  0.00  0.00    +0.000 A 
ATOM     20  C   UNL     1      48.580   4.177  16.805  0.00  0.00    +0.000 A 
ATOM     21  C   UNL     1      48.353   5.532  17.055  0.00  0.00    +0.000 A 
ATOM     22  C   UNL     1      49.348   6.307  17.641  0.00  0.00    +0.000 A 
ATOM     23  N   UNL     1      49.182   7.632  17.981  0.00  0.00    +0.000 N 
ATOM     24  N   UNL     1      50.541   5.773  17.984  0.00  0.00    +0.000 NA
ATOM     25  C   UNL     1      50.735   4.445  17.763  0.00  0.00    +0.000 A 
ATOM     26  H   UNL     1      50.097   7.988  18.241  0.00  0.00    +0.000 HD
BRANCH  19  28
ATOM     27  N   UNL     1      51.006   1.624  17.849  0.00  0.00    +0.000 N 
ATOM     28  C   UNL     1      50.099   2.180  16.990  0.00  0.00    +0.000 C 
ATOM     29  O   UNL     1      49.542   1.511  16.130  0.00  0.00    +0.000 OA
ATOM     30  H   UNL     1      51.139   0.622  17.780  0.00  0.00    +0.000 HD
ATOM     31  H   UNL     1      51.289   2.074  18.708  0.00  0.00    +0.000 HD
ENDBRANCH  19  28
ENDBRANCH  18  23
ENDBRANCH   1  18
BRANCH   1  32
ATOM     32  C   UNL     1      50.443   9.770  16.723  0.00  0.00    +0.000 C 
BRANCH  32  33
ATOM     33  O   UNL     1      50.421  10.356  18.022  0.00  0.00    +0.000 OA
ATOM     34  H   UNL     1      49.641  10.933  18.083  0.00  0.00    +0.000 HD
ENDBRANCH  32  33
ENDBRANCH   1  32
TORSDOF 8
ENDMDL
MODEL 6
REMARK VINA RESULT:    -6.576      6.165      9.299
REMARK INTER + INTRA:         -10.911
REMARK INTER:                  -9.985
REMARK INTRA:                  -0.926
REMARK UNBOUND:                -1.452
REMARK  Name = 
REMARK  8 active torsions:
REMARK  status: ('A' for Active; 'I' for Inactive)
REMARK    1  A    between atoms: C_2  and  C_4
REMARK    2  A    between atoms: N_8  and  C_9
REMARK    3  A    between atoms: C_9  and  C_10
REMARK    4  A    between atoms: C_10  and  C_11
REMARK    5  A    between atoms: C_10  and  C_13
REMARK    6  A    between atoms: C_11  and  O_12
REMARK    7  A    between atoms: C_17  and  C_18
REMARK    8  A    between atoms: C_21  and  C_22
REMARK                            x       y       z     vdW  Elec       q    Type
REMARK                         _______ _______ _______ _____ _____    ______ ____
ROOT
ATOM      1  C   UNL     1      45.024   8.128  12.464  0.00  0.00    +0.000 C 
ENDROOT
BRANCH   1   2
ATOM      2  C   UNL     1      44.579   6.696  12.141  0.00  0.00    +0.000 A 
ATOM      3  C   UNL     1      43.456   6.130  12.769  0.00  0.00    +0.000 A 
ATOM      4  C   UNL     1      43.014   4.854  12.416  0.00  0.00    +0.000 A 
ATOM      5  C   UNL     1      43.669   4.135  11.423  0.00  0.00    +0.000 A 
ATOM      6  C   UNL     1      44.780   4.667  10.749  0.00  0.00    +0.000 A 
ATOM      7  C   UNL     1      45.236   5.933  11.159  0.00  0.00    +0.000 A 
BRANCH   6   8
ATOM      8  C   UNL     1      45.388   3.968   9.596  0.00  0.00    +0.000 A 
ATOM      9  C   UNL     1      45.348   2.561   9.523  0.00  0.00    +0.000 A 
ATOM     10  C   UNL     1      45.867   1.876   8.423  0.00  0.00    +0.000 A 
ATOM     11  C   UNL     1      46.445   2.573   7.359  0.00  0.00    +0.000 A 
ATOM     12  C   UNL     1      46.483   3.972   7.413  0.00  0.00    +0.000 A 
ATOM     13  C   UNL     1      45.969   4.655   8.523  0.00  0.00    +0.000 A 
BRANCH  11  14
ATOM     14  C   UNL     1      47.015   1.839   6.175  0.00  0.00    +0.000 C 
ATOM     15  F   UNL     1      46.841   0.487   6.237  0.00  0.00    +0.000 F 
ATOM     16  F   UNL     1      46.458   2.231   4.997  0.00  0.00    +0.000 F 
ATOM     17  F   UNL     1      48.355   2.034   6.040  0.00  0.00    +0.000 F 
ENDBRANCH  11  14
ENDBRANCH   6   8
ENDBRANCH   1   2
BRANCH   1  18
ATOM     18  C   UNL     1      46.554   8.222  12.649  0.00  0.00    +0.000 C 
BRANCH  18  23
ATOM     19  C   UNL     1      50.838   8.517  15.419  0.00  0.00    +0.000 A 
ATOM     20  C   UNL     1      50.644   8.083  14.113  0.00  0.00    +0.000 A 
ATOM     21  C   UNL     1      49.343   7.949  13.625  0.00  0.00    +0.000 A 
ATOM     22  C   UNL     1      48.260   8.271  14.436  0.00  0.00    +0.000 A 
ATOM     23  N   UNL     1      46.946   8.107  14.055  0.00  0.00    +0.000 N 
ATOM     24  N   UNL     1      48.439   8.709  15.701  0.00  0.00    +0.000 NA
ATOM     25  C   UNL     1      49.711   8.803  16.173  0.00  0.00    +0.000 A 
ATOM     26  H   UNL     1      46.374   8.557  14.762  0.00  0.00    +0.000 HD
BRANCH  19  28
ATOM     27  N   UNL     1      52.912   9.742  15.711  0.00  0.00    +0.000 N 
ATOM     28  C   UNL     1      52.177   8.634  16.031  0.00  0.00    +0.000 C 
ATOM     29  O   UNL     1      52.600   7.792  16.811  0.00  0.00    +0.000 OA
ATOM     30  H   UNL     1      53.788   9.861  16.204  0.00  0.00    +0.000 HD
ATOM     31  H   UNL     1      52.504  10.559  15.279  0.00  0.00    +0.000 HD
ENDBRANCH  19  28
ENDBRANCH  18  23
ENDBRANCH   1  18
BRANCH   1  32
ATOM     32  C   UNL     1      44.508   9.135  11.413  0.00  0.00    +0.000 C 
BRANCH  32  33
ATOM     33  O   UNL     1      43.222   8.804  10.895  0.00  0.00    +0.000 OA
ATOM     34  H   UNL     1      43.312   8.016  10.333  0.00  0.00    +0.000 HD
ENDBRANCH  32  33
ENDBRANCH   1  32
TORSDOF 8
ENDMDL
MODEL 7
REMARK VINA RESULT:    -6.466      5.358      7.932
REMARK INTER + INTRA:         -10.753
REMARK INTER:                  -9.425
REMARK INTRA:                  -1.329
REMARK UNBOUND:                -1.452
REMARK  Name = 
REMARK  8 active torsions:
REMARK  status: ('A' for Active; 'I' for Inactive)
REMARK    1  A    between atoms: C_2  and  C_4
REMARK    2  A    between atoms: N_8  and  C_9
REMARK    3  A    between atoms: C_9  and  C_10
REMARK    4  A    between atoms: C_10  and  C_11
REMARK    5  A    between atoms: C_10  and  C_13
REMARK    6  A    between atoms: C_11  and  O_12
REMARK    7  A    between atoms: C_17  and  C_18
REMARK    8  A    between atoms: C_21  and  C_22
REMARK                            x       y       z     vdW  Elec       q    Type
REMARK                         _______ _______ _______ _____ _____    ______ ____
ROOT
ATOM      1  C   UNL     1      45.835   5.070  11.862  0.00  0.00    +0.000 C 
ENDROOT
BRANCH   1   2
ATOM      2  C   UNL     1      46.290   6.519  12.078  0.00  0.00    +0.000 A 
ATOM      3  C   UNL     1      45.508   7.419  12.821  0.00  0.00    +0.000 A 
ATOM      4  C   UNL     1      45.963   8.714  13.076  0.00  0.00    +0.000 A 
ATOM      5  C   UNL     1      47.209   9.122  12.614  0.00  0.00    +0.000 A 
ATOM      6  C   UNL     1      48.038   8.252  11.888  0.00  0.00    +0.000 A 
ATOM      7  C   UNL     1      47.534   6.970  11.602  0.00  0.00    +0.000 A 
BRANCH   6   8
ATOM      8  C   UNL     1      49.420   8.634  11.521  0.00  0.00    +0.000 A 
ATOM      9  C   UNL     1      49.765   9.994  11.390  0.00  0.00    +0.000 A 
ATOM     10  C   UNL     1      51.071  10.387  11.096  0.00  0.00    +0.000 A 
ATOM     11  C   UNL     1      52.078   9.434  10.921  0.00  0.00    +0.000 A 
ATOM     12  C   UNL     1      51.753   8.079  11.057  0.00  0.00    +0.000 A 
ATOM     13  C   UNL     1      50.438   7.689  11.345  0.00  0.00    +0.000 A 
BRANCH  11  14
ATOM     14  C   UNL     1      53.487   9.852  10.595  0.00  0.00    +0.000 C 
ATOM     15  F   UNL     1      53.562  11.046   9.939  0.00  0.00    +0.000 F 
ATOM     16  F   UNL     1      54.265   9.985  11.702  0.00  0.00    +0.000 F 
ATOM     17  F   UNL     1      54.122   8.951   9.795  0.00  0.00    +0.000 F 
ENDBRANCH  11  14
ENDBRANCH   6   8
ENDBRANCH   1   2
BRANCH   1  18
ATOM     18  C   UNL     1      45.574   4.349  13.202  0.00  0.00    +0.000 C 
BRANCH  18  23
ATOM     19  C   UNL     1      48.512   3.866  17.355  0.00  0.00    +0.000 A 
ATOM     20  C   UNL     1      47.855   4.981  16.848  0.00  0.00    +0.000 A 
ATOM     21  C   UNL     1      47.233   4.897  15.600  0.00  0.00    +0.000 A 
ATOM     22  C   UNL     1      47.257   3.700  14.892  0.00  0.00    +0.000 A 
ATOM     23  N   UNL     1      46.725   3.551  13.629  0.00  0.00    +0.000 N 
ATOM     24  N   UNL     1      47.879   2.607  15.384  0.00  0.00    +0.000 NA
ATOM     25  C   UNL     1      48.508   2.714  16.585  0.00  0.00    +0.000 A 
ATOM     26  H   UNL     1      46.740   2.558  13.417  0.00  0.00    +0.000 HD
BRANCH  19  28
ATOM     27  N   UNL     1      48.563   3.448  19.744  0.00  0.00    +0.000 N 
ATOM     28  C   UNL     1      49.240   3.886  18.640  0.00  0.00    +0.000 C 
ATOM     29  O   UNL     1      50.406   4.251  18.710  0.00  0.00    +0.000 OA
ATOM     30  H   UNL     1      49.096   3.377  20.603  0.00  0.00    +0.000 HD
ATOM     31  H   UNL     1      47.706   2.917  19.682  0.00  0.00    +0.000 HD
ENDBRANCH  19  28
ENDBRANCH  18  23
ENDBRANCH   1  18
BRANCH   1  32
ATOM     32  C   UNL     1      44.614   4.992  10.919  0.00  0.00    +0.000 C 
BRANCH  32  33
ATOM     33  O   UNL     1      44.947   5.167   9.544  0.00  0.00    +0.000 OA
ATOM     34  H   UNL     1      45.913   5.102   9.453  0.00  0.00    +0.000 HD
ENDBRANCH  32  33
ENDBRANCH   1  32
TORSDOF 8
ENDMDL
MODEL 8
REMARK VINA RESULT:    -6.460      6.266      8.577
REMARK INTER + INTRA:         -10.745
REMARK INTER:                  -9.974
REMARK INTRA:                  -0.771
REMARK UNBOUND:                -1.452
REMARK  Name = 
REMARK  8 active torsions:
REMARK  status: ('A' for Active; 'I' for Inactive)
REMARK    1  A    between atoms: C_2  and  C_4
REMARK    2  A    between atoms: N_8  and  C_9
REMARK    3  A    between atoms: C_9  and  C_10
REMARK    4  A    between atoms: C_10  and  C_11
REMARK    5  A    between atoms: C_10  and  C_13
REMARK    6  A    between atoms: C_11  and  O_12
REMARK    7  A    between atoms: C_17  and  C_18
REMARK    8  A    between atoms: C_21  and  C_22
REMARK                            x       y       z     vdW  Elec       q    Type
REMARK                         _______ _______ _______ _____ _____    ______ ____
ROOT
ATOM      1  C   UNL     1      44.431   7.978  12.357  0.00  0.00    +0.000 C 
ENDROOT
BRANCH   1   2
ATOM      2  C   UNL     1      44.299   6.461  12.175  0.00  0.00    +0.000 A 
ATOM      3  C   UNL     1      43.474   5.701  13.020  0.00  0.00    +0.000 A 
ATOM      4  C   UNL     1      43.302   4.333  12.802  0.00  0.00    +0.000 A 
ATOM      5  C   UNL     1      43.931   3.710  11.730  0.00  0.00    +0.000 A 
ATOM      6  C   UNL     1      44.745   4.431  10.843  0.00  0.00    +0.000 A 
ATOM      7  C   UNL     1      44.943   5.797  11.115  0.00  0.00    +0.000 A 
BRANCH   6   8
ATOM      8  C   UNL     1      45.297   3.803   9.622  0.00  0.00    +0.000 A 
ATOM      9  C   UNL     1      45.871   4.604   8.614  0.00  0.00    +0.000 A 
ATOM     10  C   UNL     1      46.447   4.038   7.476  0.00  0.00    +0.000 A 
ATOM     11  C   UNL     1      46.469   2.651   7.305  0.00  0.00    +0.000 A 
ATOM     12  C   UNL     1      45.912   1.842   8.303  0.00  0.00    +0.000 A 
ATOM     13  C   UNL     1      45.328   2.415   9.439  0.00  0.00    +0.000 A 
BRANCH  11  14
ATOM     14  C   UNL     1      47.080   2.036   6.075  0.00  0.00    +0.000 C 
ATOM     15  F   UNL     1      46.603   2.560   4.909  0.00  0.00    +0.000 F 
ATOM     16  F   UNL     1      48.431   2.190   6.027  0.00  0.00    +0.000 F 
ATOM     17  F   UNL     1      46.852   0.696   5.998  0.00  0.00    +0.000 F 
ENDBRANCH  11  14
ENDBRANCH   6   8
ENDBRANCH   1   2
BRANCH   1  18
ATOM     18  C   UNL     1      45.812   8.366  12.928  0.00  0.00    +0.000 C 
BRANCH  18  23
ATOM     19  C   UNL     1      50.621   9.188  11.409  0.00  0.00    +0.000 A 
ATOM     20  C   UNL     1      49.535  10.053  11.449  0.00  0.00    +0.000 A 
ATOM     21  C   UNL     1      48.272   9.548  11.762  0.00  0.00    +0.000 A 
ATOM     22  C   UNL     1      48.116   8.197  12.051  0.00  0.00    +0.000 A 
ATOM     23  N   UNL     1      46.897   7.606  12.305  0.00  0.00    +0.000 N 
ATOM     24  N   UNL     1      49.169   7.350  12.030  0.00  0.00    +0.000 NA
ATOM     25  C   UNL     1      50.388   7.851  11.692  0.00  0.00    +0.000 A 
ATOM     26  H   UNL     1      47.087   6.664  12.631  0.00  0.00    +0.000 HD
BRANCH  19  28
ATOM     27  N   UNL     1      52.702  10.293  11.987  0.00  0.00    +0.000 N 
ATOM     28  C   UNL     1      51.980   9.630  11.034  0.00  0.00    +0.000 C 
ATOM     29  O   UNL     1      52.451   9.389   9.931  0.00  0.00    +0.000 OA
ATOM     30  H   UNL     1      53.663  10.512  11.756  0.00  0.00    +0.000 HD
ATOM     31  H   UNL     1      52.447  10.289  12.965  0.00  0.00    +0.000 HD
ENDBRANCH  19  28
ENDBRANCH  18  23
ENDBRANCH   1  18
BRANCH   1  32
ATOM     32  C   UNL     1      44.114   8.739  11.051  0.00  0.00    +0.000 C 
BRANCH  32  33
ATOM     33  O   UNL     1      44.724  10.025  10.982  0.00  0.00    +0.000 OA
ATOM     34  H   UNL     1      44.022  10.697  10.990  0.00  0.00    +0.000 HD
ENDBRANCH  32  33
ENDBRANCH   1  32
TORSDOF 8
ENDMDL
MODEL 9
REMARK VINA RESULT:    -6.269      5.821      8.771
REMARK INTER + INTRA:         -10.470
REMARK INTER:                  -9.621
REMARK INTRA:                  -0.849
REMARK UNBOUND:                -1.452
REMARK  Name = 
REMARK  8 active torsions:
REMARK  status: ('A' for Active; 'I' for Inactive)
REMARK    1  A    between atoms: C_2  and  C_4
REMARK    2  A    between atoms: N_8  and  C_9
REMARK    3  A    between atoms: C_9  and  C_10
REMARK    4  A    between atoms: C_10  and  C_11
REMARK    5  A    between atoms: C_10  and  C_13
REMARK    6  A    between atoms: C_11  and  O_12
REMARK    7  A    between atoms: C_17  and  C_18
REMARK    8  A    between atoms: C_21  and  C_22
REMARK                            x       y       z     vdW  Elec       q    Type
REMARK                         _______ _______ _______ _____ _____    ______ ____
ROOT
ATOM      1  C   UNL     1      48.871   8.216  16.949  0.00  0.00    +0.000 C 
ENDROOT
BRANCH   1   2
ATOM      2  C   UNL     1      49.053   7.901  15.458  0.00  0.00    +0.000 A 
ATOM      3  C   UNL     1      50.296   8.082  14.829  0.00  0.00    +0.000 A 
ATOM      4  C   UNL     1      50.473   7.725  13.491  0.00  0.00    +0.000 A 
ATOM      5  C   UNL     1      49.424   7.163  12.771  0.00  0.00    +0.000 A 
ATOM      6  C   UNL     1      48.171   6.938  13.363  0.00  0.00    +0.000 A 
ATOM      7  C   UNL     1      48.004   7.355  14.696  0.00  0.00    +0.000 A 
BRANCH   6   8
ATOM      8  C   UNL     1      47.101   6.211  12.646  0.00  0.00    +0.000 A 
ATOM      9  C   UNL     1      46.562   5.029  13.193  0.00  0.00    +0.000 A 
ATOM     10  C   UNL     1      45.517   4.349  12.566  0.00  0.00    +0.000 A 
ATOM     11  C   UNL     1      44.972   4.828  11.371  0.00  0.00    +0.000 A 
ATOM     12  C   UNL     1      45.490   6.007  10.821  0.00  0.00    +0.000 A 
ATOM     13  C   UNL     1      46.545   6.681  11.450  0.00  0.00    +0.000 A 
BRANCH  11  14
ATOM     14  C   UNL     1      43.851   4.095  10.686  0.00  0.00    +0.000 C 
ATOM     15  F   UNL     1      43.776   4.343   9.346  0.00  0.00    +0.000 F 
ATOM     16  F   UNL     1      43.956   2.744  10.808  0.00  0.00    +0.000 F 
ATOM     17  F   UNL     1      42.631   4.424  11.192  0.00  0.00    +0.000 F 
ENDBRANCH  11  14
ENDBRANCH   6   8
ENDBRANCH   1   2
BRANCH   1  18
ATOM     18  C   UNL     1      48.643   6.933  17.779  0.00  0.00    +0.000 C 
BRANCH  18  23
ATOM     19  C   UNL     1      51.296   2.572  17.554  0.00  0.00    +0.000 A 
ATOM     20  C   UNL     1      51.687   3.837  17.977  0.00  0.00    +0.000 A 
ATOM     21  C   UNL     1      50.817   4.915  17.797  0.00  0.00    +0.000 A 
ATOM     22  C   UNL     1      49.569   4.711  17.221  0.00  0.00    +0.000 A 
ATOM     23  N   UNL     1      48.679   5.728  16.948  0.00  0.00    +0.000 N 
ATOM     24  N   UNL     1      49.174   3.483  16.820  0.00  0.00    +0.000 NA
ATOM     25  C   UNL     1      50.044   2.449  16.973  0.00  0.00    +0.000 A 
ATOM     26  H   UNL     1      47.803   5.291  16.679  0.00  0.00    +0.000 HD
BRANCH  19  28
ATOM     27  N   UNL     1      51.600   0.223  18.078  0.00  0.00    +0.000 N 
ATOM     28  C   UNL     1      52.175   1.390  17.657  0.00  0.00    +0.000 C 
ATOM     29  O   UNL     1      53.360   1.444  17.354  0.00  0.00    +0.000 OA
ATOM     30  H   UNL     1      52.186  -0.603  18.058  0.00  0.00    +0.000 HD
ATOM     31  H   UNL     1      50.599   0.085  18.095  0.00  0.00    +0.000 HD
ENDBRANCH  19  28
ENDBRANCH  18  23
ENDBRANCH   1  18
BRANCH   1  32
ATOM     32  C   UNL     1      50.043   9.057  17.500  0.00  0.00    +0.000 C 
BRANCH  32  33
ATOM     33  O   UNL     1      50.824   8.369  18.475  0.00  0.00    +0.000 OA
ATOM     34  H   UNL     1      51.052   8.996  19.182  0.00  0.00    +0.000 HD
ENDBRANCH  32  33
ENDBRANCH   1  32
TORSDOF 8
ENDMDL
