MODEL 1
REMARK VINA RESULT:    -7.719      0.000      0.000
REMARK INTER + INTRA:         -11.979
REMARK INTER:                 -10.877
REMARK INTRA:                  -1.102
REMARK UNBOUND:                -1.102
REMARK  Name = 
REMARK  7 active torsions:
REMARK  status: ('A' for Active; 'I' for Inactive)
REMARK    1  A    between atoms: C_2  and  C_19
REMARK    2  A    between atoms: N_3  and  C_4
REMARK    3  A    between atoms: C_4  and  C_5
REMARK    4  A    between atoms: C_8  and  C_9
REMARK    5  A    between atoms: C_9  and  N_10
REMARK    6  A    between atoms: N_10  and  C_11
REMARK    7  A    between atoms: C_11  and  C_12
REMARK                            x       y       z     vdW  Elec       q    Type
REMARK                         _______ _______ _______ _____ _____    ______ ____
ROOT
ATOM      1  C   UNL     1      47.050   7.849  13.274  0.00  0.00    +0.000 C 
ENDROOT
BRANCH   1   2
ATOM      2  C   UNL     1      46.212   6.964  12.399  0.00  0.00    +0.000 A 
ATOM      3  C   UNL     1      46.591   6.694  11.085  0.00  0.00    +0.000 A 
ATOM      4  C   UNL     1      45.828   5.824  10.310  0.00  0.00    +0.000 A 
ATOM      5  C   UNL     1      44.684   5.253  10.863  0.00  0.00    +0.000 A 
ATOM      6  N   UNL     1      44.265   5.539  12.124  0.00  0.00    +0.000 NA
ATOM      7  C   UNL     1      45.031   6.388  12.853  0.00  0.00    +0.000 A 
BRANCH   5   8
ATOM      8  C   UNL     1      43.865   4.264  10.049  0.00  0.00    +0.000 C 
BRANCH   8   9
ATOM      9  N   UNL     1      44.179   4.234   8.611  0.00  0.00    +0.000 NA
ATOM     10  H   UNL     1      44.888   4.957   8.453  0.00  0.00    +0.000 HD
BRANCH   9  11
ATOM     11  C   UNL     1      44.740   2.939   8.193  0.00  0.00    +0.000 C 
BRANCH  11  12
ATOM     12  C   UNL     1      46.284   3.023   8.093  0.00  0.00    +0.000 C 
ATOM     13  C   UNL     1      46.917   1.751   7.554  0.00  0.00    +0.000 C 
ATOM     14  C   UNL     1      46.901   1.933   6.048  0.00  0.00    +0.000 C 
ATOM     15  C   UNL     1      46.848   3.439   5.830  0.00  0.00    +0.000 C 
ATOM     16  N   UNL     1      46.745   4.058   7.152  0.00  0.00    +0.000 NA
ATOM     17  H   UNL     1      46.054   4.813   7.144  0.00  0.00    +0.000 HD
ENDBRANCH  11  12
ENDBRANCH   9  11
ENDBRANCH   8   9
ENDBRANCH   5   8
ENDBRANCH   1   2
BRANCH   1  20
ATOM     18  O   UNL     1      49.665   6.984  13.932  0.00  0.00    +0.000 OA
ATOM     19  C   UNL     1      48.758   6.830  14.745  0.00  0.00    +0.000 C 
ATOM     20  N   UNL     1      47.461   7.179  14.478  0.00  0.00    +0.000 N 
ATOM     21  H   UNL     1      46.787   7.179  15.235  0.00  0.00    +0.000 HD
BRANCH  19  22
ATOM     22  C   UNL     1      48.996   6.210  16.056  0.00  0.00    +0.000 A 
ATOM     23  C   UNL     1      49.915   6.767  16.935  0.00  0.00    +0.000 A 
ATOM     24  S   UNL     1      50.078   5.898  18.394  0.00  0.00    +0.000 S 
ATOM     25  C   UNL     1      48.892   4.772  17.923  0.00  0.00    +0.000 A 
ATOM     26  N   UNL     1      48.523   3.754  18.745  0.00  0.00    +0.000 NA
ATOM     27  C   UNL     1      47.584   3.001  18.277  0.00  0.00    +0.000 A 
ATOM     28  N   UNL     1      46.987   3.166  17.054  0.00  0.00    +0.000 N 
ATOM     29  C   UNL     1      47.380   4.132  16.162  0.00  0.00    +0.000 A 
ATOM     30  O   UNL     1      46.917   4.165  15.025  0.00  0.00    +0.000 OA
ATOM     31  C   UNL     1      48.398   5.039  16.657  0.00  0.00    +0.000 A 
ATOM     32  H   UNL     1      46.279   2.523  16.731  0.00  0.00    +0.000 HD
ENDBRANCH  19  22
ENDBRANCH   1  20
TORSDOF 7
ENDMDL
MODEL 2
REMARK VINA RESULT:    -7.139      4.197      9.217
REMARK INTER + INTRA:         -11.162
REMARK INTER:                 -10.341
REMARK INTRA:                  -0.822
REMARK UNBOUND:                -1.102
REMARK  Name = 
REMARK  7 active torsions:
REMARK  status: ('A' for Active; 'I' for Inactive)
REMARK    1  A    between atoms: C_2  and  C_19
REMARK    2  A    between atoms: N_3  and  C_4
REMARK    3  A    between atoms: C_4  and  C_5
REMARK    4  A    between atoms: C_8  and  C_9
REMARK    5  A    between atoms: C_9  and  N_10
REMARK    6  A    between atoms: N_10  and  C_11
REMARK    7  A    between atoms: C_11  and  C_12
REMARK                            x       y       z     vdW  Elec       q    Type
REMARK                         _______ _______ _______ _____ _____    ______ ____
ROOT
ATOM      1  C   UNL     1      47.135   3.508  16.830  0.00  0.00    +0.000 C 
ENDROOT
BRANCH   1   2
ATOM      2  C   UNL     1      48.610   3.523  17.106  0.00  0.00    +0.000 A 
ATOM      3  C   UNL     1      49.263   4.708  17.441  0.00  0.00    +0.000 A 
ATOM      4  C   UNL     1      50.620   4.688  17.748  0.00  0.00    +0.000 A 
ATOM      5  C   UNL     1      51.307   3.477  17.695  0.00  0.00    +0.000 A 
ATOM      6  N   UNL     1      50.707   2.316  17.321  0.00  0.00    +0.000 NA
ATOM      7  C   UNL     1      49.383   2.369  17.032  0.00  0.00    +0.000 A 
BRANCH   5   8
ATOM      8  C   UNL     1      52.778   3.427  18.072  0.00  0.00    +0.000 C 
BRANCH   8   9
ATOM      9  N   UNL     1      53.148   2.331  18.984  0.00  0.00    +0.000 NA
ATOM     10  H   UNL     1      52.311   1.752  19.096  0.00  0.00    +0.000 HD
BRANCH   9  11
ATOM     11  C   UNL     1      54.221   1.489  18.433  0.00  0.00    +0.000 C 
BRANCH  11  12
ATOM     12  C   UNL     1      53.624   0.287  17.657  0.00  0.00    +0.000 C 
ATOM     13  C   UNL     1      54.656  -0.461  16.829  0.00  0.00    +0.000 C 
ATOM     14  C   UNL     1      55.236  -1.484  17.788  0.00  0.00    +0.000 C 
ATOM     15  C   UNL     1      54.163  -1.689  18.848  0.00  0.00    +0.000 C 
ATOM     16  N   UNL     1      53.078  -0.755  18.543  0.00  0.00    +0.000 NA
ATOM     17  H   UNL     1      52.741  -0.304  19.398  0.00  0.00    +0.000 HD
ENDBRANCH  11  12
ENDBRANCH   9  11
ENDBRANCH   8   9
ENDBRANCH   5   8
ENDBRANCH   1   2
BRANCH   1  20
ATOM     18  O   UNL     1      47.275   3.111  14.029  0.00  0.00    +0.000 OA
ATOM     19  C   UNL     1      46.825   4.166  14.466  0.00  0.00    +0.000 C 
ATOM     20  N   UNL     1      46.771   4.448  15.805  0.00  0.00    +0.000 N 
ATOM     21  H   UNL     1      46.248   5.258  16.116  0.00  0.00    +0.000 HD
BRANCH  19  22
ATOM     22  C   UNL     1      46.351   5.231  13.570  0.00  0.00    +0.000 A 
ATOM     23  C   UNL     1      47.169   6.316  13.283  0.00  0.00    +0.000 A 
ATOM     24  S   UNL     1      46.443   7.463  12.249  0.00  0.00    +0.000 S 
ATOM     25  C   UNL     1      45.027   6.527  12.110  0.00  0.00    +0.000 A 
ATOM     26  N   UNL     1      43.990   6.933  11.331  0.00  0.00    +0.000 NA
ATOM     27  C   UNL     1      42.998   6.108  11.286  0.00  0.00    +0.000 A 
ATOM     28  N   UNL     1      42.945   4.915  11.960  0.00  0.00    +0.000 N 
ATOM     29  C   UNL     1      43.934   4.502  12.815  0.00  0.00    +0.000 A 
ATOM     30  O   UNL     1      43.792   3.496  13.505  0.00  0.00    +0.000 OA
ATOM     31  C   UNL     1      45.097   5.369  12.865  0.00  0.00    +0.000 A 
ATOM     32  H   UNL     1      42.126   4.327  11.909  0.00  0.00    +0.000 HD
ENDBRANCH  19  22
ENDBRANCH   1  20
TORSDOF 7
ENDMDL
MODEL 3
REMARK VINA RESULT:    -6.744      2.830      3.980
REMARK INTER + INTRA:         -10.606
REMARK INTER:                  -9.733
REMARK INTRA:                  -0.873
REMARK UNBOUND:                -1.102
REMARK  Name = 
REMARK  7 active torsions:
REMARK  status: ('A' for Active; 'I' for Inactive)
REMARK    1  A    between atoms: C_2  and  C_19
REMARK    2  A    between atoms: N_3  and  C_4
REMARK    3  A    between atoms: C_4  and  C_5
REMARK    4  A    between atoms: C_8  and  C_9
REMARK    5  A    between atoms: C_9  and  N_10
REMARK    6  A    between atoms: N_10  and  C_11
REMARK    7  A    between atoms: C_11  and  C_12
REMARK                            x       y       z     vdW  Elec       q    Type
REMARK                         _______ _______ _______ _____ _____    ______ ____
ROOT
ATOM      1  C   UNL     1      47.300   4.103  16.363  0.00  0.00    +0.000 C 
ENDROOT
BRANCH   1   2
ATOM      2  C   UNL     1      47.091   4.686  14.996  0.00  0.00    +0.000 A 
ATOM      3  C   UNL     1      46.245   4.066  14.076  0.00  0.00    +0.000 A 
ATOM      4  C   UNL     1      46.022   4.656  12.835  0.00  0.00    +0.000 A 
ATOM      5  C   UNL     1      46.668   5.851  12.529  0.00  0.00    +0.000 A 
ATOM      6  N   UNL     1      47.537   6.449  13.386  0.00  0.00    +0.000 NA
ATOM      7  C   UNL     1      47.730   5.851  14.589  0.00  0.00    +0.000 A 
BRANCH   5   8
ATOM      8  C   UNL     1      46.400   6.534  11.198  0.00  0.00    +0.000 C 
BRANCH   8   9
ATOM      9  N   UNL     1      45.267   5.984  10.435  0.00  0.00    +0.000 NA
ATOM     10  H   UNL     1      44.725   6.786  10.101  0.00  0.00    +0.000 HD
BRANCH   9  11
ATOM     11  C   UNL     1      45.710   5.207   9.267  0.00  0.00    +0.000 C 
BRANCH  11  12
ATOM     12  C   UNL     1      44.544   4.346   8.716  0.00  0.00    +0.000 C 
ATOM     13  C   UNL     1      45.019   3.115   7.960  0.00  0.00    +0.000 C 
ATOM     14  C   UNL     1      45.176   2.054   9.033  0.00  0.00    +0.000 C 
ATOM     15  C   UNL     1      44.257   2.493  10.165  0.00  0.00    +0.000 C 
ATOM     16  N   UNL     1      43.691   3.786   9.777  0.00  0.00    +0.000 NA
ATOM     17  H   UNL     1      43.698   4.435  10.568  0.00  0.00    +0.000 HD
ENDBRANCH  11  12
ENDBRANCH   9  11
ENDBRANCH   8   9
ENDBRANCH   5   8
ENDBRANCH   1   2
BRANCH   1  20
ATOM     18  O   UNL     1      48.633   5.151  18.631  0.00  0.00    +0.000 OA
ATOM     19  C   UNL     1      49.261   4.471  17.825  0.00  0.00    +0.000 C 
ATOM     20  N   UNL     1      48.696   3.972  16.682  0.00  0.00    +0.000 N 
ATOM     21  H   UNL     1      49.211   3.290  16.137  0.00  0.00    +0.000 HD
BRANCH  19  22
ATOM     22  C   UNL     1      50.692   4.182  18.009  0.00  0.00    +0.000 A 
ATOM     23  C   UNL     1      51.539   5.157  18.518  0.00  0.00    +0.000 A 
ATOM     24  S   UNL     1      53.165   4.652  18.637  0.00  0.00    +0.000 S 
ATOM     25  C   UNL     1      52.785   3.098  18.056  0.00  0.00    +0.000 A 
ATOM     26  N   UNL     1      53.742   2.140  17.933  0.00  0.00    +0.000 NA
ATOM     27  C   UNL     1      53.306   0.997  17.519  0.00  0.00    +0.000 A 
ATOM     28  N   UNL     1      52.000   0.727  17.206  0.00  0.00    +0.000 N 
ATOM     29  C   UNL     1      51.016   1.683  17.242  0.00  0.00    +0.000 A 
ATOM     30  O   UNL     1      49.886   1.441  16.826  0.00  0.00    +0.000 OA
ATOM     31  C   UNL     1      51.441   2.975  17.749  0.00  0.00    +0.000 A 
ATOM     32  H   UNL     1      51.727  -0.180  16.857  0.00  0.00    +0.000 HD
ENDBRANCH  19  22
ENDBRANCH   1  20
TORSDOF 7
ENDMDL
MODEL 4
REMARK VINA RESULT:    -6.694      2.199      3.822
REMARK INTER + INTRA:         -10.536
REMARK INTER:                  -9.486
REMARK INTRA:                  -1.049
REMARK UNBOUND:                -1.102
REMARK  Name = 
REMARK  7 active torsions:
REMARK  status: ('A' for Active; 'I' for Inactive)
REMARK    1  A    between atoms: C_2  and  C_19
REMARK    2  A    between atoms: N_3  and  C_4
REMARK    3  A    between atoms: C_4  and  C_5
REMARK    4  A    between atoms: C_8  and  C_9
REMARK    5  A    between atoms: C_9  and  N_10
REMARK    6  A    between atoms: N_10  and  C_11
REMARK    7  A    between atoms: C_11  and  C_12
REMARK                            x       y       z     vdW  Elec       q    Type
REMARK                         _______ _______ _______ _____ _____    ______ ____
ROOT
ATOM      1  C   UNL     1      47.052   4.596  14.858  0.00  0.00    +0.000 C 
ENDROOT
BRANCH   1   2
ATOM      2  C   UNL     1      46.291   4.520  13.567  0.00  0.00    +0.000 A 
ATOM      3  C   UNL     1      45.948   3.288  13.011  0.00  0.00    +0.000 A 
ATOM      4  C   UNL     1      45.192   3.242  11.843  0.00  0.00    +0.000 A 
ATOM      5  C   UNL     1      44.809   4.437  11.239  0.00  0.00    +0.000 A 
ATOM      6  N   UNL     1      45.174   5.650  11.730  0.00  0.00    +0.000 NA
ATOM      7  C   UNL     1      45.907   5.661  12.872  0.00  0.00    +0.000 A 
BRANCH   5   8
ATOM      8  C   UNL     1      43.945   4.407   9.989  0.00  0.00    +0.000 C 
BRANCH   8   9
ATOM      9  N   UNL     1      44.021   3.160   9.211  0.00  0.00    +0.000 NA
ATOM     10  H   UNL     1      43.057   2.837   9.085  0.00  0.00    +0.000 HD
BRANCH   9  11
ATOM     11  C   UNL     1      44.614   3.370   7.881  0.00  0.00    +0.000 C 
BRANCH  11  12
ATOM     12  C   UNL     1      46.161   3.315   7.963  0.00  0.00    +0.000 C 
ATOM     13  C   UNL     1      46.718   1.914   7.767  0.00  0.00    +0.000 C 
ATOM     14  C   UNL     1      46.883   1.782   6.265  0.00  0.00    +0.000 C 
ATOM     15  C   UNL     1      47.006   3.210   5.751  0.00  0.00    +0.000 C 
ATOM     16  N   UNL     1      46.822   4.095   6.903  0.00  0.00    +0.000 NA
ATOM     17  H   UNL     1      46.215   4.882   6.659  0.00  0.00    +0.000 HD
ENDBRANCH  11  12
ENDBRANCH   9  11
ENDBRANCH   8   9
ENDBRANCH   5   8
ENDBRANCH   1   2
BRANCH   1  20
ATOM     18  O   UNL     1      49.286   5.229  16.480  0.00  0.00    +0.000 OA
ATOM     19  C   UNL     1      48.743   6.118  15.830  0.00  0.00    +0.000 C 
ATOM     20  N   UNL     1      47.630   5.897  15.063  0.00  0.00    +0.000 N 
ATOM     21  H   UNL     1      47.320   6.623  14.427  0.00  0.00    +0.000 HD
BRANCH  19  22
ATOM     22  C   UNL     1      49.226   7.506  15.869  0.00  0.00    +0.000 A 
ATOM     23  C   UNL     1      49.306   8.182  17.079  0.00  0.00    +0.000 A 
ATOM     24  S   UNL     1      49.862   9.788  16.927  0.00  0.00    +0.000 S 
ATOM     25  C   UNL     1      50.059   9.622  15.245  0.00  0.00    +0.000 A 
ATOM     26  N   UNL     1      50.539  10.645  14.489  0.00  0.00    +0.000 NA
ATOM     27  C   UNL     1      50.676  10.367  13.236  0.00  0.00    +0.000 A 
ATOM     28  N   UNL     1      50.366   9.160  12.666  0.00  0.00    +0.000 N 
ATOM     29  C   UNL     1      49.810   8.126  13.376  0.00  0.00    +0.000 A 
ATOM     30  O   UNL     1      49.419   7.109  12.808  0.00  0.00    +0.000 OA
ATOM     31  C   UNL     1      49.680   8.367  14.801  0.00  0.00    +0.000 A 
ATOM     32  H   UNL     1      50.466   9.014  11.672  0.00  0.00    +0.000 HD
ENDBRANCH  19  22
ENDBRANCH   1  20
TORSDOF 7
ENDMDL
MODEL 5
REMARK VINA RESULT:    -6.650      2.879      8.359
REMARK INTER + INTRA:         -10.473
REMARK INTER:                  -9.413
REMARK INTRA:                  -1.060
REMARK UNBOUND:                -1.102
REMARK  Name = 
REMARK  7 active torsions:
REMARK  status: ('A' for Active; 'I' for Inactive)
REMARK    1  A    between atoms: C_2  and  C_19
REMARK    2  A    between atoms: N_3  and  C_4
REMARK    3  A    between atoms: C_4  and  C_5
REMARK    4  A    between atoms: C_8  and  C_9
REMARK    5  A    between atoms: C_9  and  N_10
REMARK    6  A    between atoms: N_10  and  C_11
REMARK    7  A    between atoms: C_11  and  C_12
REMARK                            x       y       z     vdW  Elec       q    Type
REMARK                         _______ _______ _______ _____ _____    ______ ____
ROOT
ATOM      1  C   UNL     1      47.147   7.898  12.407  0.00  0.00    +0.000 C 
ENDROOT
BRANCH   1   2
ATOM      2  C   UNL     1      47.970   7.834  13.660  0.00  0.00    +0.000 A 
ATOM      3  C   UNL     1      47.896   8.845  14.617  0.00  0.00    +0.000 A 
ATOM      4  C   UNL     1      48.625   8.735  15.798  0.00  0.00    +0.000 A 
ATOM      5  C   UNL     1      49.434   7.618  15.990  0.00  0.00    +0.000 A 
ATOM      6  N   UNL     1      49.565   6.644  15.052  0.00  0.00    +0.000 NA
ATOM      7  C   UNL     1      48.838   6.778  13.915  0.00  0.00    +0.000 A 
BRANCH   5   8
ATOM      8  C   UNL     1      50.201   7.458  17.293  0.00  0.00    +0.000 C 
BRANCH   8   9
ATOM      9  N   UNL     1      49.472   6.751  18.359  0.00  0.00    +0.000 NA
ATOM     10  H   UNL     1      48.479   6.801  18.114  0.00  0.00    +0.000 HD
BRANCH   9  11
ATOM     11  C   UNL     1      49.855   5.332  18.446  0.00  0.00    +0.000 C 
BRANCH  11  12
ATOM     12  C   UNL     1      48.615   4.454  18.753  0.00  0.00    +0.000 C 
ATOM     13  C   UNL     1      47.401   4.824  17.917  0.00  0.00    +0.000 C 
ATOM     14  C   UNL     1      47.555   4.005  16.649  0.00  0.00    +0.000 C 
ATOM     15  C   UNL     1      48.434   2.825  17.042  0.00  0.00    +0.000 C 
ATOM     16  N   UNL     1      48.826   3.031  18.437  0.00  0.00    +0.000 NA
ATOM     17  H   UNL     1      49.818   2.818  18.569  0.00  0.00    +0.000 HD
ENDBRANCH  11  12
ENDBRANCH   9  11
ENDBRANCH   8   9
ENDBRANCH   5   8
ENDBRANCH   1   2
BRANCH   1  20
ATOM     18  O   UNL     1      44.507   7.601  11.426  0.00  0.00    +0.000 OA
ATOM     19  C   UNL     1      45.186   6.601  11.638  0.00  0.00    +0.000 C 
ATOM     20  N   UNL     1      46.451   6.665  12.158  0.00  0.00    +0.000 N 
ATOM     21  H   UNL     1      47.022   5.827  12.164  0.00  0.00    +0.000 HD
BRANCH  19  22
ATOM     22  C   UNL     1      44.663   5.248  11.393  0.00  0.00    +0.000 A 
ATOM     23  C   UNL     1      43.877   4.621  12.350  0.00  0.00    +0.000 A 
ATOM     24  S   UNL     1      43.385   3.049  11.904  0.00  0.00    +0.000 S 
ATOM     25  C   UNL     1      44.167   3.169  10.397  0.00  0.00    +0.000 A 
ATOM     26  N   UNL     1      44.115   2.154   9.495  0.00  0.00    +0.000 NA
ATOM     27  C   UNL     1      44.717   2.397   8.379  0.00  0.00    +0.000 A 
ATOM     28  N   UNL     1      45.377   3.561   8.086  0.00  0.00    +0.000 N 
ATOM     29  C   UNL     1      45.519   4.581   8.992  0.00  0.00    +0.000 A 
ATOM     30  O   UNL     1      46.231   5.551   8.744  0.00  0.00    +0.000 OA
ATOM     31  C   UNL     1      44.818   4.382  10.247  0.00  0.00    +0.000 A 
ATOM     32  H   UNL     1      45.857   3.679   7.205  0.00  0.00    +0.000 HD
ENDBRANCH  19  22
ENDBRANCH   1  20
TORSDOF 7
ENDMDL
MODEL 6
REMARK VINA RESULT:    -6.648      1.948      3.350
REMARK INTER + INTRA:         -10.470
REMARK INTER:                  -9.463
REMARK INTRA:                  -1.007
REMARK UNBOUND:                -1.102
REMARK  Name = 
REMARK  7 active torsions:
REMARK  status: ('A' for Active; 'I' for Inactive)
REMARK    1  A    between atoms: C_2  and  C_19
REMARK    2  A    between atoms: N_3  and  C_4
REMARK    3  A    between atoms: C_4  and  C_5
REMARK    4  A    between atoms: C_8  and  C_9
REMARK    5  A    between atoms: C_9  and  N_10
REMARK    6  A    between atoms: N_10  and  C_11
REMARK    7  A    between atoms: C_11  and  C_12
REMARK                            x       y       z     vdW  Elec       q    Type
REMARK                         _______ _______ _______ _____ _____    ______ ____
ROOT
ATOM      1  C   UNL     1      46.943   4.109  14.944  0.00  0.00    +0.000 C 
ENDROOT
BRANCH   1   2
ATOM      2  C   UNL     1      46.426   4.441  13.575  0.00  0.00    +0.000 A 
ATOM      3  C   UNL     1      46.628   5.705  13.021  0.00  0.00    +0.000 A 
ATOM      4  C   UNL     1      46.189   5.971  11.727  0.00  0.00    +0.000 A 
ATOM      5  C   UNL     1      45.536   4.968  11.016  0.00  0.00    +0.000 A 
ATOM      6  N   UNL     1      45.281   3.745  11.550  0.00  0.00    +0.000 NA
ATOM      7  C   UNL     1      45.723   3.516  12.811  0.00  0.00    +0.000 A 
BRANCH   5   8
ATOM      8  C   UNL     1      45.092   5.225   9.585  0.00  0.00    +0.000 C 
BRANCH   8   9
ATOM      9  N   UNL     1      44.117   4.258   9.054  0.00  0.00    +0.000 NA
ATOM     10  H   UNL     1      43.280   4.794   8.808  0.00  0.00    +0.000 HD
BRANCH   9  11
ATOM     11  C   UNL     1      44.608   3.584   7.841  0.00  0.00    +0.000 C 
BRANCH  11  12
ATOM     12  C   UNL     1      46.157   3.525   7.842  0.00  0.00    +0.000 C 
ATOM     13  C   UNL     1      46.699   2.107   7.786  0.00  0.00    +0.000 C 
ATOM     14  C   UNL     1      46.778   1.793   6.304  0.00  0.00    +0.000 C 
ATOM     15  C   UNL     1      46.874   3.147   5.615  0.00  0.00    +0.000 C 
ATOM     16  N   UNL     1      46.758   4.166   6.660  0.00  0.00    +0.000 NA
ATOM     17  H   UNL     1      46.139   4.924   6.357  0.00  0.00    +0.000 HD
ENDBRANCH  11  12
ENDBRANCH   9  11
ENDBRANCH   8   9
ENDBRANCH   5   8
ENDBRANCH   1   2
BRANCH   1  20
ATOM     18  O   UNL     1      48.991   4.144  16.900  0.00  0.00    +0.000 OA
ATOM     19  C   UNL     1      48.510   5.205  16.513  0.00  0.00    +0.000 C 
ATOM     20  N   UNL     1      47.485   5.264  15.607  0.00  0.00    +0.000 N 
ATOM     21  H   UNL     1      47.236   6.161  15.205  0.00  0.00    +0.000 HD
BRANCH  19  22
ATOM     22  C   UNL     1      48.974   6.498  17.038  0.00  0.00    +0.000 A 
ATOM     23  C   UNL     1      48.854   6.784  18.391  0.00  0.00    +0.000 A 
ATOM     24  S   UNL     1      49.419   8.338  18.813  0.00  0.00    +0.000 S 
ATOM     25  C   UNL     1      49.886   8.666  17.209  0.00  0.00    +0.000 A 
ATOM     26  N   UNL     1      50.475   9.845  16.876  0.00  0.00    +0.000 NA
ATOM     27  C   UNL     1      50.813   9.942  15.633  0.00  0.00    +0.000 A 
ATOM     28  N   UNL     1      50.605   8.971  14.689  0.00  0.00    +0.000 N 
ATOM     29  C   UNL     1      49.947   7.799  14.965  0.00  0.00    +0.000 A 
ATOM     30  O   UNL     1      49.658   7.012  14.066  0.00  0.00    +0.000 OA
ATOM     31  C   UNL     1      49.589   7.615  16.358  0.00  0.00    +0.000 A 
ATOM     32  H   UNL     1      50.864   9.120  13.725  0.00  0.00    +0.000 HD
ENDBRANCH  19  22
ENDBRANCH   1  20
TORSDOF 7
ENDMDL
MODEL 7
REMARK VINA RESULT:    -6.564      3.288      7.831
REMARK INTER + INTRA:         -10.352
REMARK INTER:                  -8.917
REMARK INTRA:                  -1.435
REMARK UNBOUND:                -1.102
REMARK  Name = 
REMARK  7 active torsions:
REMARK  status: ('A' for Active; 'I' for Inactive)
REMARK    1  A    between atoms: C_2  and  C_19
REMARK    2  A    between atoms: N_3  and  C_4
REMARK    3  A    between atoms: C_4  and  C_5
REMARK    4  A    between atoms: C_8  and  C_9
REMARK    5  A    between atoms: C_9  and  N_10
REMARK    6  A    between atoms: N_10  and  C_11
REMARK    7  A    between atoms: C_11  and  C_12
REMARK                            x       y       z     vdW  Elec       q    Type
REMARK                         _______ _______ _______ _____ _____    ______ ____
ROOT
ATOM      1  C   UNL     1      47.742   8.402  12.278  0.00  0.00    +0.000 C 
ENDROOT
BRANCH   1   2
ATOM      2  C   UNL     1      48.304   8.152  13.647  0.00  0.00    +0.000 A 
ATOM      3  C   UNL     1      48.068   9.045  14.691  0.00  0.00    +0.000 A 
ATOM      4  C   UNL     1      48.552   8.763  15.965  0.00  0.00    +0.000 A 
ATOM      5  C   UNL     1      49.283   7.595  16.167  0.00  0.00    +0.000 A 
ATOM      6  N   UNL     1      49.572   6.733  15.156  0.00  0.00    +0.000 NA
ATOM      7  C   UNL     1      49.083   7.035  13.928  0.00  0.00    +0.000 A 
BRANCH   5   8
ATOM      8  C   UNL     1      49.779   7.246  17.561  0.00  0.00    +0.000 C 
BRANCH   8   9
ATOM      9  N   UNL     1      50.438   5.934  17.675  0.00  0.00    +0.000 NA
ATOM     10  H   UNL     1      51.304   6.089  18.199  0.00  0.00    +0.000 HD
BRANCH   9  11
ATOM     11  C   UNL     1      49.616   4.964  18.416  0.00  0.00    +0.000 C 
BRANCH  11  12
ATOM     12  C   UNL     1      49.357   3.703  17.552  0.00  0.00    +0.000 C 
ATOM     13  C   UNL     1      48.307   2.778  18.148  0.00  0.00    +0.000 C 
ATOM     14  C   UNL     1      46.991   3.307  17.609  0.00  0.00    +0.000 C 
ATOM     15  C   UNL     1      47.356   4.053  16.332  0.00  0.00    +0.000 C 
ATOM     16  N   UNL     1      48.815   4.019  16.220  0.00  0.00    +0.000 NA
ATOM     17  H   UNL     1      49.176   4.934  15.937  0.00  0.00    +0.000 HD
ENDBRANCH  11  12
ENDBRANCH   9  11
ENDBRANCH   8   9
ENDBRANCH   5   8
ENDBRANCH   1   2
BRANCH   1  20
ATOM     18  O   UNL     1      45.004   7.987  11.681  0.00  0.00    +0.000 OA
ATOM     19  C   UNL     1      45.819   7.108  11.413  0.00  0.00    +0.000 C 
ATOM     20  N   UNL     1      47.150   7.218  11.717  0.00  0.00    +0.000 N 
ATOM     21  H   UNL     1      47.799   6.540  11.334  0.00  0.00    +0.000 HD
BRANCH  19  22
ATOM     22  C   UNL     1      45.410   5.843  10.785  0.00  0.00    +0.000 A 
ATOM     23  C   UNL     1      45.773   5.566   9.475  0.00  0.00    +0.000 A 
ATOM     24  S   UNL     1      45.187   4.066   8.907  0.00  0.00    +0.000 S 
ATOM     25  C   UNL     1      44.467   3.714  10.408  0.00  0.00    +0.000 A 
ATOM     26  N   UNL     1      43.808   2.543  10.614  0.00  0.00    +0.000 NA
ATOM     27  C   UNL     1      43.347   2.391  11.811  0.00  0.00    +0.000 A 
ATOM     28  N   UNL     1      43.476   3.310  12.820  0.00  0.00    +0.000 N 
ATOM     29  C   UNL     1      44.066   4.534  12.636  0.00  0.00    +0.000 A 
ATOM     30  O   UNL     1      44.044   5.385  13.522  0.00  0.00    +0.000 OA
ATOM     31  C   UNL     1      44.647   4.739  11.322  0.00  0.00    +0.000 A 
ATOM     32  H   UNL     1      43.065   3.145  13.727  0.00  0.00    +0.000 HD
ENDBRANCH  19  22
ENDBRANCH   1  20
TORSDOF 7
ENDMDL
MODEL 8
REMARK VINA RESULT:    -6.550      2.648      3.356
REMARK INTER + INTRA:         -10.333
REMARK INTER:                  -9.587
REMARK INTRA:                  -0.746
REMARK UNBOUND:                -1.102
REMARK  Name = 
REMARK  7 active torsions:
REMARK  status: ('A' for Active; 'I' for Inactive)
REMARK    1  A    between atoms: C_2  and  C_19
REMARK    2  A    between atoms: N_3  and  C_4
REMARK    3  A    between atoms: C_4  and  C_5
REMARK    4  A    between atoms: C_8  and  C_9
REMARK    5  A    between atoms: C_9  and  N_10
REMARK    6  A    between atoms: N_10  and  C_11
REMARK    7  A    between atoms: C_11  and  C_12
REMARK                            x       y       z     vdW  Elec       q    Type
REMARK                         _______ _______ _______ _____ _____    ______ ____
ROOT
ATOM      1  C   UNL     1      47.353   4.586  14.608  0.00  0.00    +0.000 C 
ENDROOT
BRANCH   1   2
ATOM      2  C   UNL     1      46.406   4.537  13.446  0.00  0.00    +0.000 A 
ATOM      3  C   UNL     1      45.974   5.709  12.825  0.00  0.00    +0.000 A 
ATOM      4  C   UNL     1      45.141   5.635  11.713  0.00  0.00    +0.000 A 
ATOM      5  C   UNL     1      44.738   4.385  11.251  0.00  0.00    +0.000 A 
ATOM      6  N   UNL     1      45.102   3.230  11.868  0.00  0.00    +0.000 NA
ATOM      7  C   UNL     1      45.917   3.335  12.947  0.00  0.00    +0.000 A 
BRANCH   5   8
ATOM      8  C   UNL     1      43.867   4.283  10.010  0.00  0.00    +0.000 C 
BRANCH   8   9
ATOM      9  N   UNL     1      44.519   4.702   8.758  0.00  0.00    +0.000 NA
ATOM     10  H   UNL     1      45.386   5.175   9.027  0.00  0.00    +0.000 HD
BRANCH   9  11
ATOM     11  C   UNL     1      44.864   3.556   7.901  0.00  0.00    +0.000 C 
BRANCH  11  12
ATOM     12  C   UNL     1      46.401   3.367   7.843  0.00  0.00    +0.000 C 
ATOM     13  C   UNL     1      46.816   1.917   7.651  0.00  0.00    +0.000 C 
ATOM     14  C   UNL     1      46.826   1.725   6.146  0.00  0.00    +0.000 C 
ATOM     15  C   UNL     1      47.020   3.121   5.569  0.00  0.00    +0.000 C 
ATOM     16  N   UNL     1      47.022   4.053   6.697  0.00  0.00    +0.000 NA
ATOM     17  H   UNL     1      46.464   4.883   6.481  0.00  0.00    +0.000 HD
ENDBRANCH  11  12
ENDBRANCH   9  11
ENDBRANCH   8   9
ENDBRANCH   5   8
ENDBRANCH   1   2
BRANCH   1  20
ATOM     18  O   UNL     1      49.508   5.526  16.188  0.00  0.00    +0.000 OA
ATOM     19  C   UNL     1      48.655   6.320  15.799  0.00  0.00    +0.000 C 
ATOM     20  N   UNL     1      47.561   5.930  15.074  0.00  0.00    +0.000 N 
ATOM     21  H   UNL     1      46.977   6.641  14.647  0.00  0.00    +0.000 HD
BRANCH  19  22
ATOM     22  C   UNL     1      48.726   7.751  16.131  0.00  0.00    +0.000 A 
ATOM     23  C   UNL     1      49.170   8.664  15.186  0.00  0.00    +0.000 A 
ATOM     24  S   UNL     1      49.210  10.272  15.757  0.00  0.00    +0.000 S 
ATOM     25  C   UNL     1      48.591   9.810  17.273  0.00  0.00    +0.000 A 
ATOM     26  N   UNL     1      48.354  10.729  18.246  0.00  0.00    +0.000 NA
ATOM     27  C   UNL     1      47.846  10.244  19.330  0.00  0.00    +0.000 A 
ATOM     28  N   UNL     1      47.564   8.919  19.534  0.00  0.00    +0.000 N 
ATOM     29  C   UNL     1      47.857   7.948  18.610  0.00  0.00    +0.000 A 
ATOM     30  O   UNL     1      47.716   6.758  18.881  0.00  0.00    +0.000 OA
ATOM     31  C   UNL     1      48.383   8.443  17.353  0.00  0.00    +0.000 A 
ATOM     32  H   UNL     1      47.196   8.597  20.418  0.00  0.00    +0.000 HD
ENDBRANCH  19  22
ENDBRANCH   1  20
TORSDOF 7
ENDMDL
MODEL 9
REMARK VINA RESULT:    -6.536      3.432      5.694
REMARK INTER + INTRA:         -10.313
REMARK INTER:                  -9.317
REMARK INTRA:                  -0.995
REMARK UNBOUND:                -1.102
REMARK  Name = 
REMARK  7 active torsions:
REMARK  status: ('A' for Active; 'I' for Inactive)
REMARK    1  A    between atoms: C_2  and  C_19
REMARK    2  A    between atoms: N_3  and  C_4
REMARK    3  A    between atoms: C_4  and  C_5
REMARK    4  A    between atoms: C_8  and  C_9
REMARK    5  A    between atoms: C_9  and  N_10
REMARK    6  A    between atoms: N_10  and  C_11
REMARK    7  A    between atoms: C_11  and  C_12
REMARK                            x       y       z     vdW  Elec       q    Type
REMARK                         _______ _______ _______ _____ _____    ______ ____
ROOT
ATOM      1  C   UNL     1      48.117   3.512  17.824  0.00  0.00    +0.000 C 
ENDROOT
BRANCH   1   2
ATOM      2  C   UNL     1      47.927   4.293  16.557  0.00  0.00    +0.000 A 
ATOM      3  C   UNL     1      47.087   3.824  15.548  0.00  0.00    +0.000 A 
ATOM      4  C   UNL     1      46.881   4.594  14.406  0.00  0.00    +0.000 A 
ATOM      5  C   UNL     1      47.539   5.815  14.287  0.00  0.00    +0.000 A 
ATOM      6  N   UNL     1      48.402   6.272  15.232  0.00  0.00    +0.000 NA
ATOM      7  C   UNL     1      48.578   5.501  16.334  0.00  0.00    +0.000 A 
BRANCH   5   8
ATOM      8  C   UNL     1      47.290   6.691  13.070  0.00  0.00    +0.000 C 
BRANCH   8   9
ATOM      9  N   UNL     1      46.774   5.979  11.889  0.00  0.00    +0.000 NA
ATOM     10  H   UNL     1      46.666   4.999  12.164  0.00  0.00    +0.000 HD
BRANCH   9  11
ATOM     11  C   UNL     1      45.459   6.487  11.466  0.00  0.00    +0.000 C 
BRANCH  11  12
ATOM     12  C   UNL     1      44.665   5.383  10.721  0.00  0.00    +0.000 C 
ATOM     13  C   UNL     1      44.686   4.045  11.442  0.00  0.00    +0.000 C 
ATOM     14  C   UNL     1      43.512   4.116  12.400  0.00  0.00    +0.000 C 
ATOM     15  C   UNL     1      42.566   5.144  11.794  0.00  0.00    +0.000 C 
ATOM     16  N   UNL     1      43.229   5.685  10.607  0.00  0.00    +0.000 NA
ATOM     17  H   UNL     1      43.118   6.702  10.564  0.00  0.00    +0.000 HD
ENDBRANCH  11  12
ENDBRANCH   9  11
ENDBRANCH   8   9
ENDBRANCH   5   8
ENDBRANCH   1   2
BRANCH   1  20
ATOM     18  O   UNL     1      49.636   1.704  16.260  0.00  0.00    +0.000 OA
ATOM     19  C   UNL     1      50.174   2.290  17.195  0.00  0.00    +0.000 C 
ATOM     20  N   UNL     1      49.492   3.141  18.024  0.00  0.00    +0.000 N 
ATOM     21  H   UNL     1      50.014   3.716  18.675  0.00  0.00    +0.000 HD
BRANCH  19  22
ATOM     22  C   UNL     1      51.592   2.080  17.523  0.00  0.00    +0.000 A 
ATOM     23  C   UNL     1      52.091   0.792  17.666  0.00  0.00    +0.000 A 
ATOM     24  S   UNL     1      53.748   0.744  18.072  0.00  0.00    +0.000 S 
ATOM     25  C   UNL     1      53.868   2.441  18.026  0.00  0.00    +0.000 A 
ATOM     26  N   UNL     1      55.051   3.068  18.261  0.00  0.00    +0.000 NA
ATOM     27  C   UNL     1      55.006   4.354  18.153  0.00  0.00    +0.000 A 
ATOM     28  N   UNL     1      53.881   5.072  17.841  0.00  0.00    +0.000 N 
ATOM     29  C   UNL     1      52.652   4.487  17.671  0.00  0.00    +0.000 A 
ATOM     30  O   UNL     1      51.642   5.172  17.528  0.00  0.00    +0.000 OA
ATOM     31  C   UNL     1      52.654   3.038  17.732  0.00  0.00    +0.000 A 
ATOM     32  H   UNL     1      53.903   6.081  17.803  0.00  0.00    +0.000 HD
ENDBRANCH  19  22
ENDBRANCH   1  20
TORSDOF 7
ENDMDL
