MODEL 1
REMARK VINA RESULT:    -8.415      0.000      0.000
REMARK INTER + INTRA:         -11.828
REMARK INTER:                 -11.121
REMARK INTRA:                  -0.708
REMARK UNBOUND:                -0.708
REMARK  Name = 
REMARK  6 active torsions:
REMARK  status: ('A' for Active; 'I' for Inactive)
REMARK    1  A    between atoms: N_1  and  C_2
REMARK    2  A    between atoms: C_2  and  C_3
REMARK    3  A    between atoms: C_3  and  C_4
REMARK    4  A    between atoms: C_7  and  C_8
REMARK    5  A    between atoms: C_8  and  N_9
REMARK    6  A    between atoms: C_16  and  C_17
REMARK                            x       y       z     vdW  Elec       q    Type
REMARK                         _______ _______ _______ _____ _____    ______ ____
ROOT
ATOM      1  N   UNL     1      44.082   6.153  11.570  0.00  0.00    +0.000 N 
ATOM      2  C   UNL     1      44.119   7.456  11.151  0.00  0.00    +0.000 A 
ATOM      3  N   UNL     1      45.154   8.093  11.647  0.00  0.00    +0.000 NA
ATOM      4  C   UNL     1      45.788   7.178  12.447  0.00  0.00    +0.000 A 
ATOM      5  C   UNL     1      47.004   7.290  13.130  0.00  0.00    +0.000 A 
ATOM      6  C   UNL     1      47.442   6.201  13.885  0.00  0.00    +0.000 A 
ATOM      7  F   UNL     1      48.648   6.305  14.469  0.00  0.00    +0.000 F 
ATOM      8  C   UNL     1      46.673   5.042  14.028  0.00  0.00    +0.000 A 
ATOM      9  C   UNL     1      45.447   4.921  13.347  0.00  0.00    +0.000 A 
ATOM     10  C   UNL     1      45.066   5.990  12.520  0.00  0.00    +0.000 A 
ENDROOT
BRANCH   8  11
ATOM     11  C   UNL     1      47.117   3.892  14.862  0.00  0.00    +0.000 C 
ATOM     12  N   UNL     1      47.047   4.018  16.220  0.00  0.00    +0.000 N 
ATOM     13  O   UNL     1      47.546   2.863  14.353  0.00  0.00    +0.000 OA
ATOM     14  H   UNL     1      46.704   4.853  16.680  0.00  0.00    +0.000 HD
ATOM     15  H   UNL     1      47.349   3.241  16.791  0.00  0.00    +0.000 HD
ENDBRANCH   8  11
BRANCH   1  16
ATOM     16  C   UNL     1      43.336   5.097  10.901  0.00  0.00    +0.000 C 
BRANCH  16  20
ATOM     17  C   UNL     1      45.827   2.689   8.293  0.00  0.00    +0.000 A 
ATOM     18  C   UNL     1      45.917   4.085   8.274  0.00  0.00    +0.000 A 
ATOM     19  C   UNL     1      45.144   4.858   9.145  0.00  0.00    +0.000 A 
ATOM     20  C   UNL     1      44.271   4.254  10.059  0.00  0.00    +0.000 A 
ATOM     21  C   UNL     1      44.214   2.851  10.102  0.00  0.00    +0.000 A 
ATOM     22  C   UNL     1      44.985   2.077   9.230  0.00  0.00    +0.000 A 
BRANCH  17  23
ATOM     23  C   UNL     1      46.613   1.854   7.307  0.00  0.00    +0.000 C 
BRANCH  23  24
ATOM     24  C   UNL     1      47.852   2.579   6.774  0.00  0.00    +0.000 C 
BRANCH  24  25
ATOM     25  N   UNL     1      48.498   1.804   5.713  0.00  0.00    +0.000 NA
ATOM     26  H   UNL     1      48.035   1.994   4.825  0.00  0.00    +0.000 HD
ATOM     27  H   UNL     1      48.369   0.808   5.890  0.00  0.00    +0.000 HD
ENDBRANCH  24  25
ENDBRANCH  23  24
ENDBRANCH  17  23
ENDBRANCH  16  20
ENDBRANCH   1  16
TORSDOF 6
ENDMDL
MODEL 2
REMARK VINA RESULT:    -7.521      2.868      6.994
REMARK INTER + INTRA:         -10.647
REMARK INTER:                 -10.562
REMARK INTRA:                  -0.084
REMARK UNBOUND:                -0.708
REMARK  Name = 
REMARK  6 active torsions:
REMARK  status: ('A' for Active; 'I' for Inactive)
REMARK    1  A    between atoms: N_1  and  C_2
REMARK    2  A    between atoms: C_2  and  C_3
REMARK    3  A    between atoms: C_3  and  C_4
REMARK    4  A    between atoms: C_7  and  C_8
REMARK    5  A    between atoms: C_8  and  N_9
REMARK    6  A    between atoms: C_16  and  C_17
REMARK                            x       y       z     vdW  Elec       q    Type
REMARK                         _______ _______ _______ _____ _____    ______ ____
ROOT
ATOM      1  N   UNL     1      44.618   4.765  10.265  0.00  0.00    +0.000 N 
ATOM      2  C   UNL     1      43.606   4.173  10.972  0.00  0.00    +0.000 A 
ATOM      3  N   UNL     1      43.496   2.898  10.680  0.00  0.00    +0.000 NA
ATOM      4  C   UNL     1      44.447   2.667   9.719  0.00  0.00    +0.000 A 
ATOM      5  C   UNL     1      44.839   1.459   9.133  0.00  0.00    +0.000 A 
ATOM      6  C   UNL     1      45.846   1.487   8.167  0.00  0.00    +0.000 A 
ATOM      7  F   UNL     1      46.257   0.307   7.675  0.00  0.00    +0.000 F 
ATOM      8  C   UNL     1      46.419   2.686   7.730  0.00  0.00    +0.000 A 
ATOM      9  C   UNL     1      46.029   3.907   8.312  0.00  0.00    +0.000 A 
ATOM     10  C   UNL     1      45.080   3.849   9.345  0.00  0.00    +0.000 A 
ENDROOT
BRANCH   8  11
ATOM     11  C   UNL     1      47.467   2.726   6.674  0.00  0.00    +0.000 C 
ATOM     12  N   UNL     1      47.188   3.395   5.517  0.00  0.00    +0.000 N 
ATOM     13  O   UNL     1      48.547   2.167   6.826  0.00  0.00    +0.000 OA
ATOM     14  H   UNL     1      46.307   3.865   5.350  0.00  0.00    +0.000 HD
ATOM     15  H   UNL     1      47.896   3.424   4.796  0.00  0.00    +0.000 HD
ENDBRANCH   8  11
BRANCH   1  16
ATOM     16  C   UNL     1      45.259   6.017  10.641  0.00  0.00    +0.000 C 
BRANCH  16  20
ATOM     17  C   UNL     1      47.486   5.610  14.339  0.00  0.00    +0.000 A 
ATOM     18  C   UNL     1      46.440   4.731  14.038  0.00  0.00    +0.000 A 
ATOM     19  C   UNL     1      45.751   4.837  12.826  0.00  0.00    +0.000 A 
ATOM     20  C   UNL     1      46.096   5.817  11.887  0.00  0.00    +0.000 A 
ATOM     21  C   UNL     1      47.174   6.670  12.177  0.00  0.00    +0.000 A 
ATOM     22  C   UNL     1      47.862   6.566  13.389  0.00  0.00    +0.000 A 
BRANCH  17  23
ATOM     23  C   UNL     1      48.189   5.538  15.677  0.00  0.00    +0.000 C 
BRANCH  23  24
ATOM     24  C   UNL     1      47.712   4.362  16.533  0.00  0.00    +0.000 C 
BRANCH  24  25
ATOM     25  N   UNL     1      46.884   4.826  17.648  0.00  0.00    +0.000 NA
ATOM     26  H   UNL     1      46.801   4.083  18.340  0.00  0.00    +0.000 HD
ATOM     27  H   UNL     1      45.937   5.011  17.317  0.00  0.00    +0.000 HD
ENDBRANCH  24  25
ENDBRANCH  23  24
ENDBRANCH  17  23
ENDBRANCH  16  20
ENDBRANCH   1  16
TORSDOF 6
ENDMDL
MODEL 3
REMARK VINA RESULT:    -7.449      2.121      3.389
REMARK INTER + INTRA:         -10.552
REMARK INTER:                  -9.867
REMARK INTRA:                  -0.684
REMARK UNBOUND:                -0.708
REMARK  Name = 
REMARK  6 active torsions:
REMARK  status: ('A' for Active; 'I' for Inactive)
REMARK    1  A    between atoms: N_1  and  C_2
REMARK    2  A    between atoms: C_2  and  C_3
REMARK    3  A    between atoms: C_3  and  C_4
REMARK    4  A    between atoms: C_7  and  C_8
REMARK    5  A    between atoms: C_8  and  N_9
REMARK    6  A    between atoms: C_16  and  C_17
REMARK                            x       y       z     vdW  Elec       q    Type
REMARK                         _______ _______ _______ _____ _____    ______ ____
ROOT
ATOM      1  N   UNL     1      45.780   4.725  12.413  0.00  0.00    +0.000 N 
ATOM      2  C   UNL     1      46.036   3.694  13.277  0.00  0.00    +0.000 A 
ATOM      3  N   UNL     1      46.883   4.050  14.214  0.00  0.00    +0.000 NA
ATOM      4  C   UNL     1      47.217   5.347  13.921  0.00  0.00    +0.000 A 
ATOM      5  C   UNL     1      47.999   6.248  14.654  0.00  0.00    +0.000 A 
ATOM      6  C   UNL     1      48.190   7.530  14.138  0.00  0.00    +0.000 A 
ATOM      7  F   UNL     1      48.880   8.399  14.896  0.00  0.00    +0.000 F 
ATOM      8  C   UNL     1      47.682   7.910  12.892  0.00  0.00    +0.000 A 
ATOM      9  C   UNL     1      46.897   7.010  12.147  0.00  0.00    +0.000 A 
ATOM     10  C   UNL     1      46.640   5.757  12.723  0.00  0.00    +0.000 A 
ENDROOT
BRANCH   8  11
ATOM     11  C   UNL     1      47.914   9.264  12.320  0.00  0.00    +0.000 C 
ATOM     12  N   UNL     1      47.210  10.312  12.840  0.00  0.00    +0.000 N 
ATOM     13  O   UNL     1      48.703   9.441  11.398  0.00  0.00    +0.000 OA
ATOM     14  H   UNL     1      46.545  10.207  13.597  0.00  0.00    +0.000 HD
ATOM     15  H   UNL     1      47.362  11.233  12.454  0.00  0.00    +0.000 HD
ENDBRANCH   8  11
BRANCH   1  16
ATOM     16  C   UNL     1      44.614   4.798  11.544  0.00  0.00    +0.000 C 
BRANCH  16  20
ATOM     17  C   UNL     1      45.837   3.171   7.714  0.00  0.00    +0.000 A 
ATOM     18  C   UNL     1      45.131   2.383   8.629  0.00  0.00    +0.000 A 
ATOM     19  C   UNL     1      44.700   2.921   9.846  0.00  0.00    +0.000 A 
ATOM     20  C   UNL     1      44.958   4.259  10.170  0.00  0.00    +0.000 A 
ATOM     21  C   UNL     1      45.632   5.057   9.231  0.00  0.00    +0.000 A 
ATOM     22  C   UNL     1      46.065   4.519   8.015  0.00  0.00    +0.000 A 
BRANCH  17  23
ATOM     23  C   UNL     1      46.360   2.572   6.427  0.00  0.00    +0.000 C 
BRANCH  23  24
ATOM     24  C   UNL     1      47.528   1.609   6.655  0.00  0.00    +0.000 C 
BRANCH  24  25
ATOM     25  N   UNL     1      48.607   1.856   5.696  0.00  0.00    +0.000 NA
ATOM     26  H   UNL     1      48.316   2.580   5.040  0.00  0.00    +0.000 HD
ATOM     27  H   UNL     1      48.767   1.017   5.139  0.00  0.00    +0.000 HD
ENDBRANCH  24  25
ENDBRANCH  23  24
ENDBRANCH  17  23
ENDBRANCH  16  20
ENDBRANCH   1  16
TORSDOF 6
ENDMDL
MODEL 4
REMARK VINA RESULT:    -7.276      1.646      2.099
REMARK INTER + INTRA:         -10.322
REMARK INTER:                 -10.062
REMARK INTRA:                  -0.260
REMARK UNBOUND:                -0.708
REMARK  Name = 
REMARK  6 active torsions:
REMARK  status: ('A' for Active; 'I' for Inactive)
REMARK    1  A    between atoms: N_1  and  C_2
REMARK    2  A    between atoms: C_2  and  C_3
REMARK    3  A    between atoms: C_3  and  C_4
REMARK    4  A    between atoms: C_7  and  C_8
REMARK    5  A    between atoms: C_8  and  N_9
REMARK    6  A    between atoms: C_16  and  C_17
REMARK                            x       y       z     vdW  Elec       q    Type
REMARK                         _______ _______ _______ _____ _____    ______ ____
ROOT
ATOM      1  N   UNL     1      43.985   5.207  11.908  0.00  0.00    +0.000 N 
ATOM      2  C   UNL     1      43.017   6.007  11.363  0.00  0.00    +0.000 A 
ATOM      3  N   UNL     1      43.368   7.271  11.384  0.00  0.00    +0.000 NA
ATOM      4  C   UNL     1      44.592   7.293  12.002  0.00  0.00    +0.000 A 
ATOM      5  C   UNL     1      45.471   8.365  12.189  0.00  0.00    +0.000 A 
ATOM      6  C   UNL     1      46.675   8.127  12.854  0.00  0.00    +0.000 A 
ATOM      7  F   UNL     1      47.534   9.154  12.955  0.00  0.00    +0.000 F 
ATOM      8  C   UNL     1      46.989   6.873  13.389  0.00  0.00    +0.000 A 
ATOM      9  C   UNL     1      46.109   5.789  13.207  0.00  0.00    +0.000 A 
ATOM     10  C   UNL     1      44.947   6.027  12.458  0.00  0.00    +0.000 A 
ENDROOT
BRANCH   8  11
ATOM     11  C   UNL     1      48.254   6.621  14.132  0.00  0.00    +0.000 C 
ATOM     12  N   UNL     1      48.169   6.295  15.455  0.00  0.00    +0.000 N 
ATOM     13  O   UNL     1      49.346   6.714  13.582  0.00  0.00    +0.000 OA
ATOM     14  H   UNL     1      47.287   6.214  15.947  0.00  0.00    +0.000 HD
ATOM     15  H   UNL     1      49.024   6.125  15.964  0.00  0.00    +0.000 HD
ENDBRANCH   8  11
BRANCH   1  16
ATOM     16  C   UNL     1      44.096   3.775  11.671  0.00  0.00    +0.000 C 
BRANCH  16  20
ATOM     17  C   UNL     1      45.764   2.980   7.748  0.00  0.00    +0.000 A 
ATOM     18  C   UNL     1      45.137   1.962   8.474  0.00  0.00    +0.000 A 
ATOM     19  C   UNL     1      44.562   2.230   9.720  0.00  0.00    +0.000 A 
ATOM     20  C   UNL     1      44.595   3.520  10.264  0.00  0.00    +0.000 A 
ATOM     21  C   UNL     1      45.191   4.547   9.513  0.00  0.00    +0.000 A 
ATOM     22  C   UNL     1      45.767   4.280   8.268  0.00  0.00    +0.000 A 
BRANCH  17  23
ATOM     23  C   UNL     1      46.444   2.678   6.431  0.00  0.00    +0.000 C 
BRANCH  23  24
ATOM     24  C   UNL     1      47.510   1.585   6.552  0.00  0.00    +0.000 C 
BRANCH  24  25
ATOM     25  N   UNL     1      48.616   1.827   5.623  0.00  0.00    +0.000 NA
ATOM     26  H   UNL     1      48.400   2.637   5.044  0.00  0.00    +0.000 HD
ATOM     27  H   UNL     1      48.704   1.037   4.984  0.00  0.00    +0.000 HD
ENDBRANCH  24  25
ENDBRANCH  23  24
ENDBRANCH  17  23
ENDBRANCH  16  20
ENDBRANCH   1  16
TORSDOF 6
ENDMDL
MODEL 5
REMARK VINA RESULT:    -6.954      2.932      6.690
REMARK INTER + INTRA:          -9.898
REMARK INTER:                  -9.813
REMARK INTRA:                  -0.084
REMARK UNBOUND:                -0.708
REMARK  Name = 
REMARK  6 active torsions:
REMARK  status: ('A' for Active; 'I' for Inactive)
REMARK    1  A    between atoms: N_1  and  C_2
REMARK    2  A    between atoms: C_2  and  C_3
REMARK    3  A    between atoms: C_3  and  C_4
REMARK    4  A    between atoms: C_7  and  C_8
REMARK    5  A    between atoms: C_8  and  N_9
REMARK    6  A    between atoms: C_16  and  C_17
REMARK                            x       y       z     vdW  Elec       q    Type
REMARK                         _______ _______ _______ _____ _____    ______ ____
ROOT
ATOM      1  N   UNL     1      44.348   5.089  10.377  0.00  0.00    +0.000 N 
ATOM      2  C   UNL     1      43.380   4.519  11.160  0.00  0.00    +0.000 A 
ATOM      3  N   UNL     1      43.311   3.222  10.973  0.00  0.00    +0.000 NA
ATOM      4  C   UNL     1      44.243   2.949  10.004  0.00  0.00    +0.000 A 
ATOM      5  C   UNL     1      44.665   1.713   9.504  0.00  0.00    +0.000 A 
ATOM      6  C   UNL     1      45.643   1.700   8.508  0.00  0.00    +0.000 A 
ATOM      7  F   UNL     1      46.086   0.500   8.098  0.00  0.00    +0.000 F 
ATOM      8  C   UNL     1      46.157   2.880   7.960  0.00  0.00    +0.000 A 
ATOM      9  C   UNL     1      45.736   4.129   8.456  0.00  0.00    +0.000 A 
ATOM     10  C   UNL     1      44.819   4.119   9.519  0.00  0.00    +0.000 A 
ENDROOT
BRANCH   8  11
ATOM     11  C   UNL     1      47.173   2.874   6.873  0.00  0.00    +0.000 C 
ATOM     12  N   UNL     1      46.931   3.631   5.762  0.00  0.00    +0.000 N 
ATOM     13  O   UNL     1      48.194   2.201   6.957  0.00  0.00    +0.000 OA
ATOM     14  H   UNL     1      46.098   4.196   5.651  0.00  0.00    +0.000 HD
ATOM     15  H   UNL     1      47.617   3.629   5.020  0.00  0.00    +0.000 HD
ENDBRANCH   8  11
BRANCH   1  16
ATOM     16  C   UNL     1      44.950   6.390  10.633  0.00  0.00    +0.000 C 
BRANCH  16  20
ATOM     17  C   UNL     1      47.603   6.175  14.056  0.00  0.00    +0.000 A 
ATOM     18  C   UNL     1      47.348   7.400  13.430  0.00  0.00    +0.000 A 
ATOM     19  C   UNL     1      46.459   7.474  12.353  0.00  0.00    +0.000 A 
ATOM     20  C   UNL     1      45.801   6.330  11.884  0.00  0.00    +0.000 A 
ATOM     21  C   UNL     1      46.031   5.110  12.542  0.00  0.00    +0.000 A 
ATOM     22  C   UNL     1      46.920   5.034  13.618  0.00  0.00    +0.000 A 
BRANCH  17  23
ATOM     23  C   UNL     1      48.614   6.082  15.178  0.00  0.00    +0.000 C 
BRANCH  23  24
ATOM     24  C   UNL     1      49.536   7.303  15.247  0.00  0.00    +0.000 C 
BRANCH  24  25
ATOM     25  N   UNL     1      50.942   6.897  15.290  0.00  0.00    +0.000 NA
ATOM     26  H   UNL     1      51.236   6.597  14.361  0.00  0.00    +0.000 HD
ATOM     27  H   UNL     1      51.044   6.083  15.895  0.00  0.00    +0.000 HD
ENDBRANCH  24  25
ENDBRANCH  23  24
ENDBRANCH  17  23
ENDBRANCH  16  20
ENDBRANCH   1  16
TORSDOF 6
ENDMDL
MODEL 6
REMARK VINA RESULT:    -6.502      3.827      7.397
REMARK INTER + INTRA:          -9.300
REMARK INTER:                  -8.994
REMARK INTRA:                  -0.306
REMARK UNBOUND:                -0.708
REMARK  Name = 
REMARK  6 active torsions:
REMARK  status: ('A' for Active; 'I' for Inactive)
REMARK    1  A    between atoms: N_1  and  C_2
REMARK    2  A    between atoms: C_2  and  C_3
REMARK    3  A    between atoms: C_3  and  C_4
REMARK    4  A    between atoms: C_7  and  C_8
REMARK    5  A    between atoms: C_8  and  N_9
REMARK    6  A    between atoms: C_16  and  C_17
REMARK                            x       y       z     vdW  Elec       q    Type
REMARK                         _______ _______ _______ _____ _____    ______ ____
ROOT
ATOM      1  N   UNL     1      47.577   5.152  15.147  0.00  0.00    +0.000 N 
ATOM      2  C   UNL     1      48.293   6.318  15.085  0.00  0.00    +0.000 A 
ATOM      3  N   UNL     1      48.046   6.976  13.977  0.00  0.00    +0.000 NA
ATOM      4  C   UNL     1      47.167   6.188  13.280  0.00  0.00    +0.000 A 
ATOM      5  C   UNL     1      46.491   6.457  12.084  0.00  0.00    +0.000 A 
ATOM      6  C   UNL     1      45.636   5.480  11.573  0.00  0.00    +0.000 A 
ATOM      7  F   UNL     1      44.941   5.792  10.466  0.00  0.00    +0.000 F 
ATOM      8  C   UNL     1      45.491   4.230  12.183  0.00  0.00    +0.000 A 
ATOM      9  C   UNL     1      46.170   3.949  13.384  0.00  0.00    +0.000 A 
ATOM     10  C   UNL     1      46.954   4.976  13.931  0.00  0.00    +0.000 A 
ENDROOT
BRANCH   8  11
ATOM     11  C   UNL     1      44.609   3.170  11.622  0.00  0.00    +0.000 C 
ATOM     12  N   UNL     1      43.773   2.511  12.476  0.00  0.00    +0.000 N 
ATOM     13  O   UNL     1      44.637   2.881  10.431  0.00  0.00    +0.000 OA
ATOM     14  H   UNL     1      43.724   2.716  13.467  0.00  0.00    +0.000 HD
ATOM     15  H   UNL     1      43.173   1.790  12.102  0.00  0.00    +0.000 HD
ENDBRANCH   8  11
BRANCH   1  16
ATOM     16  C   UNL     1      47.306   4.421  16.377  0.00  0.00    +0.000 C 
BRANCH  16  20
ATOM     17  C   UNL     1      51.083   2.710  17.645  0.00  0.00    +0.000 A 
ATOM     18  C   UNL     1      50.762   4.035  17.957  0.00  0.00    +0.000 A 
ATOM     19  C   UNL     1      49.526   4.573  17.584  0.00  0.00    +0.000 A 
ATOM     20  C   UNL     1      48.582   3.796  16.900  0.00  0.00    +0.000 A 
ATOM     21  C   UNL     1      48.894   2.454  16.625  0.00  0.00    +0.000 A 
ATOM     22  C   UNL     1      50.130   1.917  16.996  0.00  0.00    +0.000 A 
BRANCH  17  23
ATOM     23  C   UNL     1      52.445   2.148  17.989  0.00  0.00    +0.000 C 
BRANCH  23  24
ATOM     24  C   UNL     1      52.686   0.766  17.375  0.00  0.00    +0.000 C 
BRANCH  24  25
ATOM     25  N   UNL     1      52.741  -0.266  18.413  0.00  0.00    +0.000 NA
ATOM     26  H   UNL     1      51.794  -0.567  18.641  0.00  0.00    +0.000 HD
ATOM     27  H   UNL     1      53.126   0.130  19.270  0.00  0.00    +0.000 HD
ENDBRANCH  24  25
ENDBRANCH  23  24
ENDBRANCH  17  23
ENDBRANCH  16  20
ENDBRANCH   1  16
TORSDOF 6
ENDMDL
MODEL 7
REMARK VINA RESULT:    -5.995      3.339      6.687
REMARK INTER + INTRA:          -8.630
REMARK INTER:                  -8.180
REMARK INTRA:                  -0.450
REMARK UNBOUND:                -0.708
REMARK  Name = 
REMARK  6 active torsions:
REMARK  status: ('A' for Active; 'I' for Inactive)
REMARK    1  A    between atoms: N_1  and  C_2
REMARK    2  A    between atoms: C_2  and  C_3
REMARK    3  A    between atoms: C_3  and  C_4
REMARK    4  A    between atoms: C_7  and  C_8
REMARK    5  A    between atoms: C_8  and  N_9
REMARK    6  A    between atoms: C_16  and  C_17
REMARK                            x       y       z     vdW  Elec       q    Type
REMARK                         _______ _______ _______ _____ _____    ______ ____
ROOT
ATOM      1  N   UNL     1      46.847   7.231  12.009  0.00  0.00    +0.000 N 
ATOM      2  C   UNL     1      46.422   8.521  12.187  0.00  0.00    +0.000 A 
ATOM      3  N   UNL     1      45.119   8.619  12.072  0.00  0.00    +0.000 NA
ATOM      4  C   UNL     1      44.689   7.352  11.770  0.00  0.00    +0.000 A 
ATOM      5  C   UNL     1      43.383   6.865  11.650  0.00  0.00    +0.000 A 
ATOM      6  C   UNL     1      43.206   5.517  11.334  0.00  0.00    +0.000 A 
ATOM      7  F   UNL     1      41.944   5.056  11.299  0.00  0.00    +0.000 F 
ATOM      8  C   UNL     1      44.287   4.669  11.073  0.00  0.00    +0.000 A 
ATOM      9  C   UNL     1      45.604   5.152  11.190  0.00  0.00    +0.000 A 
ATOM     10  C   UNL     1      45.764   6.485  11.597  0.00  0.00    +0.000 A 
ENDROOT
BRANCH   8  11
ATOM     11  C   UNL     1      44.104   3.240  10.700  0.00  0.00    +0.000 C 
ATOM     12  N   UNL     1      43.669   2.375  11.662  0.00  0.00    +0.000 N 
ATOM     13  O   UNL     1      44.347   2.841   9.567  0.00  0.00    +0.000 OA
ATOM     14  H   UNL     1      43.462   2.664  12.611  0.00  0.00    +0.000 HD
ATOM     15  H   UNL     1      43.544   1.403  11.414  0.00  0.00    +0.000 HD
ENDBRANCH   8  11
BRANCH   1  16
ATOM     16  C   UNL     1      48.131   6.719  12.466  0.00  0.00    +0.000 C 
BRANCH  16  20
ATOM     17  C   UNL     1      47.947   4.883  16.390  0.00  0.00    +0.000 A 
ATOM     18  C   UNL     1      48.660   6.070  16.193  0.00  0.00    +0.000 A 
ATOM     19  C   UNL     1      48.683   6.684  14.937  0.00  0.00    +0.000 A 
ATOM     20  C   UNL     1      47.989   6.129  13.854  0.00  0.00    +0.000 A 
ATOM     21  C   UNL     1      47.242   4.959  14.067  0.00  0.00    +0.000 A 
ATOM     22  C   UNL     1      47.219   4.344  15.322  0.00  0.00    +0.000 A 
BRANCH  17  23
ATOM     23  C   UNL     1      47.975   4.183  17.731  0.00  0.00    +0.000 C 
BRANCH  23  24
ATOM     24  C   UNL     1      47.707   5.135  18.900  0.00  0.00    +0.000 C 
BRANCH  24  25
ATOM     25  N   UNL     1      46.320   5.603  18.888  0.00  0.00    +0.000 NA
ATOM     26  H   UNL     1      46.074   5.957  19.812  0.00  0.00    +0.000 HD
ATOM     27  H   UNL     1      45.695   4.817  18.711  0.00  0.00    +0.000 HD
ENDBRANCH  24  25
ENDBRANCH  23  24
ENDBRANCH  17  23
ENDBRANCH  16  20
ENDBRANCH   1  16
TORSDOF 6
ENDMDL
MODEL 8
REMARK VINA RESULT:    -5.782      3.558      5.464
REMARK INTER + INTRA:          -8.349
REMARK INTER:                  -7.633
REMARK INTRA:                  -0.716
REMARK UNBOUND:                -0.708
REMARK  Name = 
REMARK  6 active torsions:
REMARK  status: ('A' for Active; 'I' for Inactive)
REMARK    1  A    between atoms: N_1  and  C_2
REMARK    2  A    between atoms: C_2  and  C_3
REMARK    3  A    between atoms: C_3  and  C_4
REMARK    4  A    between atoms: C_7  and  C_8
REMARK    5  A    between atoms: C_8  and  N_9
REMARK    6  A    between atoms: C_16  and  C_17
REMARK                            x       y       z     vdW  Elec       q    Type
REMARK                         _______ _______ _______ _____ _____    ______ ____
ROOT
ATOM      1  N   UNL     1      48.486   7.300  15.070  0.00  0.00    +0.000 N 
ATOM      2  C   UNL     1      48.580   8.642  15.329  0.00  0.00    +0.000 A 
ATOM      3  N   UNL     1      48.979   8.868  16.559  0.00  0.00    +0.000 NA
ATOM      4  C   UNL     1      49.110   7.627  17.127  0.00  0.00    +0.000 A 
ATOM      5  C   UNL     1      49.612   7.277  18.386  0.00  0.00    +0.000 A 
ATOM      6  C   UNL     1      49.645   5.926  18.734  0.00  0.00    +0.000 A 
ATOM      7  F   UNL     1      50.201   5.610  19.916  0.00  0.00    +0.000 F 
ATOM      8  C   UNL     1      49.135   4.932  17.892  0.00  0.00    +0.000 A 
ATOM      9  C   UNL     1      48.626   5.275  16.625  0.00  0.00    +0.000 A 
ATOM     10  C   UNL     1      48.684   6.628  16.257  0.00  0.00    +0.000 A 
ENDROOT
BRANCH   8  11
ATOM     11  C   UNL     1      49.133   3.494  18.272  0.00  0.00    +0.000 C 
ATOM     12  N   UNL     1      48.338   3.103  19.311  0.00  0.00    +0.000 N 
ATOM     13  O   UNL     1      49.834   2.677  17.684  0.00  0.00    +0.000 OA
ATOM     14  H   UNL     1      47.749   3.747  19.826  0.00  0.00    +0.000 HD
ATOM     15  H   UNL     1      48.334   2.128  19.574  0.00  0.00    +0.000 HD
ENDBRANCH   8  11
BRANCH   1  16
ATOM     16  C   UNL     1      48.479   6.721  13.734  0.00  0.00    +0.000 C 
BRANCH  16  20
ATOM     17  C   UNL     1      44.634   5.079  12.582  0.00  0.00    +0.000 A 
ATOM     18  C   UNL     1      45.671   4.238  12.999  0.00  0.00    +0.000 A 
ATOM     19  C   UNL     1      46.896   4.771  13.411  0.00  0.00    +0.000 A 
ATOM     20  C   UNL     1      47.108   6.156  13.422  0.00  0.00    +0.000 A 
ATOM     21  C   UNL     1      46.051   6.998  13.041  0.00  0.00    +0.000 A 
ATOM     22  C   UNL     1      44.826   6.465  12.628  0.00  0.00    +0.000 A 
BRANCH  17  23
ATOM     23  C   UNL     1      43.332   4.501  12.074  0.00  0.00    +0.000 C 
BRANCH  23  24
ATOM     24  C   UNL     1      43.541   3.331  11.108  0.00  0.00    +0.000 C 
BRANCH  24  25
ATOM     25  N   UNL     1      43.030   2.083  11.677  0.00  0.00    +0.000 NA
ATOM     26  H   UNL     1      42.815   1.431  10.923  0.00  0.00    +0.000 HD
ATOM     27  H   UNL     1      42.148   2.261  12.156  0.00  0.00    +0.000 HD
ENDBRANCH  24  25
ENDBRANCH  23  24
ENDBRANCH  17  23
ENDBRANCH  16  20
ENDBRANCH   1  16
TORSDOF 6
ENDMDL
MODEL 9
REMARK VINA RESULT:    -5.706      4.003      6.328
REMARK INTER + INTRA:          -8.248
REMARK INTER:                  -7.705
REMARK INTRA:                  -0.543
REMARK UNBOUND:                -0.708
REMARK  Name = 
REMARK  6 active torsions:
REMARK  status: ('A' for Active; 'I' for Inactive)
REMARK    1  A    between atoms: N_1  and  C_2
REMARK    2  A    between atoms: C_2  and  C_3
REMARK    3  A    between atoms: C_3  and  C_4
REMARK    4  A    between atoms: C_7  and  C_8
REMARK    5  A    between atoms: C_8  and  N_9
REMARK    6  A    between atoms: C_16  and  C_17
REMARK                            x       y       z     vdW  Elec       q    Type
REMARK                         _______ _______ _______ _____ _____    ______ ____
ROOT
ATOM      1  N   UNL     1      47.351   7.380  13.531  0.00  0.00    +0.000 N 
ATOM      2  C   UNL     1      48.215   6.745  14.383  0.00  0.00    +0.000 A 
ATOM      3  N   UNL     1      47.927   5.470  14.498  0.00  0.00    +0.000 NA
ATOM      4  C   UNL     1      46.813   5.282  13.722  0.00  0.00    +0.000 A 
ATOM      5  C   UNL     1      46.150   4.093  13.396  0.00  0.00    +0.000 A 
ATOM      6  C   UNL     1      45.025   4.167  12.573  0.00  0.00    +0.000 A 
ATOM      7  F   UNL     1      44.452   3.006  12.213  0.00  0.00    +0.000 F 
ATOM      8  C   UNL     1      44.512   5.389  12.127  0.00  0.00    +0.000 A 
ATOM      9  C   UNL     1      45.171   6.590  12.452  0.00  0.00    +0.000 A 
ATOM     10  C   UNL     1      46.352   6.489  13.204  0.00  0.00    +0.000 A 
ENDROOT
BRANCH   8  11
ATOM     11  C   UNL     1      43.292   5.477  11.280  0.00  0.00    +0.000 C 
ATOM     12  N   UNL     1      42.191   6.095  11.800  0.00  0.00    +0.000 N 
ATOM     13  O   UNL     1      43.262   4.999  10.152  0.00  0.00    +0.000 OA
ATOM     14  H   UNL     1      42.173   6.498  12.729  0.00  0.00    +0.000 HD
ATOM     15  H   UNL     1      41.360   6.156  11.230  0.00  0.00    +0.000 HD
ENDBRANCH   8  11
BRANCH   1  16
ATOM     16  C   UNL     1      47.629   8.652  12.878  0.00  0.00    +0.000 C 
BRANCH  16  20
ATOM     17  C   UNL     1      51.719   8.457  11.450  0.00  0.00    +0.000 A 
ATOM     18  C   UNL     1      50.742   7.602  10.929  0.00  0.00    +0.000 A 
ATOM     19  C   UNL     1      49.415   7.695  11.360  0.00  0.00    +0.000 A 
ATOM     20  C   UNL     1      49.034   8.648  12.313  0.00  0.00    +0.000 A 
ATOM     21  C   UNL     1      50.011   9.531  12.803  0.00  0.00    +0.000 A 
ATOM     22  C   UNL     1      51.338   9.438  12.374  0.00  0.00    +0.000 A 
BRANCH  17  23
ATOM     23  C   UNL     1      53.166   8.315  11.034  0.00  0.00    +0.000 C 
BRANCH  23  24
ATOM     24  C   UNL     1      53.405   7.102  10.130  0.00  0.00    +0.000 C 
BRANCH  24  25
ATOM     25  N   UNL     1      54.012   6.001  10.880  0.00  0.00    +0.000 NA
ATOM     26  H   UNL     1      54.051   5.171  10.289  0.00  0.00    +0.000 HD
ATOM     27  H   UNL     1      53.417   5.756  11.671  0.00  0.00    +0.000 HD
ENDBRANCH  24  25
ENDBRANCH  23  24
ENDBRANCH  17  23
ENDBRANCH  16  20
ENDBRANCH   1  16
TORSDOF 6
ENDMDL
