MODEL 1
REMARK VINA RESULT:    -8.161      0.000      0.000
REMARK INTER + INTRA:         -11.721
REMARK INTER:                 -10.546
REMARK INTRA:                  -1.175
REMARK UNBOUND:                -1.175
REMARK  Name = 
REMARK  5 active torsions:
REMARK  status: ('A' for Active; 'I' for Inactive)
REMARK    1  A    between atoms: C_2  and  C_3
REMARK    2  A    between atoms: C_6  and  C_7
REMARK    3  A    between atoms: C_11  and  C_12
REMARK    4  A    between atoms: C_12  and  N_13
REMARK    5  A    between atoms: C_17  and  C_18
REMARK                            x       y       z     vdW  Elec       q    Type
REMARK                         _______ _______ _______ _____ _____    ______ ____
ROOT
ATOM      1  C   UNL     1      44.061   4.860  11.780  0.00  0.00    +0.000 C 
ATOM      2  C   UNL     1      42.820   5.035  12.665  0.00  0.00    +0.000 C 
ATOM      3  C   UNL     1      43.168   6.086  11.679  0.00  0.00    +0.000 C 
ATOM      4  F   UNL     1      42.272   6.242  10.639  0.00  0.00    +0.000 F 
ENDROOT
BRANCH   1   5
ATOM      5  N   UNL     1      44.016   3.657  10.911  0.00  0.00    +0.000 N 
ATOM      6  C   UNL     1      44.874   3.404   9.836  0.00  0.00    +0.000 A 
ATOM      7  C   UNL     1      45.351   4.397   8.994  0.00  0.00    +0.000 A 
ATOM      8  C   UNL     1      46.106   4.059   7.874  0.00  0.00    +0.000 A 
ATOM      9  C   UNL     1      46.377   2.723   7.605  0.00  0.00    +0.000 A 
ATOM     10  C   UNL     1      45.892   1.786   8.502  0.00  0.00    +0.000 A 
ATOM     11  N   UNL     1      45.143   2.098   9.596  0.00  0.00    +0.000 NA
ATOM     12  H   UNL     1      43.895   2.764  11.383  0.00  0.00    +0.000 HD
BRANCH   9  13
ATOM     13  C   UNL     1      47.163   2.384   6.402  0.00  0.00    +0.000 C 
ATOM     14  N   UNL     1      47.129   3.249   5.345  0.00  0.00    +0.000 N 
ATOM     15  O   UNL     1      47.872   1.386   6.367  0.00  0.00    +0.000 OA
ATOM     16  H   UNL     1      46.788   4.197   5.419  0.00  0.00    +0.000 HD
ATOM     17  H   UNL     1      47.799   3.057   4.609  0.00  0.00    +0.000 HD
ENDBRANCH   9  13
ENDBRANCH   1   5
BRANCH   1  22
ATOM     18  C   UNL     1      47.551   6.300  12.653  0.00  0.00    +0.000 A 
ATOM     19  C   UNL     1      47.922   5.435  13.694  0.00  0.00    +0.000 A 
ATOM     20  C   UNL     1      47.079   4.406  14.121  0.00  0.00    +0.000 A 
ATOM     21  C   UNL     1      45.832   4.227  13.524  0.00  0.00    +0.000 A 
ATOM     22  C   UNL     1      45.416   5.046  12.466  0.00  0.00    +0.000 A 
ATOM     23  C   UNL     1      46.301   6.063  12.047  0.00  0.00    +0.000 A 
BRANCH  18  27
ATOM     24  C   UNL     1      50.079   9.561  11.359  0.00  0.00    +0.000 A 
ATOM     25  C   UNL     1      50.598   8.272  11.469  0.00  0.00    +0.000 A 
ATOM     26  C   UNL     1      49.770   7.222  11.886  0.00  0.00    +0.000 A 
ATOM     27  C   UNL     1      48.415   7.427  12.219  0.00  0.00    +0.000 A 
ATOM     28  C   UNL     1      47.924   8.738  12.106  0.00  0.00    +0.000 A 
ATOM     29  C   UNL     1      48.744   9.782  11.676  0.00  0.00    +0.000 A 
ATOM     30  F   UNL     1      48.215  11.009  11.570  0.00  0.00    +0.000 F 
BRANCH  24  32
ATOM     31  N   UNL     1      51.601  11.512  10.592  0.00  0.00    +0.000 NA
ATOM     32  C   UNL     1      50.908  10.638  10.920  0.00  0.00    +0.000 C 
ENDBRANCH  24  32
ENDBRANCH  18  27
ENDBRANCH   1  22
TORSDOF 5
ENDMDL
MODEL 2
REMARK VINA RESULT:    -7.732      3.254      4.606
REMARK INTER + INTRA:         -11.167
REMARK INTER:                 -11.379
REMARK INTRA:                   0.212
REMARK UNBOUND:                -1.175
REMARK  Name = 
REMARK  5 active torsions:
REMARK  status: ('A' for Active; 'I' for Inactive)
REMARK    1  A    between atoms: C_2  and  C_3
REMARK    2  A    between atoms: C_6  and  C_7
REMARK    3  A    between atoms: C_11  and  C_12
REMARK    4  A    between atoms: C_12  and  N_13
REMARK    5  A    between atoms: C_17  and  C_18
REMARK                            x       y       z     vdW  Elec       q    Type
REMARK                         _______ _______ _______ _____ _____    ______ ____
ROOT
ATOM      1  C   UNL     1      43.965   4.713  11.890  0.00  0.00    +0.000 C 
ATOM      2  C   UNL     1      43.003   4.540  13.072  0.00  0.00    +0.000 C 
ATOM      3  C   UNL     1      42.751   5.609  12.076  0.00  0.00    +0.000 C 
ATOM      4  F   UNL     1      41.613   5.450  11.312  0.00  0.00    +0.000 F 
ENDROOT
BRANCH   1   5
ATOM      5  N   UNL     1      44.059   3.521  11.010  0.00  0.00    +0.000 N 
ATOM      6  C   UNL     1      44.881   3.409   9.884  0.00  0.00    +0.000 A 
ATOM      7  C   UNL     1      45.144   4.468   9.028  0.00  0.00    +0.000 A 
ATOM      8  C   UNL     1      45.876   4.256   7.861  0.00  0.00    +0.000 A 
ATOM      9  C   UNL     1      46.338   2.980   7.562  0.00  0.00    +0.000 A 
ATOM     10  C   UNL     1      46.061   1.976   8.474  0.00  0.00    +0.000 A 
ATOM     11  N   UNL     1      45.338   2.162   9.613  0.00  0.00    +0.000 NA
ATOM     12  H   UNL     1      44.109   2.618  11.477  0.00  0.00    +0.000 HD
BRANCH   9  13
ATOM     13  C   UNL     1      47.095   2.773   6.311  0.00  0.00    +0.000 C 
ATOM     14  N   UNL     1      48.435   2.526   6.402  0.00  0.00    +0.000 N 
ATOM     15  O   UNL     1      46.532   2.766   5.223  0.00  0.00    +0.000 OA
ATOM     16  H   UNL     1      48.889   2.258   7.262  0.00  0.00    +0.000 HD
ATOM     17  H   UNL     1      48.880   2.238   5.537  0.00  0.00    +0.000 HD
ENDBRANCH   9  13
ENDBRANCH   1   5
BRANCH   1  22
ATOM     18  C   UNL     1      47.179   5.670  13.831  0.00  0.00    +0.000 A 
ATOM     19  C   UNL     1      47.845   6.424  12.852  0.00  0.00    +0.000 A 
ATOM     20  C   UNL     1      47.287   6.630  11.588  0.00  0.00    +0.000 A 
ATOM     21  C   UNL     1      46.051   6.069  11.266  0.00  0.00    +0.000 A 
ATOM     22  C   UNL     1      45.332   5.324  12.209  0.00  0.00    +0.000 A 
ATOM     23  C   UNL     1      45.916   5.153  13.483  0.00  0.00    +0.000 A 
BRANCH  18  27
ATOM     24  C   UNL     1      48.920   4.930  17.720  0.00  0.00    +0.000 A 
ATOM     25  C   UNL     1      49.307   6.044  16.978  0.00  0.00    +0.000 A 
ATOM     26  C   UNL     1      48.736   6.277  15.721  0.00  0.00    +0.000 A 
ATOM     27  C   UNL     1      47.780   5.403  15.162  0.00  0.00    +0.000 A 
ATOM     28  C   UNL     1      47.416   4.285  15.930  0.00  0.00    +0.000 A 
ATOM     29  C   UNL     1      47.974   4.061  17.190  0.00  0.00    +0.000 A 
ATOM     30  F   UNL     1      47.574   2.986  17.885  0.00  0.00    +0.000 F 
BRANCH  24  32
ATOM     31  N   UNL     1      49.955   4.528  20.061  0.00  0.00    +0.000 NA
ATOM     32  C   UNL     1      49.483   4.690  19.010  0.00  0.00    +0.000 C 
ENDBRANCH  24  32
ENDBRANCH  18  27
ENDBRANCH   1  22
TORSDOF 5
ENDMDL
MODEL 3
REMARK VINA RESULT:    -6.652      5.546      8.732
REMARK INTER + INTRA:          -9.770
REMARK INTER:                  -8.522
REMARK INTRA:                  -1.249
REMARK UNBOUND:                -1.175
REMARK  Name = 
REMARK  5 active torsions:
REMARK  status: ('A' for Active; 'I' for Inactive)
REMARK    1  A    between atoms: C_2  and  C_3
REMARK    2  A    between atoms: C_6  and  C_7
REMARK    3  A    between atoms: C_11  and  C_12
REMARK    4  A    between atoms: C_12  and  N_13
REMARK    5  A    between atoms: C_17  and  C_18
REMARK                            x       y       z     vdW  Elec       q    Type
REMARK                         _______ _______ _______ _____ _____    ______ ____
ROOT
ATOM      1  C   UNL     1      49.510   7.132  17.750  0.00  0.00    +0.000 C 
ATOM      2  C   UNL     1      49.105   8.395  18.520  0.00  0.00    +0.000 C 
ATOM      3  C   UNL     1      48.169   7.247  18.457  0.00  0.00    +0.000 C 
ATOM      4  F   UNL     1      47.930   6.610  19.659  0.00  0.00    +0.000 F 
ENDROOT
BRANCH   1   5
ATOM      5  N   UNL     1      50.733   6.473  18.273  0.00  0.00    +0.000 N 
ATOM      6  C   UNL     1      51.112   5.151  18.020  0.00  0.00    +0.000 A 
ATOM      7  C   UNL     1      50.203   4.109  17.908  0.00  0.00    +0.000 A 
ATOM      8  C   UNL     1      50.657   2.799  17.772  0.00  0.00    +0.000 A 
ATOM      9  C   UNL     1      52.022   2.544  17.752  0.00  0.00    +0.000 A 
ATOM     10  C   UNL     1      52.872   3.633  17.842  0.00  0.00    +0.000 A 
ATOM     11  N   UNL     1      52.446   4.919  17.987  0.00  0.00    +0.000 NA
ATOM     12  H   UNL     1      51.592   7.018  18.231  0.00  0.00    +0.000 HD
BRANCH   9  13
ATOM     13  C   UNL     1      52.483   1.146  17.627  0.00  0.00    +0.000 C 
ATOM     14  N   UNL     1      51.678   0.157  18.115  0.00  0.00    +0.000 N 
ATOM     15  O   UNL     1      53.530   0.872  17.053  0.00  0.00    +0.000 OA
ATOM     16  H   UNL     1      50.706   0.300  18.347  0.00  0.00    +0.000 HD
ATOM     17  H   UNL     1      51.959  -0.787  17.870  0.00  0.00    +0.000 HD
ENDBRANCH   9  13
ENDBRANCH   1   5
BRANCH   1  22
ATOM     18  C   UNL     1      48.472   6.590  14.056  0.00  0.00    +0.000 A 
ATOM     19  C   UNL     1      49.430   7.387  13.410  0.00  0.00    +0.000 A 
ATOM     20  C   UNL     1      50.395   8.092  14.132  0.00  0.00    +0.000 A 
ATOM     21  C   UNL     1      50.416   8.029  15.525  0.00  0.00    +0.000 A 
ATOM     22  C   UNL     1      49.498   7.234  16.223  0.00  0.00    +0.000 A 
ATOM     23  C   UNL     1      48.549   6.519  15.461  0.00  0.00    +0.000 A 
BRANCH  18  27
ATOM     24  C   UNL     1      45.359   4.495  11.906  0.00  0.00    +0.000 A 
ATOM     25  C   UNL     1      45.866   3.971  13.093  0.00  0.00    +0.000 A 
ATOM     26  C   UNL     1      46.872   4.658  13.784  0.00  0.00    +0.000 A 
ATOM     27  C   UNL     1      47.411   5.871  13.307  0.00  0.00    +0.000 A 
ATOM     28  C   UNL     1      46.885   6.370  12.103  0.00  0.00    +0.000 A 
ATOM     29  C   UNL     1      45.872   5.693  11.422  0.00  0.00    +0.000 A 
ATOM     30  F   UNL     1      45.397   6.226  10.287  0.00  0.00    +0.000 F 
BRANCH  24  32
ATOM     31  N   UNL     1      43.467   3.288  10.612  0.00  0.00    +0.000 NA
ATOM     32  C   UNL     1      44.322   3.812  11.200  0.00  0.00    +0.000 C 
ENDBRANCH  24  32
ENDBRANCH  18  27
ENDBRANCH   1  22
TORSDOF 5
ENDMDL
MODEL 4
REMARK VINA RESULT:    -6.551      4.405      8.798
REMARK INTER + INTRA:          -9.640
REMARK INTER:                  -8.638
REMARK INTRA:                  -1.002
REMARK UNBOUND:                -1.175
REMARK  Name = 
REMARK  5 active torsions:
REMARK  status: ('A' for Active; 'I' for Inactive)
REMARK    1  A    between atoms: C_2  and  C_3
REMARK    2  A    between atoms: C_6  and  C_7
REMARK    3  A    between atoms: C_11  and  C_12
REMARK    4  A    between atoms: C_12  and  N_13
REMARK    5  A    between atoms: C_17  and  C_18
REMARK                            x       y       z     vdW  Elec       q    Type
REMARK                         _______ _______ _______ _____ _____    ______ ____
ROOT
ATOM      1  C   UNL     1      50.563   8.518  13.350  0.00  0.00    +0.000 C 
ATOM      2  C   UNL     1      51.650   8.486  12.268  0.00  0.00    +0.000 C 
ATOM      3  C   UNL     1      51.505   9.689  13.122  0.00  0.00    +0.000 C 
ATOM      4  F   UNL     1      52.562   9.942  13.973  0.00  0.00    +0.000 F 
ENDROOT
BRANCH   1   5
ATOM      5  N   UNL     1      50.705   7.455  14.377  0.00  0.00    +0.000 N 
ATOM      6  C   UNL     1      49.866   7.281  15.482  0.00  0.00    +0.000 A 
ATOM      7  C   UNL     1      49.302   8.338  16.181  0.00  0.00    +0.000 A 
ATOM      8  C   UNL     1      48.571   8.095  17.343  0.00  0.00    +0.000 A 
ATOM      9  C   UNL     1      48.413   6.791  17.795  0.00  0.00    +0.000 A 
ATOM     10  C   UNL     1      48.980   5.784  17.034  0.00  0.00    +0.000 A 
ATOM     11  N   UNL     1      49.707   6.003  15.903  0.00  0.00    +0.000 NA
ATOM     12  H   UNL     1      50.904   6.519  14.033  0.00  0.00    +0.000 HD
BRANCH   9  13
ATOM     13  C   UNL     1      47.652   6.557  19.039  0.00  0.00    +0.000 C 
ATOM     14  N   UNL     1      46.672   5.606  19.024  0.00  0.00    +0.000 N 
ATOM     15  O   UNL     1      47.926   7.154  20.072  0.00  0.00    +0.000 OA
ATOM     16  H   UNL     1      46.587   4.911  18.297  0.00  0.00    +0.000 HD
ATOM     17  H   UNL     1      46.285   5.372  19.933  0.00  0.00    +0.000 HD
ENDBRANCH   9  13
ENDBRANCH   1   5
BRANCH   1  22
ATOM     18  C   UNL     1      46.961   7.641  12.222  0.00  0.00    +0.000 A 
ATOM     19  C   UNL     1      46.462   8.927  11.964  0.00  0.00    +0.000 A 
ATOM     20  C   UNL     1      47.253  10.064  12.147  0.00  0.00    +0.000 A 
ATOM     21  C   UNL     1      48.563   9.941  12.608  0.00  0.00    +0.000 A 
ATOM     22  C   UNL     1      49.122   8.683  12.862  0.00  0.00    +0.000 A 
ATOM     23  C   UNL     1      48.302   7.554  12.648  0.00  0.00    +0.000 A 
BRANCH  18  27
ATOM     24  C   UNL     1      44.500   4.106  11.841  0.00  0.00    +0.000 A 
ATOM     25  C   UNL     1      45.439   4.199  12.866  0.00  0.00    +0.000 A 
ATOM     26  C   UNL     1      46.230   5.349  12.983  0.00  0.00    +0.000 A 
ATOM     27  C   UNL     1      46.120   6.426  12.078  0.00  0.00    +0.000 A 
ATOM     28  C   UNL     1      45.169   6.299  11.051  0.00  0.00    +0.000 A 
ATOM     29  C   UNL     1      44.371   5.159  10.944  0.00  0.00    +0.000 A 
ATOM     30  F   UNL     1      43.468   5.101   9.954  0.00  0.00    +0.000 F 
BRANCH  24  32
ATOM     31  N   UNL     1      42.977   2.021  11.618  0.00  0.00    +0.000 NA
ATOM     32  C   UNL     1      43.676   2.945  11.721  0.00  0.00    +0.000 C 
ENDBRANCH  24  32
ENDBRANCH  18  27
ENDBRANCH   1  22
TORSDOF 5
ENDMDL
MODEL 5
REMARK VINA RESULT:    -6.475      4.536      7.189
REMARK INTER + INTRA:          -9.542
REMARK INTER:                  -8.375
REMARK INTRA:                  -1.167
REMARK UNBOUND:                -1.175
REMARK  Name = 
REMARK  5 active torsions:
REMARK  status: ('A' for Active; 'I' for Inactive)
REMARK    1  A    between atoms: C_2  and  C_3
REMARK    2  A    between atoms: C_6  and  C_7
REMARK    3  A    between atoms: C_11  and  C_12
REMARK    4  A    between atoms: C_12  and  N_13
REMARK    5  A    between atoms: C_17  and  C_18
REMARK                            x       y       z     vdW  Elec       q    Type
REMARK                         _______ _______ _______ _____ _____    ______ ____
ROOT
ATOM      1  C   UNL     1      48.410   9.536  14.083  0.00  0.00    +0.000 C 
ATOM      2  C   UNL     1      49.047  10.926  13.955  0.00  0.00    +0.000 C 
ATOM      3  C   UNL     1      49.755   9.744  13.406  0.00  0.00    +0.000 C 
ATOM      4  F   UNL     1      49.883   9.716  12.031  0.00  0.00    +0.000 F 
ENDROOT
BRANCH   1   5
ATOM      5  N   UNL     1      47.090   9.414  13.414  0.00  0.00    +0.000 N 
ATOM      6  C   UNL     1      46.569   8.240  12.861  0.00  0.00    +0.000 A 
ATOM      7  C   UNL     1      47.350   7.291  12.218  0.00  0.00    +0.000 A 
ATOM      8  C   UNL     1      46.750   6.204  11.588  0.00  0.00    +0.000 A 
ATOM      9  C   UNL     1      45.366   6.076  11.607  0.00  0.00    +0.000 A 
ATOM     10  C   UNL     1      44.651   7.046  12.289  0.00  0.00    +0.000 A 
ATOM     11  N   UNL     1      45.220   8.122  12.900  0.00  0.00    +0.000 NA
ATOM     12  H   UNL     1      46.307   9.873  13.873  0.00  0.00    +0.000 HD
BRANCH   9  13
ATOM     13  C   UNL     1      44.748   4.927  10.917  0.00  0.00    +0.000 C 
ATOM     14  N   UNL     1      43.731   5.174  10.039  0.00  0.00    +0.000 N 
ATOM     15  O   UNL     1      45.167   3.788  11.081  0.00  0.00    +0.000 OA
ATOM     16  H   UNL     1      43.532   6.092   9.670  0.00  0.00    +0.000 HD
ATOM     17  H   UNL     1      43.445   4.379   9.477  0.00  0.00    +0.000 HD
ENDBRANCH   9  13
ENDBRANCH   1   5
BRANCH   1  22
ATOM     18  C   UNL     1      48.963   6.965  16.929  0.00  0.00    +0.000 A 
ATOM     19  C   UNL     1      48.484   7.700  18.024  0.00  0.00    +0.000 A 
ATOM     20  C   UNL     1      47.991   8.998  17.869  0.00  0.00    +0.000 A 
ATOM     21  C   UNL     1      47.980   9.599  16.611  0.00  0.00    +0.000 A 
ATOM     22  C   UNL     1      48.427   8.907  15.478  0.00  0.00    +0.000 A 
ATOM     23  C   UNL     1      48.900   7.591  15.668  0.00  0.00    +0.000 A 
BRANCH  18  27
ATOM     24  C   UNL     1      50.641   3.009  17.415  0.00  0.00    +0.000 A 
ATOM     25  C   UNL     1      51.453   4.134  17.535  0.00  0.00    +0.000 A 
ATOM     26  C   UNL     1      50.900   5.412  17.379  0.00  0.00    +0.000 A 
ATOM     27  C   UNL     1      49.534   5.603  17.084  0.00  0.00    +0.000 A 
ATOM     28  C   UNL     1      48.742   4.448  16.961  0.00  0.00    +0.000 A 
ATOM     29  C   UNL     1      49.290   3.176  17.132  0.00  0.00    +0.000 A 
ATOM     30  F   UNL     1      48.483   2.111  17.021  0.00  0.00    +0.000 F 
BRANCH  24  32
ATOM     31  N   UNL     1      51.604   0.623  17.718  0.00  0.00    +0.000 NA
ATOM     32  C   UNL     1      51.189   1.701  17.588  0.00  0.00    +0.000 C 
ENDBRANCH  24  32
ENDBRANCH  18  27
ENDBRANCH   1  22
TORSDOF 5
ENDMDL
MODEL 6
REMARK VINA RESULT:    -6.402      3.720      5.376
REMARK INTER + INTRA:          -9.448
REMARK INTER:                  -8.283
REMARK INTRA:                  -1.165
REMARK UNBOUND:                -1.175
REMARK  Name = 
REMARK  5 active torsions:
REMARK  status: ('A' for Active; 'I' for Inactive)
REMARK    1  A    between atoms: C_2  and  C_3
REMARK    2  A    between atoms: C_6  and  C_7
REMARK    3  A    between atoms: C_11  and  C_12
REMARK    4  A    between atoms: C_12  and  N_13
REMARK    5  A    between atoms: C_17  and  C_18
REMARK                            x       y       z     vdW  Elec       q    Type
REMARK                         _______ _______ _______ _____ _____    ______ ____
ROOT
ATOM      1  C   UNL     1      45.476   8.181  11.942  0.00  0.00    +0.000 C 
ATOM      2  C   UNL     1      44.859   9.438  12.570  0.00  0.00    +0.000 C 
ATOM      3  C   UNL     1      45.358   9.489  11.176  0.00  0.00    +0.000 C 
ATOM      4  F   UNL     1      44.392   9.673  10.206  0.00  0.00    +0.000 F 
ENDROOT
BRANCH   1   5
ATOM      5  N   UNL     1      44.547   7.026  11.870  0.00  0.00    +0.000 N 
ATOM      6  C   UNL     1      44.781   5.843  11.161  0.00  0.00    +0.000 A 
ATOM      7  C   UNL     1      45.444   5.805   9.945  0.00  0.00    +0.000 A 
ATOM      8  C   UNL     1      45.539   4.608   9.238  0.00  0.00    +0.000 A 
ATOM      9  C   UNL     1      44.964   3.455   9.760  0.00  0.00    +0.000 A 
ATOM     10  C   UNL     1      44.341   3.560  10.992  0.00  0.00    +0.000 A 
ATOM     11  N   UNL     1      44.228   4.724  11.690  0.00  0.00    +0.000 NA
ATOM     12  H   UNL     1      44.112   6.741  12.744  0.00  0.00    +0.000 HD
BRANCH   9  13
ATOM     13  C   UNL     1      45.058   2.200   8.987  0.00  0.00    +0.000 C 
ATOM     14  N   UNL     1      46.149   2.018   8.185  0.00  0.00    +0.000 N 
ATOM     15  O   UNL     1      44.214   1.320   9.101  0.00  0.00    +0.000 OA
ATOM     16  H   UNL     1      46.987   2.575   8.259  0.00  0.00    +0.000 HD
ATOM     17  H   UNL     1      46.248   1.086   7.798  0.00  0.00    +0.000 HD
ENDBRANCH   9  13
ENDBRANCH   1   5
BRANCH   1  22
ATOM     18  C   UNL     1      48.314   6.897  14.247  0.00  0.00    +0.000 A 
ATOM     19  C   UNL     1      49.417   7.056  13.393  0.00  0.00    +0.000 A 
ATOM     20  C   UNL     1      49.269   7.562  12.100  0.00  0.00    +0.000 A 
ATOM     21  C   UNL     1      48.006   7.908  11.621  0.00  0.00    +0.000 A 
ATOM     22  C   UNL     1      46.871   7.791  12.434  0.00  0.00    +0.000 A 
ATOM     23  C   UNL     1      47.059   7.295  13.742  0.00  0.00    +0.000 A 
BRANCH  18  27
ATOM     24  C   UNL     1      48.692   5.242  18.224  0.00  0.00    +0.000 A 
ATOM     25  C   UNL     1      49.281   6.466  17.914  0.00  0.00    +0.000 A 
ATOM     26  C   UNL     1      49.151   6.995  16.624  0.00  0.00    +0.000 A 
ATOM     27  C   UNL     1      48.448   6.317  15.607  0.00  0.00    +0.000 A 
ATOM     28  C   UNL     1      47.871   5.082  15.947  0.00  0.00    +0.000 A 
ATOM     29  C   UNL     1      47.988   4.562  17.237  0.00  0.00    +0.000 A 
ATOM     30  F   UNL     1      47.401   3.387  17.509  0.00  0.00    +0.000 F 
BRANCH  24  32
ATOM     31  N   UNL     1      48.880   4.226  20.600  0.00  0.00    +0.000 NA
ATOM     32  C   UNL     1      48.803   4.699  19.540  0.00  0.00    +0.000 C 
ENDBRANCH  24  32
ENDBRANCH  18  27
ENDBRANCH   1  22
TORSDOF 5
ENDMDL
MODEL 7
REMARK VINA RESULT:    -6.257      4.010      6.130
REMARK INTER + INTRA:          -9.261
REMARK INTER:                  -8.960
REMARK INTRA:                  -0.301
REMARK UNBOUND:                -1.175
REMARK  Name = 
REMARK  5 active torsions:
REMARK  status: ('A' for Active; 'I' for Inactive)
REMARK    1  A    between atoms: C_2  and  C_3
REMARK    2  A    between atoms: C_6  and  C_7
REMARK    3  A    between atoms: C_11  and  C_12
REMARK    4  A    between atoms: C_12  and  N_13
REMARK    5  A    between atoms: C_17  and  C_18
REMARK                            x       y       z     vdW  Elec       q    Type
REMARK                         _______ _______ _______ _____ _____    ______ ____
ROOT
ATOM      1  C   UNL     1      45.924   4.766  12.706  0.00  0.00    +0.000 C 
ATOM      2  C   UNL     1      44.521   4.426  13.225  0.00  0.00    +0.000 C 
ATOM      3  C   UNL     1      44.827   4.256  11.785  0.00  0.00    +0.000 C 
ATOM      4  F   UNL     1      44.817   2.954  11.326  0.00  0.00    +0.000 F 
ENDROOT
BRANCH   1   5
ATOM      5  N   UNL     1      47.006   3.960  13.325  0.00  0.00    +0.000 N 
ATOM      6  C   UNL     1      47.348   3.971  14.681  0.00  0.00    +0.000 A 
ATOM      7  C   UNL     1      47.301   5.113  15.466  0.00  0.00    +0.000 A 
ATOM      8  C   UNL     1      47.768   5.077  16.778  0.00  0.00    +0.000 A 
ATOM      9  C   UNL     1      48.281   3.893  17.293  0.00  0.00    +0.000 A 
ATOM     10  C   UNL     1      48.273   2.786  16.462  0.00  0.00    +0.000 A 
ATOM     11  N   UNL     1      47.831   2.805  15.174  0.00  0.00    +0.000 NA
ATOM     12  H   UNL     1      47.066   2.987  13.034  0.00  0.00    +0.000 HD
BRANCH   9  13
ATOM     13  C   UNL     1      48.789   3.881  18.680  0.00  0.00    +0.000 C 
ATOM     14  N   UNL     1      48.227   3.004  19.564  0.00  0.00    +0.000 N 
ATOM     15  O   UNL     1      49.725   4.593  19.019  0.00  0.00    +0.000 OA
ATOM     16  H   UNL     1      47.653   2.224  19.279  0.00  0.00    +0.000 HD
ATOM     17  H   UNL     1      48.707   2.922  20.453  0.00  0.00    +0.000 HD
ENDBRANCH   9  13
ENDBRANCH   1   5
BRANCH   1  22
ATOM     18  C   UNL     1      47.934   8.018  12.078  0.00  0.00    +0.000 A 
ATOM     19  C   UNL     1      46.967   8.977  12.418  0.00  0.00    +0.000 A 
ATOM     20  C   UNL     1      45.689   8.603  12.840  0.00  0.00    +0.000 A 
ATOM     21  C   UNL     1      45.342   7.255  12.918  0.00  0.00    +0.000 A 
ATOM     22  C   UNL     1      46.272   6.253  12.611  0.00  0.00    +0.000 A 
ATOM     23  C   UNL     1      47.560   6.666  12.207  0.00  0.00    +0.000 A 
BRANCH  18  27
ATOM     24  C   UNL     1      51.861   9.153  10.667  0.00  0.00    +0.000 A 
ATOM     25  C   UNL     1      50.935  10.130  11.026  0.00  0.00    +0.000 A 
ATOM     26  C   UNL     1      49.667   9.753  11.485  0.00  0.00    +0.000 A 
ATOM     27  C   UNL     1      49.281   8.400  11.583  0.00  0.00    +0.000 A 
ATOM     28  C   UNL     1      50.233   7.438  11.207  0.00  0.00    +0.000 A 
ATOM     29  C   UNL     1      51.503   7.814  10.764  0.00  0.00    +0.000 A 
ATOM     30  F   UNL     1      52.377   6.852  10.436  0.00  0.00    +0.000 F 
BRANCH  24  32
ATOM     31  N   UNL     1      54.237   9.797   9.859  0.00  0.00    +0.000 NA
ATOM     32  C   UNL     1      53.163   9.524  10.214  0.00  0.00    +0.000 C 
ENDBRANCH  24  32
ENDBRANCH  18  27
ENDBRANCH   1  22
TORSDOF 5
ENDMDL
MODEL 8
REMARK VINA RESULT:    -6.181      4.952      7.233
REMARK INTER + INTRA:          -9.162
REMARK INTER:                  -7.944
REMARK INTRA:                  -1.219
REMARK UNBOUND:                -1.175
REMARK  Name = 
REMARK  5 active torsions:
REMARK  status: ('A' for Active; 'I' for Inactive)
REMARK    1  A    between atoms: C_2  and  C_3
REMARK    2  A    between atoms: C_6  and  C_7
REMARK    3  A    between atoms: C_11  and  C_12
REMARK    4  A    between atoms: C_12  and  N_13
REMARK    5  A    between atoms: C_17  and  C_18
REMARK                            x       y       z     vdW  Elec       q    Type
REMARK                         _______ _______ _______ _____ _____    ______ ____
ROOT
ATOM      1  C   UNL     1      48.927   8.457  12.975  0.00  0.00    +0.000 C 
ATOM      2  C   UNL     1      49.789   9.609  12.443  0.00  0.00    +0.000 C 
ATOM      3  C   UNL     1      50.221   8.208  12.218  0.00  0.00    +0.000 C 
ATOM      4  F   UNL     1      50.218   7.791  10.902  0.00  0.00    +0.000 F 
ENDROOT
BRANCH   1   5
ATOM      5  N   UNL     1      47.552   8.426  12.414  0.00  0.00    +0.000 N 
ATOM      6  C   UNL     1      46.656   7.358  12.529  0.00  0.00    +0.000 A 
ATOM      7  C   UNL     1      47.051   6.029  12.502  0.00  0.00    +0.000 A 
ATOM      8  C   UNL     1      46.094   5.017  12.504  0.00  0.00    +0.000 A 
ATOM      9  C   UNL     1      44.744   5.347  12.531  0.00  0.00    +0.000 A 
ATOM     10  C   UNL     1      44.423   6.693  12.584  0.00  0.00    +0.000 A 
ATOM     11  N   UNL     1      45.344   7.696  12.571  0.00  0.00    +0.000 NA
ATOM     12  H   UNL     1      46.995   9.267  12.538  0.00  0.00    +0.000 HD
BRANCH   9  13
ATOM     13  C   UNL     1      43.745   4.260  12.513  0.00  0.00    +0.000 C 
ATOM     14  N   UNL     1      42.665   4.392  11.687  0.00  0.00    +0.000 N 
ATOM     15  O   UNL     1      43.903   3.241  13.174  0.00  0.00    +0.000 OA
ATOM     16  H   UNL     1      42.623   5.067  10.937  0.00  0.00    +0.000 HD
ATOM     17  H   UNL     1      42.092   3.561  11.591  0.00  0.00    +0.000 HD
ENDBRANCH   9  13
ENDBRANCH   1   5
BRANCH   1  22
ATOM     18  C   UNL     1      49.752   6.896  16.424  0.00  0.00    +0.000 A 
ATOM     19  C   UNL     1      49.043   7.767  17.266  0.00  0.00    +0.000 A 
ATOM     20  C   UNL     1      48.310   8.840  16.753  0.00  0.00    +0.000 A 
ATOM     21  C   UNL     1      48.283   9.078  15.379  0.00  0.00    +0.000 A 
ATOM     22  C   UNL     1      48.955   8.231  14.488  0.00  0.00    +0.000 A 
ATOM     23  C   UNL     1      49.669   7.145  15.040  0.00  0.00    +0.000 A 
BRANCH  18  27
ATOM     24  C   UNL     1      52.123   3.619  17.954  0.00  0.00    +0.000 A 
ATOM     25  C   UNL     1      50.734   3.524  17.920  0.00  0.00    +0.000 A 
ATOM     26  C   UNL     1      49.974   4.589  17.420  0.00  0.00    +0.000 A 
ATOM     27  C   UNL     1      50.573   5.780  16.957  0.00  0.00    +0.000 A 
ATOM     28  C   UNL     1      51.975   5.849  17.011  0.00  0.00    +0.000 A 
ATOM     29  C   UNL     1      52.732   4.781  17.495  0.00  0.00    +0.000 A 
ATOM     30  F   UNL     1      54.068   4.897  17.506  0.00  0.00    +0.000 F 
BRANCH  24  32
ATOM     31  N   UNL     1      53.521   1.631  18.851  0.00  0.00    +0.000 NA
ATOM     32  C   UNL     1      52.910   2.534  18.446  0.00  0.00    +0.000 C 
ENDBRANCH  24  32
ENDBRANCH  18  27
ENDBRANCH   1  22
TORSDOF 5
ENDMDL
MODEL 9
REMARK VINA RESULT:    -6.159      2.612      3.637
REMARK INTER + INTRA:          -9.134
REMARK INTER:                  -7.906
REMARK INTRA:                  -1.227
REMARK UNBOUND:                -1.175
REMARK  Name = 
REMARK  5 active torsions:
REMARK  status: ('A' for Active; 'I' for Inactive)
REMARK    1  A    between atoms: C_2  and  C_3
REMARK    2  A    between atoms: C_6  and  C_7
REMARK    3  A    between atoms: C_11  and  C_12
REMARK    4  A    between atoms: C_12  and  N_13
REMARK    5  A    between atoms: C_17  and  C_18
REMARK                            x       y       z     vdW  Elec       q    Type
REMARK                         _______ _______ _______ _____ _____    ______ ____
ROOT
ATOM      1  C   UNL     1      45.762   7.968  12.336  0.00  0.00    +0.000 C 
ATOM      2  C   UNL     1      45.069   9.222  12.887  0.00  0.00    +0.000 C 
ATOM      3  C   UNL     1      45.461   9.172  11.458  0.00  0.00    +0.000 C 
ATOM      4  F   UNL     1      44.416   9.164  10.556  0.00  0.00    +0.000 F 
ENDROOT
BRANCH   1   5
ATOM      5  N   UNL     1      44.949   6.731  12.452  0.00  0.00    +0.000 N 
ATOM      6  C   UNL     1      45.048   5.617  11.613  0.00  0.00    +0.000 A 
ATOM      7  C   UNL     1      45.310   5.710  10.254  0.00  0.00    +0.000 A 
ATOM      8  C   UNL     1      45.278   4.567   9.458  0.00  0.00    +0.000 A 
ATOM      9  C   UNL     1      44.983   3.337  10.032  0.00  0.00    +0.000 A 
ATOM     10  C   UNL     1      44.758   3.314  11.398  0.00  0.00    +0.000 A 
ATOM     11  N   UNL     1      44.773   4.422  12.190  0.00  0.00    +0.000 NA
ATOM     12  H   UNL     1      44.825   6.359  13.391  0.00  0.00    +0.000 HD
BRANCH   9  13
ATOM     13  C   UNL     1      44.935   2.141   9.168  0.00  0.00    +0.000 C 
ATOM     14  N   UNL     1      46.031   1.852   8.406  0.00  0.00    +0.000 N 
ATOM     15  O   UNL     1      43.964   1.394   9.171  0.00  0.00    +0.000 OA
ATOM     16  H   UNL     1      46.937   2.269   8.563  0.00  0.00    +0.000 HD
ATOM     17  H   UNL     1      46.013   0.946   7.952  0.00  0.00    +0.000 HD
ENDBRANCH   9  13
ENDBRANCH   1   5
BRANCH   1  22
ATOM     18  C   UNL     1      49.634   7.931  12.196  0.00  0.00    +0.000 A 
ATOM     19  C   UNL     1      49.923   7.400  13.462  0.00  0.00    +0.000 A 
ATOM     20  C   UNL     1      48.906   7.058  14.357  0.00  0.00    +0.000 A 
ATOM     21  C   UNL     1      47.570   7.254  14.009  0.00  0.00    +0.000 A 
ATOM     22  C   UNL     1      47.220   7.761  12.751  0.00  0.00    +0.000 A 
ATOM     23  C   UNL     1      48.272   8.078  11.865  0.00  0.00    +0.000 A 
BRANCH  18  27
ATOM     24  C   UNL     1      52.764   9.156   9.475  0.00  0.00    +0.000 A 
ATOM     25  C   UNL     1      52.012  10.111  10.155  0.00  0.00    +0.000 A 
ATOM     26  C   UNL     1      51.003   9.705  11.037  0.00  0.00    +0.000 A 
ATOM     27  C   UNL     1      50.704   8.343  11.252  0.00  0.00    +0.000 A 
ATOM     28  C   UNL     1      51.474   7.404  10.547  0.00  0.00    +0.000 A 
ATOM     29  C   UNL     1      52.490   7.809   9.680  0.00  0.00    +0.000 A 
ATOM     30  F   UNL     1      53.205   6.867   9.047  0.00  0.00    +0.000 F 
BRANCH  24  32
ATOM     31  N   UNL     1      54.634   9.884   7.836  0.00  0.00    +0.000 NA
ATOM     32  C   UNL     1      53.808   9.557   8.587  0.00  0.00    +0.000 C 
ENDBRANCH  24  32
ENDBRANCH  18  27
ENDBRANCH   1  22
TORSDOF 5
ENDMDL
