MODEL 1
REMARK VINA RESULT:    -8.224      0.000      0.000
REMARK INTER + INTRA:         -12.300
REMARK INTER:                 -11.109
REMARK INTRA:                  -1.191
REMARK UNBOUND:                -1.191
REMARK  Name = 
REMARK  6 active torsions:
REMARK  status: ('A' for Active; 'I' for Inactive)
REMARK    1  A    between atoms: C_2  and  C_25
REMARK    2  A    between atoms: N_3  and  C_4
REMARK    3  A    between atoms: C_4  and  C_5
REMARK    4  A    between atoms: C_8  and  C_9
REMARK    5  A    between atoms: C_9  and  N_10
REMARK    6  A    between atoms: C_11  and  C_13
REMARK                            x       y       z     vdW  Elec       q    Type
REMARK                         _______ _______ _______ _____ _____    ______ ____
ROOT
ATOM      1  C   UNL     1      44.754   5.683  10.847  0.00  0.00    +0.000 A 
ATOM      2  C   UNL     1      44.164   6.307  11.954  0.00  0.00    +0.000 A 
ATOM      3  C   UNL     1      44.928   7.096  12.821  0.00  0.00    +0.000 A 
ATOM      4  C   UNL     1      46.294   7.297  12.585  0.00  0.00    +0.000 A 
ATOM      5  C   UNL     1      46.888   6.661  11.487  0.00  0.00    +0.000 A 
ATOM      6  C   UNL     1      46.125   5.872  10.621  0.00  0.00    +0.000 A 
ENDROOT
BRANCH   1   7
ATOM      7  C   UNL     1      43.931   4.844   9.910  0.00  0.00    +0.000 C 
BRANCH   7  10
ATOM      8  O   UNL     1      44.384   2.041   9.984  0.00  0.00    +0.000 OA
ATOM      9  C   UNL     1      44.915   2.737   9.134  0.00  0.00    +0.000 C 
ATOM     10  N   UNL     1      44.744   4.095   8.986  0.00  0.00    +0.000 N 
ATOM     11  H   UNL     1      45.272   4.563   8.256  0.00  0.00    +0.000 HD
BRANCH   9  12
ATOM     12  C   UNL     1      45.859   2.121   8.137  0.00  0.00    +0.000 C 
ATOM     13  C   UNL     1      46.409   2.869   6.998  0.00  0.00    +0.000 C 
ATOM     14  C   UNL     1      47.238   1.904   6.345  0.00  0.00    +0.000 C 
ATOM     15  C   UNL     1      47.129   0.786   7.075  0.00  0.00    +0.000 C 
ATOM     16  N   UNL     1      46.289   0.881   8.177  0.00  0.00    +0.000 NA
ENDBRANCH   9  12
ENDBRANCH   7  10
ENDBRANCH   1   7
BRANCH   4  17
ATOM     17  C   UNL     1      47.120   8.163  13.503  0.00  0.00    +0.000 C 
BRANCH  17  18
ATOM     18  N   UNL     1      47.541   7.443  14.677  0.00  0.00    +0.000 N 
ATOM     19  C   UNL     1      48.788   6.875  14.749  0.00  0.00    +0.000 C 
ATOM     20  O   UNL     1      49.615   7.008  13.850  0.00  0.00    +0.000 OA
ATOM     21  H   UNL     1      46.813   7.131  15.313  0.00  0.00    +0.000 HD
BRANCH  19  22
ATOM     22  C   UNL     1      49.112   6.147  15.983  0.00  0.00    +0.000 A 
ATOM     23  C   UNL     1      50.198   6.545  16.751  0.00  0.00    +0.000 A 
ATOM     24  S   UNL     1      50.404   5.626  18.172  0.00  0.00    +0.000 S 
ATOM     25  C   UNL     1      49.081   4.630  17.785  0.00  0.00    +0.000 A 
ATOM     26  N   UNL     1      48.722   3.595  18.597  0.00  0.00    +0.000 NA
ATOM     27  C   UNL     1      47.720   2.905  18.167  0.00  0.00    +0.000 A 
ATOM     28  N   UNL     1      47.043   3.156  17.002  0.00  0.00    +0.000 N 
ATOM     29  C   UNL     1      47.351   4.202  16.167  0.00  0.00    +0.000 A 
ATOM     30  O   UNL     1      46.699   4.419  15.150  0.00  0.00    +0.000 OA
ATOM     31  C   UNL     1      48.479   5.005  16.598  0.00  0.00    +0.000 A 
ATOM     32  H   UNL     1      46.261   2.580  16.724  0.00  0.00    +0.000 HD
ENDBRANCH  19  22
ENDBRANCH  17  18
ENDBRANCH   4  17
TORSDOF 6
ENDMDL
MODEL 2
REMARK VINA RESULT:    -7.157      2.100      2.582
REMARK INTER + INTRA:         -10.859
REMARK INTER:                  -9.981
REMARK INTRA:                  -0.878
REMARK UNBOUND:                -1.191
REMARK  Name = 
REMARK  6 active torsions:
REMARK  status: ('A' for Active; 'I' for Inactive)
REMARK    1  A    between atoms: C_2  and  C_25
REMARK    2  A    between atoms: N_3  and  C_4
REMARK    3  A    between atoms: C_4  and  C_5
REMARK    4  A    between atoms: C_8  and  C_9
REMARK    5  A    between atoms: C_9  and  N_10
REMARK    6  A    between atoms: C_11  and  C_13
REMARK                            x       y       z     vdW  Elec       q    Type
REMARK                         _______ _______ _______ _____ _____    ______ ____
ROOT
ATOM      1  C   UNL     1      45.267   6.291  11.275  0.00  0.00    +0.000 A 
ATOM      2  C   UNL     1      46.600   5.893  11.448  0.00  0.00    +0.000 A 
ATOM      3  C   UNL     1      47.451   6.597  12.308  0.00  0.00    +0.000 A 
ATOM      4  C   UNL     1      46.980   7.700  13.030  0.00  0.00    +0.000 A 
ATOM      5  C   UNL     1      45.653   8.109  12.846  0.00  0.00    +0.000 A 
ATOM      6  C   UNL     1      44.802   7.406  11.987  0.00  0.00    +0.000 A 
ENDROOT
BRANCH   1   7
ATOM      7  C   UNL     1      44.350   5.528  10.361  0.00  0.00    +0.000 C 
BRANCH   7  10
ATOM      8  O   UNL     1      44.097   2.715  10.068  0.00  0.00    +0.000 OA
ATOM      9  C   UNL     1      44.887   3.345   9.385  0.00  0.00    +0.000 C 
ATOM     10  N   UNL     1      45.071   4.708   9.421  0.00  0.00    +0.000 N 
ATOM     11  H   UNL     1      45.787   5.107   8.821  0.00  0.00    +0.000 HD
BRANCH   9  12
ATOM     12  C   UNL     1      45.775   2.627   8.404  0.00  0.00    +0.000 C 
ATOM     13  C   UNL     1      46.458   3.316   7.300  0.00  0.00    +0.000 C 
ATOM     14  C   UNL     1      47.175   2.262   6.652  0.00  0.00    +0.000 C 
ATOM     15  C   UNL     1      46.894   1.155   7.354  0.00  0.00    +0.000 C 
ATOM     16  N   UNL     1      46.037   1.340   8.430  0.00  0.00    +0.000 NA
ENDBRANCH   9  12
ENDBRANCH   7  10
ENDBRANCH   1   7
BRANCH   4  17
ATOM     17  C   UNL     1      47.886   8.452  13.973  0.00  0.00    +0.000 C 
BRANCH  17  18
ATOM     18  N   UNL     1      47.877   7.874  15.293  0.00  0.00    +0.000 N 
ATOM     19  C   UNL     1      48.868   7.015  15.696  0.00  0.00    +0.000 C 
ATOM     20  O   UNL     1      49.831   6.752  14.979  0.00  0.00    +0.000 OA
ATOM     21  H   UNL     1      46.996   7.893  15.799  0.00  0.00    +0.000 HD
BRANCH  19  22
ATOM     22  C   UNL     1      48.755   6.467  17.054  0.00  0.00    +0.000 A 
ATOM     23  C   UNL     1      49.071   5.135  17.287  0.00  0.00    +0.000 A 
ATOM     24  S   UNL     1      48.933   4.675  18.923  0.00  0.00    +0.000 S 
ATOM     25  C   UNL     1      48.395   6.226  19.370  0.00  0.00    +0.000 A 
ATOM     26  N   UNL     1      48.067   6.507  20.662  0.00  0.00    +0.000 NA
ATOM     27  C   UNL     1      47.646   7.712  20.853  0.00  0.00    +0.000 A 
ATOM     28  N   UNL     1      47.526   8.661  19.872  0.00  0.00    +0.000 N 
ATOM     29  C   UNL     1      47.871   8.431  18.562  0.00  0.00    +0.000 A 
ATOM     30  O   UNL     1      47.785   9.317  17.717  0.00  0.00    +0.000 OA
ATOM     31  C   UNL     1      48.340   7.087  18.290  0.00  0.00    +0.000 A 
ATOM     32  H   UNL     1      47.195   9.590  20.090  0.00  0.00    +0.000 HD
ENDBRANCH  19  22
ENDBRANCH  17  18
ENDBRANCH   4  17
TORSDOF 6
ENDMDL
MODEL 3
REMARK VINA RESULT:    -6.910      2.197      3.035
REMARK INTER + INTRA:         -10.525
REMARK INTER:                  -9.829
REMARK INTRA:                  -0.696
REMARK UNBOUND:                -1.191
REMARK  Name = 
REMARK  6 active torsions:
REMARK  status: ('A' for Active; 'I' for Inactive)
REMARK    1  A    between atoms: C_2  and  C_25
REMARK    2  A    between atoms: N_3  and  C_4
REMARK    3  A    between atoms: C_4  and  C_5
REMARK    4  A    between atoms: C_8  and  C_9
REMARK    5  A    between atoms: C_9  and  N_10
REMARK    6  A    between atoms: C_11  and  C_13
REMARK                            x       y       z     vdW  Elec       q    Type
REMARK                         _______ _______ _______ _____ _____    ______ ____
ROOT
ATOM      1  C   UNL     1      44.674   5.213  11.358  0.00  0.00    +0.000 A 
ATOM      2  C   UNL     1      45.652   4.741  12.243  0.00  0.00    +0.000 A 
ATOM      3  C   UNL     1      46.427   5.633  12.994  0.00  0.00    +0.000 A 
ATOM      4  C   UNL     1      46.224   7.015  12.891  0.00  0.00    +0.000 A 
ATOM      5  C   UNL     1      45.258   7.488  11.994  0.00  0.00    +0.000 A 
ATOM      6  C   UNL     1      44.483   6.598  11.244  0.00  0.00    +0.000 A 
ENDROOT
BRANCH   1   7
ATOM      7  C   UNL     1      43.834   4.256  10.560  0.00  0.00    +0.000 C 
BRANCH   7  10
ATOM      8  O   UNL     1      45.453   4.752   8.280  0.00  0.00    +0.000 OA
ATOM      9  C   UNL     1      45.359   3.628   8.746  0.00  0.00    +0.000 C 
ATOM     10  N   UNL     1      44.630   3.279   9.860  0.00  0.00    +0.000 N 
ATOM     11  H   UNL     1      44.607   2.300  10.125  0.00  0.00    +0.000 HD
BRANCH   9  12
ATOM     12  C   UNL     1      46.068   2.476   8.086  0.00  0.00    +0.000 C 
ATOM     13  C   UNL     1      46.962   2.651   6.933  0.00  0.00    +0.000 C 
ATOM     14  C   UNL     1      47.400   1.318   6.656  0.00  0.00    +0.000 C 
ATOM     15  C   UNL     1      46.800   0.547   7.573  0.00  0.00    +0.000 C 
ATOM     16  N   UNL     1      45.974   1.222   8.461  0.00  0.00    +0.000 NA
ENDBRANCH   9  12
ENDBRANCH   7  10
ENDBRANCH   1   7
BRANCH   4  17
ATOM     17  C   UNL     1      47.041   7.981  13.712  0.00  0.00    +0.000 C 
BRANCH  17  18
ATOM     18  N   UNL     1      47.984   7.295  14.558  0.00  0.00    +0.000 N 
ATOM     19  C   UNL     1      48.636   7.953  15.570  0.00  0.00    +0.000 C 
ATOM     20  O   UNL     1      48.401   9.130  15.836  0.00  0.00    +0.000 OA
ATOM     21  H   UNL     1      48.353   6.413  14.216  0.00  0.00    +0.000 HD
BRANCH  19  22
ATOM     22  C   UNL     1      49.590   7.167  16.362  0.00  0.00    +0.000 A 
ATOM     23  C   UNL     1      49.154   6.501  17.500  0.00  0.00    +0.000 A 
ATOM     24  S   UNL     1      50.375   5.597  18.274  0.00  0.00    +0.000 S 
ATOM     25  C   UNL     1      51.542   6.105  17.146  0.00  0.00    +0.000 A 
ATOM     26  N   UNL     1      52.840   5.703  17.252  0.00  0.00    +0.000 NA
ATOM     27  C   UNL     1      53.622   6.188  16.347  0.00  0.00    +0.000 A 
ATOM     28  N   UNL     1      53.225   7.036  15.346  0.00  0.00    +0.000 N 
ATOM     29  C   UNL     1      51.924   7.445  15.184  0.00  0.00    +0.000 A 
ATOM     30  O   UNL     1      51.598   8.175  14.253  0.00  0.00    +0.000 OA
ATOM     31  C   UNL     1      51.004   6.937  16.182  0.00  0.00    +0.000 A 
ATOM     32  H   UNL     1      53.888   7.375  14.664  0.00  0.00    +0.000 HD
ENDBRANCH  19  22
ENDBRANCH  17  18
ENDBRANCH   4  17
TORSDOF 6
ENDMDL
MODEL 4
REMARK VINA RESULT:    -6.909      4.793      9.215
REMARK INTER + INTRA:         -10.524
REMARK INTER:                  -9.768
REMARK INTRA:                  -0.756
REMARK UNBOUND:                -1.191
REMARK  Name = 
REMARK  6 active torsions:
REMARK  status: ('A' for Active; 'I' for Inactive)
REMARK    1  A    between atoms: C_2  and  C_25
REMARK    2  A    between atoms: N_3  and  C_4
REMARK    3  A    between atoms: C_4  and  C_5
REMARK    4  A    between atoms: C_8  and  C_9
REMARK    5  A    between atoms: C_9  and  N_10
REMARK    6  A    between atoms: C_11  and  C_13
REMARK                            x       y       z     vdW  Elec       q    Type
REMARK                         _______ _______ _______ _____ _____    ______ ____
ROOT
ATOM      1  C   UNL     1      51.427   3.235  17.655  0.00  0.00    +0.000 A 
ATOM      2  C   UNL     1      50.741   4.446  17.819  0.00  0.00    +0.000 A 
ATOM      3  C   UNL     1      49.361   4.521  17.596  0.00  0.00    +0.000 A 
ATOM      4  C   UNL     1      48.635   3.382  17.225  0.00  0.00    +0.000 A 
ATOM      5  C   UNL     1      49.323   2.176  17.044  0.00  0.00    +0.000 A 
ATOM      6  C   UNL     1      50.702   2.099  17.267  0.00  0.00    +0.000 A 
ENDROOT
BRANCH   1   7
ATOM      7  C   UNL     1      52.907   3.151  17.906  0.00  0.00    +0.000 C 
BRANCH   7  10
ATOM      8  O   UNL     1      54.295   1.326  19.581  0.00  0.00    +0.000 OA
ATOM      9  C   UNL     1      54.139   1.090  18.394  0.00  0.00    +0.000 C 
ATOM     10  N   UNL     1      53.461   1.885  17.499  0.00  0.00    +0.000 N 
ATOM     11  H   UNL     1      53.432   1.590  16.528  0.00  0.00    +0.000 HD
BRANCH   9  12
ATOM     12  C   UNL     1      54.726  -0.158  17.791  0.00  0.00    +0.000 C 
ATOM     13  C   UNL     1      54.988  -1.372  18.577  0.00  0.00    +0.000 C 
ATOM     14  C   UNL     1      55.526  -2.277  17.610  0.00  0.00    +0.000 C 
ATOM     15  C   UNL     1      55.533  -1.601  16.453  0.00  0.00    +0.000 C 
ATOM     16  N   UNL     1      55.054  -0.299  16.528  0.00  0.00    +0.000 NA
ENDBRANCH   9  12
ENDBRANCH   7  10
ENDBRANCH   1   7
BRANCH   4  17
ATOM     17  C   UNL     1      47.146   3.452  17.002  0.00  0.00    +0.000 C 
BRANCH  17  18
ATOM     18  N   UNL     1      46.804   4.424  15.995  0.00  0.00    +0.000 N 
ATOM     19  C   UNL     1      46.955   4.144  14.660  0.00  0.00    +0.000 C 
ATOM     20  O   UNL     1      47.326   3.041  14.266  0.00  0.00    +0.000 OA
ATOM     21  H   UNL     1      46.722   5.391  16.297  0.00  0.00    +0.000 HD
BRANCH  19  22
ATOM     22  C   UNL     1      46.595   5.210  13.717  0.00  0.00    +0.000 A 
ATOM     23  C   UNL     1      47.511   6.215  13.432  0.00  0.00    +0.000 A 
ATOM     24  S   UNL     1      46.952   7.344  12.283  0.00  0.00    +0.000 S 
ATOM     25  C   UNL     1      45.447   6.561  12.165  0.00  0.00    +0.000 A 
ATOM     26  N   UNL     1      44.468   7.045  11.349  0.00  0.00    +0.000 NA
ATOM     27  C   UNL     1      43.368   6.370  11.380  0.00  0.00    +0.000 A 
ATOM     28  N   UNL     1      43.159   5.256  12.150  0.00  0.00    +0.000 N 
ATOM     29  C   UNL     1      44.124   4.716  12.964  0.00  0.00    +0.000 A 
ATOM     30  O   UNL     1      43.913   3.695  13.611  0.00  0.00    +0.000 OA
ATOM     31  C   UNL     1      45.378   5.444  12.976  0.00  0.00    +0.000 A 
ATOM     32  H   UNL     1      42.274   4.769  12.123  0.00  0.00    +0.000 HD
ENDBRANCH  19  22
ENDBRANCH  17  18
ENDBRANCH   4  17
TORSDOF 6
ENDMDL
MODEL 5
REMARK VINA RESULT:    -6.773      3.443      8.119
REMARK INTER + INTRA:         -10.341
REMARK INTER:                  -9.476
REMARK INTRA:                  -0.864
REMARK UNBOUND:                -1.191
REMARK  Name = 
REMARK  6 active torsions:
REMARK  status: ('A' for Active; 'I' for Inactive)
REMARK    1  A    between atoms: C_2  and  C_25
REMARK    2  A    between atoms: N_3  and  C_4
REMARK    3  A    between atoms: C_4  and  C_5
REMARK    4  A    between atoms: C_8  and  C_9
REMARK    5  A    between atoms: C_9  and  N_10
REMARK    6  A    between atoms: C_11  and  C_13
REMARK                            x       y       z     vdW  Elec       q    Type
REMARK                         _______ _______ _______ _____ _____    ______ ____
ROOT
ATOM      1  C   UNL     1      49.892   6.685  16.078  0.00  0.00    +0.000 A 
ATOM      2  C   UNL     1      50.636   7.546  15.260  0.00  0.00    +0.000 A 
ATOM      3  C   UNL     1      50.153   7.932  14.004  0.00  0.00    +0.000 A 
ATOM      4  C   UNL     1      48.906   7.484  13.551  0.00  0.00    +0.000 A 
ATOM      5  C   UNL     1      48.170   6.611  14.361  0.00  0.00    +0.000 A 
ATOM      6  C   UNL     1      48.651   6.224  15.616  0.00  0.00    +0.000 A 
ENDROOT
BRANCH   1   7
ATOM      7  C   UNL     1      50.405   6.279  17.432  0.00  0.00    +0.000 C 
BRANCH   7  10
ATOM      8  O   UNL     1      49.381   3.703  18.050  0.00  0.00    +0.000 OA
ATOM      9  C   UNL     1      50.550   3.851  17.737  0.00  0.00    +0.000 C 
ATOM     10  N   UNL     1      51.144   5.042  17.390  0.00  0.00    +0.000 N 
ATOM     11  H   UNL     1      52.138   5.035  17.181  0.00  0.00    +0.000 HD
BRANCH   9  12
ATOM     12  C   UNL     1      51.481   2.668  17.719  0.00  0.00    +0.000 C 
ATOM     13  C   UNL     1      52.846   2.725  18.258  0.00  0.00    +0.000 C 
ATOM     14  C   UNL     1      53.340   1.402  18.035  0.00  0.00    +0.000 C 
ATOM     15  C   UNL     1      52.333   0.738  17.451  0.00  0.00    +0.000 C 
ATOM     16  N   UNL     1      51.181   1.484  17.238  0.00  0.00    +0.000 NA
ENDBRANCH   9  12
ENDBRANCH   7  10
ENDBRANCH   1   7
BRANCH   4  17
ATOM     17  C   UNL     1      48.371   7.912  12.208  0.00  0.00    +0.000 C 
BRANCH  17  18
ATOM     18  N   UNL     1      47.651   6.847  11.558  0.00  0.00    +0.000 N 
ATOM     19  C   UNL     1      46.279   6.838  11.524  0.00  0.00    +0.000 C 
ATOM     20  O   UNL     1      45.612   7.760  11.987  0.00  0.00    +0.000 OA
ATOM     21  H   UNL     1      48.161   5.987  11.381  0.00  0.00    +0.000 HD
BRANCH  19  22
ATOM     22  C   UNL     1      45.643   5.698  10.852  0.00  0.00    +0.000 A 
ATOM     23  C   UNL     1      45.763   5.556   9.476  0.00  0.00    +0.000 A 
ATOM     24  S   UNL     1      45.009   4.155   8.863  0.00  0.00    +0.000 S 
ATOM     25  C   UNL     1      44.450   3.715  10.408  0.00  0.00    +0.000 A 
ATOM     26  N   UNL     1      43.693   2.596  10.587  0.00  0.00    +0.000 NA
ATOM     27  C   UNL     1      43.313   2.399  11.804  0.00  0.00    +0.000 A 
ATOM     28  N   UNL     1      43.622   3.218  12.859  0.00  0.00    +0.000 N 
ATOM     29  C   UNL     1      44.404   4.340  12.732  0.00  0.00    +0.000 A 
ATOM     30  O   UNL     1      44.691   5.029  13.706  0.00  0.00    +0.000 OA
ATOM     31  C   UNL     1      44.849   4.614  11.380  0.00  0.00    +0.000 A 
ATOM     32  H   UNL     1      43.298   3.003  13.792  0.00  0.00    +0.000 HD
ENDBRANCH  19  22
ENDBRANCH  17  18
ENDBRANCH   4  17
TORSDOF 6
ENDMDL
MODEL 6
REMARK VINA RESULT:    -6.677      3.801      8.351
REMARK INTER + INTRA:         -10.211
REMARK INTER:                  -9.112
REMARK INTRA:                  -1.098
REMARK UNBOUND:                -1.191
REMARK  Name = 
REMARK  6 active torsions:
REMARK  status: ('A' for Active; 'I' for Inactive)
REMARK    1  A    between atoms: C_2  and  C_25
REMARK    2  A    between atoms: N_3  and  C_4
REMARK    3  A    between atoms: C_4  and  C_5
REMARK    4  A    between atoms: C_8  and  C_9
REMARK    5  A    between atoms: C_9  and  N_10
REMARK    6  A    between atoms: C_11  and  C_13
REMARK                            x       y       z     vdW  Elec       q    Type
REMARK                         _______ _______ _______ _____ _____    ______ ____
ROOT
ATOM      1  C   UNL     1      49.846   4.741  17.596  0.00  0.00    +0.000 A 
ATOM      2  C   UNL     1      50.579   5.849  17.149  0.00  0.00    +0.000 A 
ATOM      3  C   UNL     1      50.082   6.669  16.130  0.00  0.00    +0.000 A 
ATOM      4  C   UNL     1      48.832   6.412  15.552  0.00  0.00    +0.000 A 
ATOM      5  C   UNL     1      48.108   5.295  15.987  0.00  0.00    +0.000 A 
ATOM      6  C   UNL     1      48.603   4.475  17.006  0.00  0.00    +0.000 A 
ENDROOT
BRANCH   1   7
ATOM      7  C   UNL     1      50.374   3.866  18.699  0.00  0.00    +0.000 C 
BRANCH   7  10
ATOM      8  O   UNL     1      50.707   1.435  17.268  0.00  0.00    +0.000 OA
ATOM      9  C   UNL     1      51.674   2.054  17.681  0.00  0.00    +0.000 C 
ATOM     10  N   UNL     1      51.632   3.251  18.357  0.00  0.00    +0.000 N 
ATOM     11  H   UNL     1      52.511   3.648  18.677  0.00  0.00    +0.000 HD
BRANCH   9  12
ATOM     12  C   UNL     1      53.062   1.508  17.475  0.00  0.00    +0.000 C 
ATOM     13  C   UNL     1      54.270   2.319  17.677  0.00  0.00    +0.000 C 
ATOM     14  C   UNL     1      55.329   1.405  17.378  0.00  0.00    +0.000 C 
ATOM     15  C   UNL     1      54.726   0.250  17.064  0.00  0.00    +0.000 C 
ATOM     16  N   UNL     1      53.339   0.278  17.108  0.00  0.00    +0.000 NA
ENDBRANCH   9  12
ENDBRANCH   7  10
ENDBRANCH   1   7
BRANCH   4  17
ATOM     17  C   UNL     1      48.283   7.304  14.467  0.00  0.00    +0.000 C 
BRANCH  17  18
ATOM     18  N   UNL     1      47.054   6.784  13.924  0.00  0.00    +0.000 N 
ATOM     19  C   UNL     1      46.783   6.867  12.581  0.00  0.00    +0.000 C 
ATOM     20  O   UNL     1      47.596   7.326  11.782  0.00  0.00    +0.000 OA
ATOM     21  H   UNL     1      46.294   6.620  14.578  0.00  0.00    +0.000 HD
BRANCH  19  22
ATOM     22  C   UNL     1      45.495   6.324  12.133  0.00  0.00    +0.000 A 
ATOM     23  C   UNL     1      44.544   7.174  11.584  0.00  0.00    +0.000 A 
ATOM     24  S   UNL     1      43.127   6.376  11.071  0.00  0.00    +0.000 S 
ATOM     25  C   UNL     1      43.712   4.873  11.613  0.00  0.00    +0.000 A 
ATOM     26  N   UNL     1      42.957   3.744  11.496  0.00  0.00    +0.000 NA
ATOM     27  C   UNL     1      43.512   2.682  11.975  0.00  0.00    +0.000 A 
ATOM     28  N   UNL     1      44.751   2.645  12.558  0.00  0.00    +0.000 N 
ATOM     29  C   UNL     1      45.558   3.751  12.673  0.00  0.00    +0.000 A 
ATOM     30  O   UNL     1      46.679   3.673  13.168  0.00  0.00    +0.000 OA
ATOM     31  C   UNL     1      44.977   4.977  12.160  0.00  0.00    +0.000 A 
ATOM     32  H   UNL     1      45.132   1.778  12.909  0.00  0.00    +0.000 HD
ENDBRANCH  19  22
ENDBRANCH  17  18
ENDBRANCH   4  17
TORSDOF 6
ENDMDL
MODEL 7
REMARK VINA RESULT:    -6.621      1.744      2.167
REMARK INTER + INTRA:         -10.135
REMARK INTER:                  -9.019
REMARK INTRA:                  -1.115
REMARK UNBOUND:                -1.191
REMARK  Name = 
REMARK  6 active torsions:
REMARK  status: ('A' for Active; 'I' for Inactive)
REMARK    1  A    between atoms: C_2  and  C_25
REMARK    2  A    between atoms: N_3  and  C_4
REMARK    3  A    between atoms: C_4  and  C_5
REMARK    4  A    between atoms: C_8  and  C_9
REMARK    5  A    between atoms: C_9  and  N_10
REMARK    6  A    between atoms: C_11  and  C_13
REMARK                            x       y       z     vdW  Elec       q    Type
REMARK                         _______ _______ _______ _____ _____    ______ ____
ROOT
ATOM      1  C   UNL     1      45.736   7.343  11.815  0.00  0.00    +0.000 A 
ATOM      2  C   UNL     1      45.568   8.540  12.524  0.00  0.00    +0.000 A 
ATOM      3  C   UNL     1      46.617   9.076  13.281  0.00  0.00    +0.000 A 
ATOM      4  C   UNL     1      47.862   8.437  13.326  0.00  0.00    +0.000 A 
ATOM      5  C   UNL     1      48.026   7.232  12.631  0.00  0.00    +0.000 A 
ATOM      6  C   UNL     1      46.979   6.696  11.874  0.00  0.00    +0.000 A 
ENDROOT
BRANCH   1   7
ATOM      7  C   UNL     1      44.614   6.774  10.993  0.00  0.00    +0.000 C 
BRANCH   7  10
ATOM      8  O   UNL     1      43.470   4.181  10.811  0.00  0.00    +0.000 OA
ATOM      9  C   UNL     1      44.440   4.484  10.136  0.00  0.00    +0.000 C 
ATOM     10  N   UNL     1      45.055   5.715  10.121  0.00  0.00    +0.000 N 
ATOM     11  H   UNL     1      45.878   5.828   9.537  0.00  0.00    +0.000 HD
BRANCH   9  12
ATOM     12  C   UNL     1      45.074   3.466   9.226  0.00  0.00    +0.000 C 
ATOM     13  C   UNL     1      45.803   3.837   8.006  0.00  0.00    +0.000 C 
ATOM     14  C   UNL     1      46.223   2.575   7.481  0.00  0.00    +0.000 C 
ATOM     15  C   UNL     1      45.762   1.658   8.343  0.00  0.00    +0.000 C 
ATOM     16  N   UNL     1      45.051   2.167   9.421  0.00  0.00    +0.000 NA
ENDBRANCH   9  12
ENDBRANCH   7  10
ENDBRANCH   1   7
BRANCH   4  17
ATOM     17  C   UNL     1      49.002   9.019  14.124  0.00  0.00    +0.000 C 
BRANCH  17  18
ATOM     18  N   UNL     1      49.295   8.226  15.290  0.00  0.00    +0.000 N 
ATOM     19  C   UNL     1      48.693   8.491  16.495  0.00  0.00    +0.000 C 
ATOM     20  O   UNL     1      47.839   9.367  16.616  0.00  0.00    +0.000 OA
ATOM     21  H   UNL     1      50.143   7.668  15.268  0.00  0.00    +0.000 HD
BRANCH  19  22
ATOM     22  C   UNL     1      49.074   7.635  17.625  0.00  0.00    +0.000 A 
ATOM     23  C   UNL     1      49.596   8.209  18.777  0.00  0.00    +0.000 A 
ATOM     24  S   UNL     1      49.939   7.081  20.009  0.00  0.00    +0.000 S 
ATOM     25  C   UNL     1      49.452   5.780  19.028  0.00  0.00    +0.000 A 
ATOM     26  N   UNL     1      49.522   4.496  19.482  0.00  0.00    +0.000 NA
ATOM     27  C   UNL     1      49.149   3.608  18.623  0.00  0.00    +0.000 A 
ATOM     28  N   UNL     1      48.711   3.885  17.355  0.00  0.00    +0.000 N 
ATOM     29  C   UNL     1      48.598   5.163  16.864  0.00  0.00    +0.000 A 
ATOM     30  O   UNL     1      48.167   5.376  15.735  0.00  0.00    +0.000 OA
ATOM     31  C   UNL     1      49.016   6.202  17.786  0.00  0.00    +0.000 A 
ATOM     32  H   UNL     1      48.427   3.142  16.732  0.00  0.00    +0.000 HD
ENDBRANCH  19  22
ENDBRANCH  17  18
ENDBRANCH   4  17
TORSDOF 6
ENDMDL
MODEL 8
REMARK VINA RESULT:    -6.613      4.883      7.420
REMARK INTER + INTRA:         -10.123
REMARK INTER:                  -9.256
REMARK INTRA:                  -0.867
REMARK UNBOUND:                -1.191
REMARK  Name = 
REMARK  6 active torsions:
REMARK  status: ('A' for Active; 'I' for Inactive)
REMARK    1  A    between atoms: C_2  and  C_25
REMARK    2  A    between atoms: N_3  and  C_4
REMARK    3  A    between atoms: C_4  and  C_5
REMARK    4  A    between atoms: C_8  and  C_9
REMARK    5  A    between atoms: C_9  and  N_10
REMARK    6  A    between atoms: C_11  and  C_13
REMARK                            x       y       z     vdW  Elec       q    Type
REMARK                         _______ _______ _______ _____ _____    ______ ____
ROOT
ATOM      1  C   UNL     1      50.642   8.792  11.179  0.00  0.00    +0.000 A 
ATOM      2  C   UNL     1      50.166   7.513  11.498  0.00  0.00    +0.000 A 
ATOM      3  C   UNL     1      48.902   7.344  12.075  0.00  0.00    +0.000 A 
ATOM      4  C   UNL     1      48.078   8.448  12.323  0.00  0.00    +0.000 A 
ATOM      5  C   UNL     1      48.559   9.728  12.020  0.00  0.00    +0.000 A 
ATOM      6  C   UNL     1      49.822   9.898  11.443  0.00  0.00    +0.000 A 
ENDROOT
BRANCH   1   7
ATOM      7  C   UNL     1      51.995   8.973  10.550  0.00  0.00    +0.000 C 
BRANCH   7  10
ATOM      8  O   UNL     1      53.145   8.896   7.954  0.00  0.00    +0.000 OA
ATOM      9  C   UNL     1      52.961   7.869   8.586  0.00  0.00    +0.000 C 
ATOM     10  N   UNL     1      52.440   7.790   9.857  0.00  0.00    +0.000 N 
ATOM     11  H   UNL     1      52.306   6.867  10.260  0.00  0.00    +0.000 HD
BRANCH   9  12
ATOM     12  C   UNL     1      53.300   6.536   7.974  0.00  0.00    +0.000 C 
ATOM     13  C   UNL     1      54.502   5.776   8.345  0.00  0.00    +0.000 C 
ATOM     14  C   UNL     1      54.409   4.603   7.533  0.00  0.00    +0.000 C 
ATOM     15  C   UNL     1      53.278   4.745   6.828  0.00  0.00    +0.000 C 
ATOM     16  N   UNL     1      52.576   5.918   7.069  0.00  0.00    +0.000 NA
ENDBRANCH   9  12
ENDBRANCH   7  10
ENDBRANCH   1   7
BRANCH   4  17
ATOM     17  C   UNL     1      46.707   8.272  12.925  0.00  0.00    +0.000 C 
BRANCH  17  18
ATOM     18  N   UNL     1      46.174   6.960  12.660  0.00  0.00    +0.000 N 
ATOM     19  C   UNL     1      45.127   6.784  11.792  0.00  0.00    +0.000 C 
ATOM     20  O   UNL     1      44.642   7.720  11.160  0.00  0.00    +0.000 OA
ATOM     21  H   UNL     1      46.398   6.228  13.328  0.00  0.00    +0.000 HD
BRANCH  19  22
ATOM     22  C   UNL     1      44.648   5.408  11.606  0.00  0.00    +0.000 A 
ATOM     23  C   UNL     1      43.933   4.786  12.622  0.00  0.00    +0.000 A 
ATOM     24  S   UNL     1      43.411   3.212  12.226  0.00  0.00    +0.000 S 
ATOM     25  C   UNL     1      44.165   3.286  10.703  0.00  0.00    +0.000 A 
ATOM     26  N   UNL     1      44.122   2.225   9.848  0.00  0.00    +0.000 NA
ATOM     27  C   UNL     1      44.761   2.409   8.741  0.00  0.00    +0.000 A 
ATOM     28  N   UNL     1      45.436   3.554   8.412  0.00  0.00    +0.000 N 
ATOM     29  C   UNL     1      45.484   4.657   9.229  0.00  0.00    +0.000 A 
ATOM     30  O   UNL     1      46.068   5.680   8.885  0.00  0.00    +0.000 OA
ATOM     31  C   UNL     1      44.791   4.501  10.493  0.00  0.00    +0.000 A 
ATOM     32  H   UNL     1      45.913   3.636   7.524  0.00  0.00    +0.000 HD
ENDBRANCH  19  22
ENDBRANCH  17  18
ENDBRANCH   4  17
TORSDOF 6
ENDMDL
MODEL 9
REMARK VINA RESULT:    -6.392      3.487      4.928
REMARK INTER + INTRA:          -9.826
REMARK INTER:                  -8.713
REMARK INTRA:                  -1.112
REMARK UNBOUND:                -1.191
REMARK  Name = 
REMARK  6 active torsions:
REMARK  status: ('A' for Active; 'I' for Inactive)
REMARK    1  A    between atoms: C_2  and  C_25
REMARK    2  A    between atoms: N_3  and  C_4
REMARK    3  A    between atoms: C_4  and  C_5
REMARK    4  A    between atoms: C_8  and  C_9
REMARK    5  A    between atoms: C_9  and  N_10
REMARK    6  A    between atoms: C_11  and  C_13
REMARK                            x       y       z     vdW  Elec       q    Type
REMARK                         _______ _______ _______ _____ _____    ______ ____
ROOT
ATOM      1  C   UNL     1      45.373   6.584  11.891  0.00  0.00    +0.000 A 
ATOM      2  C   UNL     1      45.209   7.958  12.115  0.00  0.00    +0.000 A 
ATOM      3  C   UNL     1      46.090   8.656  12.949  0.00  0.00    +0.000 A 
ATOM      4  C   UNL     1      47.166   7.999  13.558  0.00  0.00    +0.000 A 
ATOM      5  C   UNL     1      47.321   6.623  13.348  0.00  0.00    +0.000 A 
ATOM      6  C   UNL     1      46.441   5.925  12.514  0.00  0.00    +0.000 A 
ENDROOT
BRANCH   1   7
ATOM      7  C   UNL     1      44.434   5.837  10.986  0.00  0.00    +0.000 C 
BRANCH   7  10
ATOM      8  O   UNL     1      43.847   3.261   9.944  0.00  0.00    +0.000 OA
ATOM      9  C   UNL     1      44.766   3.923   9.491  0.00  0.00    +0.000 C 
ATOM     10  N   UNL     1      45.120   5.189   9.897  0.00  0.00    +0.000 N 
ATOM     11  H   UNL     1      45.930   5.620   9.460  0.00  0.00    +0.000 HD
BRANCH   9  12
ATOM     12  C   UNL     1      45.635   3.359   8.398  0.00  0.00    +0.000 C 
ATOM     13  C   UNL     1      46.024   1.943   8.345  0.00  0.00    +0.000 C 
ATOM     14  C   UNL     1      46.824   1.869   7.162  0.00  0.00    +0.000 C 
ATOM     15  C   UNL     1      46.836   3.112   6.661  0.00  0.00    +0.000 C 
ATOM     16  N   UNL     1      46.122   4.051   7.394  0.00  0.00    +0.000 NA
ENDBRANCH   9  12
ENDBRANCH   7  10
ENDBRANCH   1   7
BRANCH   4  17
ATOM     17  C   UNL     1      48.130   8.749  14.443  0.00  0.00    +0.000 C 
BRANCH  17  18
ATOM     18  N   UNL     1      49.418   8.903  13.815  0.00  0.00    +0.000 N 
ATOM     19  C   UNL     1      50.525   8.257  14.305  0.00  0.00    +0.000 C 
ATOM     20  O   UNL     1      50.456   7.477  15.252  0.00  0.00    +0.000 OA
ATOM     21  H   UNL     1      49.537   9.700  13.197  0.00  0.00    +0.000 HD
BRANCH  19  22
ATOM     22  C   UNL     1      51.793   8.496  13.603  0.00  0.00    +0.000 A 
ATOM     23  C   UNL     1      52.889   8.976  14.308  0.00  0.00    +0.000 A 
ATOM     24  S   UNL     1      54.292   9.151  13.354  0.00  0.00    +0.000 S 
ATOM     25  C   UNL     1      53.471   8.641  11.955  0.00  0.00    +0.000 A 
ATOM     26  N   UNL     1      54.106   8.587  10.750  0.00  0.00    +0.000 NA
ATOM     27  C   UNL     1      53.355   8.213   9.770  0.00  0.00    +0.000 A 
ATOM     28  N   UNL     1      52.030   7.886   9.883  0.00  0.00    +0.000 N 
ATOM     29  C   UNL     1      51.355   7.899  11.079  0.00  0.00    +0.000 A 
ATOM     30  O   UNL     1      50.176   7.564  11.150  0.00  0.00    +0.000 OA
ATOM     31  C   UNL     1      52.150   8.325  12.215  0.00  0.00    +0.000 A 
ATOM     32  H   UNL     1      51.498   7.594   9.075  0.00  0.00    +0.000 HD
ENDBRANCH  19  22
ENDBRANCH  17  18
ENDBRANCH   4  17
TORSDOF 6
ENDMDL
