MODEL 1
REMARK VINA RESULT:    -8.898      0.000      0.000
REMARK INTER + INTRA:         -13.586
REMARK INTER:                 -12.539
REMARK INTRA:                  -1.047
REMARK UNBOUND:                -1.047
REMARK  Name = 
REMARK  7 active torsions:
REMARK  status: ('A' for Active; 'I' for Inactive)
REMARK    1  A    between atoms: C_2  and  C_4
REMARK    2  A    between atoms: C_7  and  O_8
REMARK    3  A    between atoms: O_8  and  C_9
REMARK    4  A    between atoms: C_9  and  C_10
REMARK    5  A    between atoms: C_13  and  C_14
REMARK    6  A    between atoms: C_14  and  N_15
REMARK    7  A    between atoms: C_16  and  C_18
REMARK                            x       y       z     vdW  Elec       q    Type
REMARK                         _______ _______ _______ _____ _____    ______ ____
ROOT
ATOM      1  C   UNL     1      44.763   4.704  12.100  0.00  0.00    +0.000 A 
ATOM      2  C   UNL     1      45.644   3.944  12.881  0.00  0.00    +0.000 A 
ATOM      3  C   UNL     1      46.773   4.535  13.461  0.00  0.00    +0.000 A 
ATOM      4  C   UNL     1      47.031   5.901  13.288  0.00  0.00    +0.000 A 
ATOM      5  C   UNL     1      46.145   6.662  12.514  0.00  0.00    +0.000 A 
ATOM      6  C   UNL     1      45.017   6.072  11.935  0.00  0.00    +0.000 A 
ENDROOT
BRANCH   1   7
ATOM      7  C   UNL     1      43.583   4.054  11.417  0.00  0.00    +0.000 C 
BRANCH   7   8
ATOM      8  O   UNL     1      43.563   4.381  10.026  0.00  0.00    +0.000 OA
BRANCH   8  12
ATOM      9  C   UNL     1      46.330   2.283   7.816  0.00  0.00    +0.000 A 
ATOM     10  C   UNL     1      46.327   3.662   7.661  0.00  0.00    +0.000 A 
ATOM     11  C   UNL     1      45.405   4.414   8.390  0.00  0.00    +0.000 A 
ATOM     12  C   UNL     1      44.518   3.774   9.254  0.00  0.00    +0.000 A 
ATOM     13  C   UNL     1      44.606   2.386   9.342  0.00  0.00    +0.000 A 
ATOM     14  N   UNL     1      45.484   1.615   8.647  0.00  0.00    +0.000 NA
BRANCH   9  16
ATOM     15  N   UNL     1      48.411   2.127   6.574  0.00  0.00    +0.000 N 
ATOM     16  C   UNL     1      47.304   1.463   7.025  0.00  0.00    +0.000 C 
ATOM     17  O   UNL     1      47.133   0.271   6.801  0.00  0.00    +0.000 OA
ATOM     18  H   UNL     1      49.113   1.623   6.052  0.00  0.00    +0.000 HD
ATOM     19  H   UNL     1      48.532   3.109   6.792  0.00  0.00    +0.000 HD
ENDBRANCH   9  16
ENDBRANCH   8  12
ENDBRANCH   7   8
ENDBRANCH   1   7
BRANCH   4  20
ATOM     20  C   UNL     1      48.256   6.542  13.887  0.00  0.00    +0.000 C 
BRANCH  20  21
ATOM     21  N   UNL     1      48.145   6.652  15.321  0.00  0.00    +0.000 N 
ATOM     22  C   UNL     1      49.261   6.651  16.118  0.00  0.00    +0.000 C 
ATOM     23  O   UNL     1      50.394   6.601  15.645  0.00  0.00    +0.000 OA
ATOM     24  H   UNL     1      47.234   6.471  15.732  0.00  0.00    +0.000 HD
BRANCH  22  25
ATOM     25  C   UNL     1      49.043   6.779  17.565  0.00  0.00    +0.000 A 
ATOM     26  C   UNL     1      48.994   8.042  18.140  0.00  0.00    +0.000 A 
ATOM     27  S   UNL     1      48.678   8.019  19.816  0.00  0.00    +0.000 S 
ATOM     28  C   UNL     1      48.651   6.318  19.842  0.00  0.00    +0.000 A 
ATOM     29  N   UNL     1      48.448   5.642  21.005  0.00  0.00    +0.000 NA
ATOM     30  C   UNL     1      48.493   4.357  20.888  0.00  0.00    +0.000 A 
ATOM     31  N   UNL     1      48.715   3.687  19.712  0.00  0.00    +0.000 N 
ATOM     32  C   UNL     1      48.883   4.328  18.507  0.00  0.00    +0.000 A 
ATOM     33  O   UNL     1      49.025   3.697  17.465  0.00  0.00    +0.000 OA
ATOM     34  C   UNL     1      48.862   5.776  18.587  0.00  0.00    +0.000 A 
ATOM     35  H   UNL     1      48.727   2.678  19.687  0.00  0.00    +0.000 HD
ENDBRANCH  22  25
ENDBRANCH  20  21
ENDBRANCH   4  20
TORSDOF 7
ENDMDL
MODEL 2
REMARK VINA RESULT:    -8.634      1.404      2.047
REMARK INTER + INTRA:         -13.213
REMARK INTER:                 -12.204
REMARK INTRA:                  -1.009
REMARK UNBOUND:                -1.047
REMARK  Name = 
REMARK  7 active torsions:
REMARK  status: ('A' for Active; 'I' for Inactive)
REMARK    1  A    between atoms: C_2  and  C_4
REMARK    2  A    between atoms: C_7  and  O_8
REMARK    3  A    between atoms: O_8  and  C_9
REMARK    4  A    between atoms: C_9  and  C_10
REMARK    5  A    between atoms: C_13  and  C_14
REMARK    6  A    between atoms: C_14  and  N_15
REMARK    7  A    between atoms: C_16  and  C_18
REMARK                            x       y       z     vdW  Elec       q    Type
REMARK                         _______ _______ _______ _____ _____    ______ ____
ROOT
ATOM      1  C   UNL     1      44.590   5.546  11.608  0.00  0.00    +0.000 A 
ATOM      2  C   UNL     1      45.019   4.788  12.706  0.00  0.00    +0.000 A 
ATOM      3  C   UNL     1      46.155   5.165  13.432  0.00  0.00    +0.000 A 
ATOM      4  C   UNL     1      46.872   6.319  13.086  0.00  0.00    +0.000 A 
ATOM      5  C   UNL     1      46.437   7.080  11.993  0.00  0.00    +0.000 A 
ATOM      6  C   UNL     1      45.302   6.704  11.269  0.00  0.00    +0.000 A 
ENDROOT
BRANCH   1   7
ATOM      7  C   UNL     1      43.406   5.102  10.782  0.00  0.00    +0.000 C 
BRANCH   7   8
ATOM      8  O   UNL     1      43.505   3.712  10.465  0.00  0.00    +0.000 OA
BRANCH   8  12
ATOM      9  C   UNL     1      46.342   2.409   7.782  0.00  0.00    +0.000 A 
ATOM     10  C   UNL     1      45.971   3.743   7.697  0.00  0.00    +0.000 A 
ATOM     11  C   UNL     1      45.012   4.229   8.585  0.00  0.00    +0.000 A 
ATOM     12  C   UNL     1      44.453   3.376   9.536  0.00  0.00    +0.000 A 
ATOM     13  C   UNL     1      44.897   2.055   9.543  0.00  0.00    +0.000 A 
ATOM     14  N   UNL     1      45.825   1.540   8.693  0.00  0.00    +0.000 NA
BRANCH   9  16
ATOM     15  N   UNL     1      48.397   2.711   6.524  0.00  0.00    +0.000 N 
ATOM     16  C   UNL     1      47.359   1.872   6.822  0.00  0.00    +0.000 C 
ATOM     17  O   UNL     1      47.280   0.750   6.337  0.00  0.00    +0.000 OA
ATOM     18  H   UNL     1      49.124   2.397   5.898  0.00  0.00    +0.000 HD
ATOM     19  H   UNL     1      48.443   3.626   6.956  0.00  0.00    +0.000 HD
ENDBRANCH   9  16
ENDBRANCH   8  12
ENDBRANCH   7   8
ENDBRANCH   1   7
BRANCH   4  20
ATOM     20  C   UNL     1      48.110   6.720  13.845  0.00  0.00    +0.000 C 
BRANCH  20  21
ATOM     21  N   UNL     1      47.945   6.521  15.264  0.00  0.00    +0.000 N 
ATOM     22  C   UNL     1      49.029   6.312  16.078  0.00  0.00    +0.000 C 
ATOM     23  O   UNL     1      50.178   6.328  15.644  0.00  0.00    +0.000 OA
ATOM     24  H   UNL     1      47.015   6.285  15.596  0.00  0.00    +0.000 HD
BRANCH  22  25
ATOM     25  C   UNL     1      48.757   6.132  17.510  0.00  0.00    +0.000 A 
ATOM     26  C   UNL     1      48.959   4.888  18.094  0.00  0.00    +0.000 A 
ATOM     27  S   UNL     1      48.652   4.860  19.771  0.00  0.00    +0.000 S 
ATOM     28  C   UNL     1      48.185   6.496  19.767  0.00  0.00    +0.000 A 
ATOM     29  N   UNL     1      47.770   7.105  20.910  0.00  0.00    +0.000 NA
ATOM     30  C   UNL     1      47.406   8.334  20.757  0.00  0.00    +0.000 A 
ATOM     31  N   UNL     1      47.427   9.011  19.565  0.00  0.00    +0.000 N 
ATOM     32  C   UNL     1      47.877   8.449  18.393  0.00  0.00    +0.000 A 
ATOM     33  O   UNL     1      47.935   9.100  17.355  0.00  0.00    +0.000 OA
ATOM     34  C   UNL     1      48.279   7.060  18.507  0.00  0.00    +0.000 A 
ATOM     35  H   UNL     1      47.139   9.977  19.514  0.00  0.00    +0.000 HD
ENDBRANCH  22  25
ENDBRANCH  20  21
ENDBRANCH   4  20
TORSDOF 7
ENDMDL
MODEL 3
REMARK VINA RESULT:    -7.402      5.288      8.258
REMARK INTER + INTRA:         -11.477
REMARK INTER:                 -10.437
REMARK INTRA:                  -1.041
REMARK UNBOUND:                -1.047
REMARK  Name = 
REMARK  7 active torsions:
REMARK  status: ('A' for Active; 'I' for Inactive)
REMARK    1  A    between atoms: C_2  and  C_4
REMARK    2  A    between atoms: C_7  and  O_8
REMARK    3  A    between atoms: O_8  and  C_9
REMARK    4  A    between atoms: C_9  and  C_10
REMARK    5  A    between atoms: C_13  and  C_14
REMARK    6  A    between atoms: C_14  and  N_15
REMARK    7  A    between atoms: C_16  and  C_18
REMARK                            x       y       z     vdW  Elec       q    Type
REMARK                         _______ _______ _______ _____ _____    ______ ____
ROOT
ATOM      1  C   UNL     1      51.133   8.577  11.173  0.00  0.00    +0.000 A 
ATOM      2  C   UNL     1      50.538   9.787  11.558  0.00  0.00    +0.000 A 
ATOM      3  C   UNL     1      49.197   9.827  11.956  0.00  0.00    +0.000 A 
ATOM      4  C   UNL     1      48.431   8.655  11.999  0.00  0.00    +0.000 A 
ATOM      5  C   UNL     1      49.028   7.445  11.622  0.00  0.00    +0.000 A 
ATOM      6  C   UNL     1      50.368   7.405  11.224  0.00  0.00    +0.000 A 
ENDROOT
BRANCH   1   7
ATOM      7  C   UNL     1      52.559   8.544  10.676  0.00  0.00    +0.000 C 
BRANCH   7   8
ATOM      8  O   UNL     1      52.594   8.526   9.247  0.00  0.00    +0.000 OA
BRANCH   8  12
ATOM      9  C   UNL     1      53.499   5.038   7.258  0.00  0.00    +0.000 A 
ATOM     10  C   UNL     1      53.997   5.167   8.547  0.00  0.00    +0.000 A 
ATOM     11  C   UNL     1      53.716   6.333   9.259  0.00  0.00    +0.000 A 
ATOM     12  C   UNL     1      52.945   7.334   8.672  0.00  0.00    +0.000 A 
ATOM     13  C   UNL     1      52.486   7.106   7.375  0.00  0.00    +0.000 A 
ATOM     14  N   UNL     1      52.741   5.988   6.644  0.00  0.00    +0.000 NA
BRANCH   9  16
ATOM     15  N   UNL     1      53.136   2.670   6.862  0.00  0.00    +0.000 N 
ATOM     16  C   UNL     1      53.808   3.797   6.477  0.00  0.00    +0.000 C 
ATOM     17  O   UNL     1      54.603   3.785   5.546  0.00  0.00    +0.000 OA
ATOM     18  H   UNL     1      53.287   1.807   6.361  0.00  0.00    +0.000 HD
ATOM     19  H   UNL     1      52.471   2.717   7.625  0.00  0.00    +0.000 HD
ENDBRANCH   9  16
ENDBRANCH   8  12
ENDBRANCH   7   8
ENDBRANCH   1   7
BRANCH   4  20
ATOM     20  C   UNL     1      46.979   8.691  12.404  0.00  0.00    +0.000 C 
BRANCH  20  21
ATOM     21  N   UNL     1      46.385   7.379  12.350  0.00  0.00    +0.000 N 
ATOM     22  C   UNL     1      45.208   7.164  11.679  0.00  0.00    +0.000 C 
ATOM     23  O   UNL     1      44.639   8.063  11.065  0.00  0.00    +0.000 OA
ATOM     24  H   UNL     1      46.712   6.691  13.022  0.00  0.00    +0.000 HD
BRANCH  22  25
ATOM     25  C   UNL     1      44.690   5.790  11.673  0.00  0.00    +0.000 A 
ATOM     26  C   UNL     1      43.988   5.318  12.774  0.00  0.00    +0.000 A 
ATOM     27  S   UNL     1      43.406   3.726  12.586  0.00  0.00    +0.000 S 
ATOM     28  C   UNL     1      44.120   3.590  11.048  0.00  0.00    +0.000 A 
ATOM     29  N   UNL     1      44.020   2.438  10.332  0.00  0.00    +0.000 NA
ATOM     30  C   UNL     1      44.641   2.457   9.201  0.00  0.00    +0.000 A 
ATOM     31  N   UNL     1      45.349   3.528   8.718  0.00  0.00    +0.000 N 
ATOM     32  C   UNL     1      45.443   4.726   9.387  0.00  0.00    +0.000 A 
ATOM     33  O   UNL     1      46.037   5.683   8.901  0.00  0.00    +0.000 OA
ATOM     34  C   UNL     1      44.778   4.749  10.675  0.00  0.00    +0.000 A 
ATOM     35  H   UNL     1      45.804   3.483   7.818  0.00  0.00    +0.000 HD
ENDBRANCH  22  25
ENDBRANCH  20  21
ENDBRANCH   4  20
TORSDOF 7
ENDMDL
MODEL 4
REMARK VINA RESULT:    -7.317      3.081      8.996
REMARK INTER + INTRA:         -11.358
REMARK INTER:                 -10.229
REMARK INTRA:                  -1.129
REMARK UNBOUND:                -1.047
REMARK  Name = 
REMARK  7 active torsions:
REMARK  status: ('A' for Active; 'I' for Inactive)
REMARK    1  A    between atoms: C_2  and  C_4
REMARK    2  A    between atoms: C_7  and  O_8
REMARK    3  A    between atoms: O_8  and  C_9
REMARK    4  A    between atoms: C_9  and  C_10
REMARK    5  A    between atoms: C_13  and  C_14
REMARK    6  A    between atoms: C_14  and  N_15
REMARK    7  A    between atoms: C_16  and  C_18
REMARK                            x       y       z     vdW  Elec       q    Type
REMARK                         _______ _______ _______ _____ _____    ______ ____
ROOT
ATOM      1  C   UNL     1      49.841   8.169  16.115  0.00  0.00    +0.000 A 
ATOM      2  C   UNL     1      48.600   8.799  15.951  0.00  0.00    +0.000 A 
ATOM      3  C   UNL     1      47.937   8.758  14.719  0.00  0.00    +0.000 A 
ATOM      4  C   UNL     1      48.493   8.067  13.633  0.00  0.00    +0.000 A 
ATOM      5  C   UNL     1      49.729   7.431  13.801  0.00  0.00    +0.000 A 
ATOM      6  C   UNL     1      50.391   7.472  15.032  0.00  0.00    +0.000 A 
ENDROOT
BRANCH   1   7
ATOM      7  C   UNL     1      50.590   8.273  17.423  0.00  0.00    +0.000 C 
BRANCH   7   8
ATOM      8  O   UNL     1      50.036   7.381  18.393  0.00  0.00    +0.000 OA
BRANCH   8  12
ATOM      9  C   UNL     1      50.113   3.413  17.301  0.00  0.00    +0.000 A 
ATOM     10  C   UNL     1      48.863   4.008  17.396  0.00  0.00    +0.000 A 
ATOM     11  C   UNL     1      48.789   5.352  17.764  0.00  0.00    +0.000 A 
ATOM     12  C   UNL     1      49.958   6.066  18.022  0.00  0.00    +0.000 A 
ATOM     13  C   UNL     1      51.164   5.378  17.893  0.00  0.00    +0.000 A 
ATOM     14  N   UNL     1      51.281   4.069  17.543  0.00  0.00    +0.000 NA
BRANCH   9  16
ATOM     15  N   UNL     1      51.086   1.217  17.655  0.00  0.00    +0.000 N 
ATOM     16  C   UNL     1      50.205   1.966  16.924  0.00  0.00    +0.000 C 
ATOM     17  O   UNL     1      49.532   1.474  16.027  0.00  0.00    +0.000 OA
ATOM     18  H   UNL     1      51.177   0.231  17.461  0.00  0.00    +0.000 HD
ATOM     19  H   UNL     1      51.614   1.650  18.402  0.00  0.00    +0.000 HD
ENDBRANCH   9  16
ENDBRANCH   8  12
ENDBRANCH   7   8
ENDBRANCH   1   7
BRANCH   4  20
ATOM     20  C   UNL     1      47.798   8.037  12.296  0.00  0.00    +0.000 C 
BRANCH  20  21
ATOM     21  N   UNL     1      47.087   6.798  12.100  0.00  0.00    +0.000 N 
ATOM     22  C   UNL     1      45.716   6.770  12.060  0.00  0.00    +0.000 C 
ATOM     23  O   UNL     1      45.045   7.795  12.144  0.00  0.00    +0.000 OA
ATOM     24  H   UNL     1      47.602   5.936  12.251  0.00  0.00    +0.000 HD
BRANCH  22  25
ATOM     25  C   UNL     1      45.086   5.461  11.845  0.00  0.00    +0.000 A 
ATOM     26  C   UNL     1      44.416   4.844  12.892  0.00  0.00    +0.000 A 
ATOM     27  S   UNL     1      43.694   3.359  12.464  0.00  0.00    +0.000 S 
ATOM     28  C   UNL     1      44.298   3.461  10.877  0.00  0.00    +0.000 A 
ATOM     29  N   UNL     1      44.059   2.472   9.975  0.00  0.00    +0.000 NA
ATOM     30  C   UNL     1      44.609   2.658   8.823  0.00  0.00    +0.000 A 
ATOM     31  N   UNL     1      45.372   3.747   8.489  0.00  0.00    +0.000 N 
ATOM     32  C   UNL     1      45.606   4.790   9.354  0.00  0.00    +0.000 A 
ATOM     33  O   UNL     1      46.247   5.776   9.006  0.00  0.00    +0.000 OA
ATOM     34  C   UNL     1      45.026   4.621  10.672  0.00  0.00    +0.000 A 
ATOM     35  H   UNL     1      45.766   3.838   7.564  0.00  0.00    +0.000 HD
ENDBRANCH  22  25
ENDBRANCH  20  21
ENDBRANCH   4  20
TORSDOF 7
ENDMDL
MODEL 5
REMARK VINA RESULT:    -7.136      3.814      5.234
REMARK INTER + INTRA:         -11.103
REMARK INTER:                  -9.957
REMARK INTRA:                  -1.146
REMARK UNBOUND:                -1.047
REMARK  Name = 
REMARK  7 active torsions:
REMARK  status: ('A' for Active; 'I' for Inactive)
REMARK    1  A    between atoms: C_2  and  C_4
REMARK    2  A    between atoms: C_7  and  O_8
REMARK    3  A    between atoms: O_8  and  C_9
REMARK    4  A    between atoms: C_9  and  C_10
REMARK    5  A    between atoms: C_13  and  C_14
REMARK    6  A    between atoms: C_14  and  N_15
REMARK    7  A    between atoms: C_16  and  C_18
REMARK                            x       y       z     vdW  Elec       q    Type
REMARK                         _______ _______ _______ _____ _____    ______ ____
ROOT
ATOM      1  C   UNL     1      45.339   4.423  12.375  0.00  0.00    +0.000 A 
ATOM      2  C   UNL     1      45.221   5.787  12.075  0.00  0.00    +0.000 A 
ATOM      3  C   UNL     1      46.054   6.727  12.693  0.00  0.00    +0.000 A 
ATOM      4  C   UNL     1      47.035   6.319  13.607  0.00  0.00    +0.000 A 
ATOM      5  C   UNL     1      47.157   4.955  13.899  0.00  0.00    +0.000 A 
ATOM      6  C   UNL     1      46.325   4.016  13.282  0.00  0.00    +0.000 A 
ENDROOT
BRANCH   1   7
ATOM      7  C   UNL     1      44.395   3.416  11.762  0.00  0.00    +0.000 C 
BRANCH   7   8
ATOM      8  O   UNL     1      44.010   3.821  10.447  0.00  0.00    +0.000 OA
BRANCH   8  12
ATOM      9  C   UNL     1      46.516   2.903   7.314  0.00  0.00    +0.000 A 
ATOM     10  C   UNL     1      46.064   1.839   8.081  0.00  0.00    +0.000 A 
ATOM     11  C   UNL     1      45.213   2.103   9.154  0.00  0.00    +0.000 A 
ATOM     12  C   UNL     1      44.832   3.415   9.431  0.00  0.00    +0.000 A 
ATOM     13  C   UNL     1      45.337   4.412   8.597  0.00  0.00    +0.000 A 
ATOM     14  N   UNL     1      46.172   4.199   7.545  0.00  0.00    +0.000 NA
BRANCH   9  16
ATOM     15  N   UNL     1      48.662   2.107   6.503  0.00  0.00    +0.000 N 
ATOM     16  C   UNL     1      47.445   2.633   6.169  0.00  0.00    +0.000 C 
ATOM     17  O   UNL     1      47.139   2.858   5.005  0.00  0.00    +0.000 OA
ATOM     18  H   UNL     1      49.323   1.886   5.773  0.00  0.00    +0.000 HD
ATOM     19  H   UNL     1      48.878   1.916   7.474  0.00  0.00    +0.000 HD
ENDBRANCH   9  16
ENDBRANCH   8  12
ENDBRANCH   7   8
ENDBRANCH   1   7
BRANCH   4  20
ATOM     20  C   UNL     1      47.921   7.325  14.295  0.00  0.00    +0.000 C 
BRANCH  20  21
ATOM     21  N   UNL     1      49.131   7.561  13.547  0.00  0.00    +0.000 N 
ATOM     22  C   UNL     1      49.449   8.817  13.096  0.00  0.00    +0.000 C 
ATOM     23  O   UNL     1      48.744   9.792  13.346  0.00  0.00    +0.000 OA
ATOM     24  H   UNL     1      49.596   6.751  13.148  0.00  0.00    +0.000 HD
BRANCH  22  25
ATOM     25  C   UNL     1      50.708   8.955  12.353  0.00  0.00    +0.000 A 
ATOM     26  C   UNL     1      50.681   9.391  11.036  0.00  0.00    +0.000 A 
ATOM     27  S   UNL     1      52.227   9.552  10.335  0.00  0.00    +0.000 S 
ATOM     28  C   UNL     1      52.986   8.991  11.750  0.00  0.00    +0.000 A 
ATOM     29  N   UNL     1      54.338   8.860  11.812  0.00  0.00    +0.000 NA
ATOM     30  C   UNL     1      54.777   8.386  12.929  0.00  0.00    +0.000 A 
ATOM     31  N   UNL     1      53.987   8.038  13.993  0.00  0.00    +0.000 N 
ATOM     32  C   UNL     1      52.620   8.191  13.992  0.00  0.00    +0.000 A 
ATOM     33  O   UNL     1      51.947   7.922  14.981  0.00  0.00    +0.000 OA
ATOM     34  C   UNL     1      52.073   8.702  12.749  0.00  0.00    +0.000 A 
ATOM     35  H   UNL     1      54.394   7.682  14.845  0.00  0.00    +0.000 HD
ENDBRANCH  22  25
ENDBRANCH  20  21
ENDBRANCH   4  20
TORSDOF 7
ENDMDL
MODEL 6
REMARK VINA RESULT:    -6.693      3.963      8.281
REMARK INTER + INTRA:         -10.478
REMARK INTER:                  -8.751
REMARK INTRA:                  -1.727
REMARK UNBOUND:                -1.047
REMARK  Name = 
REMARK  7 active torsions:
REMARK  status: ('A' for Active; 'I' for Inactive)
REMARK    1  A    between atoms: C_2  and  C_4
REMARK    2  A    between atoms: C_7  and  O_8
REMARK    3  A    between atoms: O_8  and  C_9
REMARK    4  A    between atoms: C_9  and  C_10
REMARK    5  A    between atoms: C_13  and  C_14
REMARK    6  A    between atoms: C_14  and  N_15
REMARK    7  A    between atoms: C_16  and  C_18
REMARK                            x       y       z     vdW  Elec       q    Type
REMARK                         _______ _______ _______ _____ _____    ______ ____
ROOT
ATOM      1  C   UNL     1      50.764   8.558  16.028  0.00  0.00    +0.000 A 
ATOM      2  C   UNL     1      49.706   9.477  16.020  0.00  0.00    +0.000 A 
ATOM      3  C   UNL     1      48.958   9.693  14.857  0.00  0.00    +0.000 A 
ATOM      4  C   UNL     1      49.240   8.978  13.685  0.00  0.00    +0.000 A 
ATOM      5  C   UNL     1      50.292   8.054  13.697  0.00  0.00    +0.000 A 
ATOM      6  C   UNL     1      51.040   7.838  14.858  0.00  0.00    +0.000 A 
ENDROOT
BRANCH   1   7
ATOM      7  C   UNL     1      51.617   8.375  17.262  0.00  0.00    +0.000 C 
BRANCH   7   8
ATOM      8  O   UNL     1      50.864   7.757  18.307  0.00  0.00    +0.000 OA
BRANCH   8  12
ATOM      9  C   UNL     1      48.775   4.415  17.119  0.00  0.00    +0.000 A 
ATOM     10  C   UNL     1      48.026   5.478  17.602  0.00  0.00    +0.000 A 
ATOM     11  C   UNL     1      48.692   6.631  18.017  0.00  0.00    +0.000 A 
ATOM     12  C   UNL     1      50.082   6.696  17.936  0.00  0.00    +0.000 A 
ATOM     13  C   UNL     1      50.742   5.577  17.430  0.00  0.00    +0.000 A 
ATOM     14  N   UNL     1      50.133   4.432  17.020  0.00  0.00    +0.000 NA
BRANCH   9  16
ATOM     15  N   UNL     1      46.952   2.835  17.398  0.00  0.00    +0.000 N 
ATOM     16  C   UNL     1      48.073   3.165  16.686  0.00  0.00    +0.000 C 
ATOM     17  O   UNL     1      48.463   2.479  15.750  0.00  0.00    +0.000 OA
ATOM     18  H   UNL     1      46.425   2.015  17.141  0.00  0.00    +0.000 HD
ATOM     19  H   UNL     1      46.645   3.433  18.156  0.00  0.00    +0.000 HD
ENDBRANCH   9  16
ENDBRANCH   8  12
ENDBRANCH   7   8
ENDBRANCH   1   7
BRANCH   4  20
ATOM     20  C   UNL     1      48.456   9.221  12.421  0.00  0.00    +0.000 C 
BRANCH  20  21
ATOM     21  N   UNL     1      47.584   8.112  12.122  0.00  0.00    +0.000 N 
ATOM     22  C   UNL     1      46.305   8.066  12.616  0.00  0.00    +0.000 C 
ATOM     23  O   UNL     1      45.840   8.979  13.293  0.00  0.00    +0.000 OA
ATOM     24  H   UNL     1      48.014   7.265  11.763  0.00  0.00    +0.000 HD
BRANCH  22  25
ATOM     25  C   UNL     1      45.493   6.901  12.245  0.00  0.00    +0.000 A 
ATOM     26  C   UNL     1      44.328   7.084  11.512  0.00  0.00    +0.000 A 
ATOM     27  S   UNL     1      43.532   5.629  11.116  0.00  0.00    +0.000 S 
ATOM     28  C   UNL     1      44.686   4.705  11.957  0.00  0.00    +0.000 A 
ATOM     29  N   UNL     1      44.575   3.352  12.033  0.00  0.00    +0.000 NA
ATOM     30  C   UNL     1      45.495   2.780  12.735  0.00  0.00    +0.000 A 
ATOM     31  N   UNL     1      46.520   3.440  13.364  0.00  0.00    +0.000 N 
ATOM     32  C   UNL     1      46.695   4.801  13.280  0.00  0.00    +0.000 A 
ATOM     33  O   UNL     1      47.655   5.354  13.808  0.00  0.00    +0.000 OA
ATOM     34  C   UNL     1      45.675   5.495  12.518  0.00  0.00    +0.000 A 
ATOM     35  H   UNL     1      47.216   2.932  13.890  0.00  0.00    +0.000 HD
ENDBRANCH  22  25
ENDBRANCH  20  21
ENDBRANCH   4  20
TORSDOF 7
ENDMDL
MODEL 7
REMARK VINA RESULT:    -6.507      5.289      9.392
REMARK INTER + INTRA:         -10.217
REMARK INTER:                  -9.228
REMARK INTRA:                  -0.989
REMARK UNBOUND:                -1.047
REMARK  Name = 
REMARK  7 active torsions:
REMARK  status: ('A' for Active; 'I' for Inactive)
REMARK    1  A    between atoms: C_2  and  C_4
REMARK    2  A    between atoms: C_7  and  O_8
REMARK    3  A    between atoms: O_8  and  C_9
REMARK    4  A    between atoms: C_9  and  C_10
REMARK    5  A    between atoms: C_13  and  C_14
REMARK    6  A    between atoms: C_14  and  N_15
REMARK    7  A    between atoms: C_16  and  C_18
REMARK                            x       y       z     vdW  Elec       q    Type
REMARK                         _______ _______ _______ _____ _____    ______ ____
ROOT
ATOM      1  C   UNL     1      51.830   3.168  17.908  0.00  0.00    +0.000 A 
ATOM      2  C   UNL     1      51.089   2.122  17.341  0.00  0.00    +0.000 A 
ATOM      3  C   UNL     1      49.702   2.232  17.187  0.00  0.00    +0.000 A 
ATOM      4  C   UNL     1      49.032   3.399  17.578  0.00  0.00    +0.000 A 
ATOM      5  C   UNL     1      49.774   4.447  18.137  0.00  0.00    +0.000 A 
ATOM      6  C   UNL     1      51.160   4.337  18.290  0.00  0.00    +0.000 A 
ENDROOT
BRANCH   1   7
ATOM      7  C   UNL     1      53.315   3.023  18.139  0.00  0.00    +0.000 C 
BRANCH   7   8
ATOM      8  O   UNL     1      53.603   1.794  18.810  0.00  0.00    +0.000 OA
BRANCH   8  12
ATOM      9  C   UNL     1      55.041  -1.427  16.688  0.00  0.00    +0.000 A 
ATOM     10  C   UNL     1      55.137  -0.185  16.076  0.00  0.00    +0.000 A 
ATOM     11  C   UNL     1      54.661   0.935  16.758  0.00  0.00    +0.000 A 
ATOM     12  C   UNL     1      54.109   0.790  18.029  0.00  0.00    +0.000 A 
ATOM     13  C   UNL     1      54.064  -0.499  18.559  0.00  0.00    +0.000 A 
ATOM     14  N   UNL     1      54.511  -1.617  17.927  0.00  0.00    +0.000 NA
BRANCH   9  16
ATOM     15  N   UNL     1      55.706  -2.492  14.610  0.00  0.00    +0.000 N 
ATOM     16  C   UNL     1      55.532  -2.639  15.958  0.00  0.00    +0.000 C 
ATOM     17  O   UNL     1      55.775  -3.697  16.525  0.00  0.00    +0.000 OA
ATOM     18  H   UNL     1      56.054  -3.268  14.067  0.00  0.00    +0.000 HD
ATOM     19  H   UNL     1      55.514  -1.598  14.173  0.00  0.00    +0.000 HD
ENDBRANCH   9  16
ENDBRANCH   8  12
ENDBRANCH   7   8
ENDBRANCH   1   7
BRANCH   4  20
ATOM     20  C   UNL     1      47.536   3.518  17.438  0.00  0.00    +0.000 C 
BRANCH  20  21
ATOM     21  N   UNL     1      47.177   4.428  16.379  0.00  0.00    +0.000 N 
ATOM     22  C   UNL     1      47.222   4.035  15.065  0.00  0.00    +0.000 C 
ATOM     23  O   UNL     1      47.525   2.890  14.742  0.00  0.00    +0.000 OA
ATOM     24  H   UNL     1      47.144   5.418  16.606  0.00  0.00    +0.000 HD
BRANCH  22  25
ATOM     25  C   UNL     1      46.826   5.032  14.062  0.00  0.00    +0.000 A 
ATOM     26  C   UNL     1      45.693   4.814  13.291  0.00  0.00    +0.000 A 
ATOM     27  S   UNL     1      45.340   6.089  12.215  0.00  0.00    +0.000 S 
ATOM     28  C   UNL     1      46.722   6.953  12.701  0.00  0.00    +0.000 A 
ATOM     29  N   UNL     1      47.032   8.151  12.135  0.00  0.00    +0.000 NA
ATOM     30  C   UNL     1      48.127   8.678  12.568  0.00  0.00    +0.000 A 
ATOM     31  N   UNL     1      48.939   8.118  13.521  0.00  0.00    +0.000 N 
ATOM     32  C   UNL     1      48.646   6.931  14.149  0.00  0.00    +0.000 A 
ATOM     33  O   UNL     1      49.365   6.485  15.037  0.00  0.00    +0.000 OA
ATOM     34  C   UNL     1      47.433   6.286  13.684  0.00  0.00    +0.000 A 
ATOM     35  H   UNL     1      49.779   8.588  13.824  0.00  0.00    +0.000 HD
ENDBRANCH  22  25
ENDBRANCH  20  21
ENDBRANCH   4  20
TORSDOF 7
ENDMDL
MODEL 8
REMARK VINA RESULT:    -6.353      6.061      8.984
REMARK INTER + INTRA:         -10.000
REMARK INTER:                  -9.106
REMARK INTRA:                  -0.894
REMARK UNBOUND:                -1.047
REMARK  Name = 
REMARK  7 active torsions:
REMARK  status: ('A' for Active; 'I' for Inactive)
REMARK    1  A    between atoms: C_2  and  C_4
REMARK    2  A    between atoms: C_7  and  O_8
REMARK    3  A    between atoms: O_8  and  C_9
REMARK    4  A    between atoms: C_9  and  C_10
REMARK    5  A    between atoms: C_13  and  C_14
REMARK    6  A    between atoms: C_14  and  N_15
REMARK    7  A    between atoms: C_16  and  C_18
REMARK                            x       y       z     vdW  Elec       q    Type
REMARK                         _______ _______ _______ _____ _____    ______ ____
ROOT
ATOM      1  C   UNL     1      48.293   8.792  11.980  0.00  0.00    +0.000 A 
ATOM      2  C   UNL     1      49.334   7.859  11.874  0.00  0.00    +0.000 A 
ATOM      3  C   UNL     1      50.594   8.246  11.403  0.00  0.00    +0.000 A 
ATOM      4  C   UNL     1      50.843   9.579  11.048  0.00  0.00    +0.000 A 
ATOM      5  C   UNL     1      49.805  10.512  11.163  0.00  0.00    +0.000 A 
ATOM      6  C   UNL     1      48.547  10.125  11.633  0.00  0.00    +0.000 A 
ENDROOT
BRANCH   1   7
ATOM      7  C   UNL     1      46.915   8.361  12.422  0.00  0.00    +0.000 C 
BRANCH   7   8
ATOM      8  O   UNL     1      46.989   7.185  13.231  0.00  0.00    +0.000 OA
BRANCH   8  12
ATOM      9  C   UNL     1      44.907   4.056  11.554  0.00  0.00    +0.000 A 
ATOM     10  C   UNL     1      45.462   3.834  12.806  0.00  0.00    +0.000 A 
ATOM     11  C   UNL     1      46.178   4.866  13.413  0.00  0.00    +0.000 A 
ATOM     12  C   UNL     1      46.316   6.090  12.760  0.00  0.00    +0.000 A 
ATOM     13  C   UNL     1      45.715   6.214  11.508  0.00  0.00    +0.000 A 
ATOM     14  N   UNL     1      45.015   5.233  10.879  0.00  0.00    +0.000 NA
BRANCH   9  16
ATOM     15  N   UNL     1      44.788   2.344   9.837  0.00  0.00    +0.000 N 
ATOM     16  C   UNL     1      44.151   2.949  10.885  0.00  0.00    +0.000 C 
ATOM     17  O   UNL     1      43.038   2.594  11.252  0.00  0.00    +0.000 OA
ATOM     18  H   UNL     1      44.337   1.578   9.359  0.00  0.00    +0.000 HD
ATOM     19  H   UNL     1      45.716   2.648   9.570  0.00  0.00    +0.000 HD
ENDBRANCH   9  16
ENDBRANCH   8  12
ENDBRANCH   7   8
ENDBRANCH   1   7
BRANCH   4  20
ATOM     20  C   UNL     1      52.189  10.002  10.517  0.00  0.00    +0.000 C 
BRANCH  20  21
ATOM     21  N   UNL     1      52.495   9.340   9.273  0.00  0.00    +0.000 N 
ATOM     22  C   UNL     1      53.676   8.661   9.107  0.00  0.00    +0.000 C 
ATOM     23  O   UNL     1      54.494   8.553  10.017  0.00  0.00    +0.000 OA
ATOM     24  H   UNL     1      51.948   9.603   8.459  0.00  0.00    +0.000 HD
BRANCH  22  25
ATOM     25  C   UNL     1      53.890   8.012   7.807  0.00  0.00    +0.000 A 
ATOM     26  C   UNL     1      54.121   8.792   6.682  0.00  0.00    +0.000 A 
ATOM     27  S   UNL     1      54.405   7.885   5.267  0.00  0.00    +0.000 S 
ATOM     28  C   UNL     1      54.174   6.417   6.095  0.00  0.00    +0.000 A 
ATOM     29  N   UNL     1      54.254   5.227   5.442  0.00  0.00    +0.000 NA
ATOM     30  C   UNL     1      54.018   4.196   6.182  0.00  0.00    +0.000 A 
ATOM     31  N   UNL     1      53.714   4.248   7.518  0.00  0.00    +0.000 N 
ATOM     32  C   UNL     1      53.663   5.424   8.228  0.00  0.00    +0.000 A 
ATOM     33  O   UNL     1      53.443   5.431   9.435  0.00  0.00    +0.000 OA
ATOM     34  C   UNL     1      53.901   6.616   7.437  0.00  0.00    +0.000 A 
ATOM     35  H   UNL     1      53.550   3.402   8.043  0.00  0.00    +0.000 HD
ENDBRANCH  22  25
ENDBRANCH  20  21
ENDBRANCH   4  20
TORSDOF 7
ENDMDL
