MODEL 1
REMARK VINA RESULT:    -7.791      0.000      0.000
REMARK INTER + INTRA:         -11.080
REMARK INTER:                 -10.524
REMARK INTRA:                  -0.557
REMARK UNBOUND:                -0.557
REMARK  Name = 
REMARK  7 active torsions:
REMARK  status: ('A' for Active; 'I' for Inactive)
REMARK    1  A    between atoms: N_1  and  C_2
REMARK    2  A    between atoms: C_2  and  C_3
REMARK    3  A    between atoms: C_6  and  O_7
REMARK    4  A    between atoms: O_7  and  C_8
REMARK    5  A    between atoms: C_8  and  C_9
REMARK    6  A    between atoms: C_12  and  C_13
REMARK    7  A    between atoms: C_13  and  O_15
REMARK                            x       y       z     vdW  Elec       q    Type
REMARK                         _______ _______ _______ _____ _____    ______ ____
ROOT
ATOM      1  C   UNL     1      43.420   3.900  11.266  0.00  0.00    +0.000 C 
ENDROOT
BRANCH   1   2
ATOM      2  C   UNL     1      44.521   4.487  12.117  0.00  0.00    +0.000 A 
ATOM      3  N   UNL     1      45.337   3.624  12.784  0.00  0.00    +0.000 NA
ATOM      4  C   UNL     1      46.386   4.155  13.467  0.00  0.00    +0.000 A 
ATOM      5  C   UNL     1      46.657   5.516  13.531  0.00  0.00    +0.000 A 
ATOM      6  C   UNL     1      45.821   6.387  12.832  0.00  0.00    +0.000 A 
ATOM      7  C   UNL     1      44.746   5.860  12.123  0.00  0.00    +0.000 A 
ATOM      8  F   UNL     1      43.968   6.687  11.412  0.00  0.00    +0.000 F 
BRANCH   5   9
ATOM      9  C   UNL     1      47.856   5.949  14.277  0.00  0.00    +0.000 C 
ATOM     10  O   UNL     1      48.838   6.410  13.718  0.00  0.00    +0.000 OA
BRANCH   9  11
ATOM     11  O   UNL     1      47.790   5.766  15.611  0.00  0.00    +0.000 OA
ATOM     12  H   UNL     1      47.182   6.342  16.106  0.00  0.00    +0.000 HD
ENDBRANCH   9  11
ENDBRANCH   5   9
ENDBRANCH   1   2
BRANCH   1  13
ATOM     13  O   UNL     1      43.564   4.257   9.887  0.00  0.00    +0.000 OA
BRANCH  13  17
ATOM     14  C   UNL     1      46.536   2.325   7.641  0.00  0.00    +0.000 A 
ATOM     15  C   UNL     1      45.727   1.572   8.498  0.00  0.00    +0.000 A 
ATOM     16  C   UNL     1      44.730   2.180   9.265  0.00  0.00    +0.000 A 
ATOM     17  C   UNL     1      44.524   3.558   9.195  0.00  0.00    +0.000 A 
ATOM     18  C   UNL     1      45.342   4.321   8.357  0.00  0.00    +0.000 A 
ATOM     19  C   UNL     1      46.340   3.711   7.584  0.00  0.00    +0.000 A 
BRANCH  14  20
ATOM     20  C   UNL     1      47.604   1.645   6.822  0.00  0.00    +0.000 C 
BRANCH  20  21
ATOM     21  N   UNL     1      48.622   2.591   6.377  0.00  0.00    +0.000 NA
ATOM     22  H   UNL     1      48.786   3.278   7.110  0.00  0.00    +0.000 HD
ATOM     23  H   UNL     1      48.265   3.103   5.572  0.00  0.00    +0.000 HD
ENDBRANCH  20  21
ENDBRANCH  14  20
ENDBRANCH  13  17
ENDBRANCH   1  13
TORSDOF 7
ENDMDL
MODEL 2
REMARK VINA RESULT:    -7.680      1.352      1.623
REMARK INTER + INTRA:         -10.930
REMARK INTER:                 -10.265
REMARK INTRA:                  -0.665
REMARK UNBOUND:                -0.557
REMARK  Name = 
REMARK  7 active torsions:
REMARK  status: ('A' for Active; 'I' for Inactive)
REMARK    1  A    between atoms: N_1  and  C_2
REMARK    2  A    between atoms: C_2  and  C_3
REMARK    3  A    between atoms: C_6  and  O_7
REMARK    4  A    between atoms: O_7  and  C_8
REMARK    5  A    between atoms: C_8  and  C_9
REMARK    6  A    between atoms: C_12  and  C_13
REMARK    7  A    between atoms: C_13  and  O_15
REMARK                            x       y       z     vdW  Elec       q    Type
REMARK                         _______ _______ _______ _____ _____    ______ ____
ROOT
ATOM      1  C   UNL     1      43.544   4.226  11.228  0.00  0.00    +0.000 C 
ENDROOT
BRANCH   1   2
ATOM      2  C   UNL     1      44.732   4.873  11.900  0.00  0.00    +0.000 A 
ATOM      3  N   UNL     1      44.791   6.234  11.913  0.00  0.00    +0.000 NA
ATOM      4  C   UNL     1      45.809   6.810  12.606  0.00  0.00    +0.000 A 
ATOM      5  C   UNL     1      46.788   6.092  13.282  0.00  0.00    +0.000 A 
ATOM      6  C   UNL     1      46.707   4.699  13.272  0.00  0.00    +0.000 A 
ATOM      7  C   UNL     1      45.668   4.093  12.571  0.00  0.00    +0.000 A 
ATOM      8  F   UNL     1      45.559   2.758  12.597  0.00  0.00    +0.000 F 
BRANCH   5   9
ATOM      9  C   UNL     1      47.813   6.850  14.027  0.00  0.00    +0.000 C 
ATOM     10  O   UNL     1      48.881   6.354  14.351  0.00  0.00    +0.000 OA
BRANCH   9  11
ATOM     11  O   UNL     1      47.465   8.113  14.344  0.00  0.00    +0.000 OA
ATOM     12  H   UNL     1      46.795   8.224  15.042  0.00  0.00    +0.000 HD
ENDBRANCH   9  11
ENDBRANCH   5   9
ENDBRANCH   1   2
BRANCH   1  13
ATOM     13  O   UNL     1      43.581   4.390   9.807  0.00  0.00    +0.000 OA
BRANCH  13  17
ATOM     14  C   UNL     1      46.545   2.323   7.671  0.00  0.00    +0.000 A 
ATOM     15  C   UNL     1      45.705   1.615   8.539  0.00  0.00    +0.000 A 
ATOM     16  C   UNL     1      44.710   2.269   9.270  0.00  0.00    +0.000 A 
ATOM     17  C   UNL     1      44.536   3.649   9.153  0.00  0.00    +0.000 A 
ATOM     18  C   UNL     1      45.384   4.366   8.305  0.00  0.00    +0.000 A 
ATOM     19  C   UNL     1      46.380   3.710   7.568  0.00  0.00    +0.000 A 
BRANCH  14  20
ATOM     20  C   UNL     1      47.609   1.593   6.892  0.00  0.00    +0.000 C 
BRANCH  20  21
ATOM     21  N   UNL     1      48.614   2.513   6.368  0.00  0.00    +0.000 NA
ATOM     22  H   UNL     1      49.388   2.577   7.026  0.00  0.00    +0.000 HD
ATOM     23  H   UNL     1      48.206   3.444   6.307  0.00  0.00    +0.000 HD
ENDBRANCH  20  21
ENDBRANCH  14  20
ENDBRANCH  13  17
ENDBRANCH   1  13
TORSDOF 7
ENDMDL
MODEL 3
REMARK VINA RESULT:    -7.537      2.685      6.251
REMARK INTER + INTRA:         -10.738
REMARK INTER:                 -10.191
REMARK INTRA:                  -0.547
REMARK UNBOUND:                -0.557
REMARK  Name = 
REMARK  7 active torsions:
REMARK  status: ('A' for Active; 'I' for Inactive)
REMARK    1  A    between atoms: N_1  and  C_2
REMARK    2  A    between atoms: C_2  and  C_3
REMARK    3  A    between atoms: C_6  and  O_7
REMARK    4  A    between atoms: O_7  and  C_8
REMARK    5  A    between atoms: C_8  and  C_9
REMARK    6  A    between atoms: C_12  and  C_13
REMARK    7  A    between atoms: C_13  and  O_15
REMARK                            x       y       z     vdW  Elec       q    Type
REMARK                         _______ _______ _______ _____ _____    ______ ____
ROOT
ATOM      1  C   UNL     1      44.119   5.108   9.861  0.00  0.00    +0.000 C 
ENDROOT
BRANCH   1   2
ATOM      2  C   UNL     1      44.838   3.993   9.140  0.00  0.00    +0.000 A 
ATOM      3  N   UNL     1      45.753   4.335   8.190  0.00  0.00    +0.000 NA
ATOM      4  C   UNL     1      46.467   3.331   7.616  0.00  0.00    +0.000 A 
ATOM      5  C   UNL     1      46.305   1.988   7.934  0.00  0.00    +0.000 A 
ATOM      6  C   UNL     1      45.374   1.652   8.918  0.00  0.00    +0.000 A 
ATOM      7  C   UNL     1      44.638   2.669   9.519  0.00  0.00    +0.000 A 
ATOM      8  F   UNL     1      43.778   2.357  10.498  0.00  0.00    +0.000 F 
BRANCH   5   9
ATOM      9  C   UNL     1      47.178   1.006   7.260  0.00  0.00    +0.000 C 
ATOM     10  O   UNL     1      47.952   1.328   6.371  0.00  0.00    +0.000 OA
BRANCH   9  11
ATOM     11  O   UNL     1      47.033  -0.265   7.680  0.00  0.00    +0.000 OA
ATOM     12  H   UNL     1      47.847  -0.767   7.862  0.00  0.00    +0.000 HD
ENDBRANCH   9  11
ENDBRANCH   5   9
ENDBRANCH   1   2
BRANCH   1  13
ATOM     13  O   UNL     1      45.034   6.029  10.464  0.00  0.00    +0.000 OA
BRANCH  13  17
ATOM     14  C   UNL     1      46.861   4.930  14.079  0.00  0.00    +0.000 A 
ATOM     15  C   UNL     1      45.644   4.342  13.719  0.00  0.00    +0.000 A 
ATOM     16  C   UNL     1      45.003   4.685  12.527  0.00  0.00    +0.000 A 
ATOM     17  C   UNL     1      45.565   5.631  11.667  0.00  0.00    +0.000 A 
ATOM     18  C   UNL     1      46.770   6.239  12.029  0.00  0.00    +0.000 A 
ATOM     19  C   UNL     1      47.415   5.892  13.224  0.00  0.00    +0.000 A 
BRANCH  14  20
ATOM     20  C   UNL     1      47.533   4.541  15.371  0.00  0.00    +0.000 C 
BRANCH  20  21
ATOM     21  N   UNL     1      47.789   3.104  15.430  0.00  0.00    +0.000 NA
ATOM     22  H   UNL     1      46.929   2.619  15.673  0.00  0.00    +0.000 HD
ATOM     23  H   UNL     1      48.451   2.920  16.182  0.00  0.00    +0.000 HD
ENDBRANCH  20  21
ENDBRANCH  14  20
ENDBRANCH  13  17
ENDBRANCH   1  13
TORSDOF 7
ENDMDL
MODEL 4
REMARK VINA RESULT:    -7.495      2.872      6.208
REMARK INTER + INTRA:         -10.681
REMARK INTER:                 -10.236
REMARK INTRA:                  -0.445
REMARK UNBOUND:                -0.557
REMARK  Name = 
REMARK  7 active torsions:
REMARK  status: ('A' for Active; 'I' for Inactive)
REMARK    1  A    between atoms: N_1  and  C_2
REMARK    2  A    between atoms: C_2  and  C_3
REMARK    3  A    between atoms: C_6  and  O_7
REMARK    4  A    between atoms: O_7  and  C_8
REMARK    5  A    between atoms: C_8  and  C_9
REMARK    6  A    between atoms: C_12  and  C_13
REMARK    7  A    between atoms: C_13  and  O_15
REMARK                            x       y       z     vdW  Elec       q    Type
REMARK                         _______ _______ _______ _____ _____    ______ ____
ROOT
ATOM      1  C   UNL     1      43.806   4.799  10.077  0.00  0.00    +0.000 C 
ENDROOT
BRANCH   1   2
ATOM      2  C   UNL     1      44.703   3.973   9.186  0.00  0.00    +0.000 A 
ATOM      3  N   UNL     1      45.533   4.634   8.331  0.00  0.00    +0.000 NA
ATOM      4  C   UNL     1      46.407   3.889   7.606  0.00  0.00    +0.000 A 
ATOM      5  C   UNL     1      46.489   2.503   7.678  0.00  0.00    +0.000 A 
ATOM      6  C   UNL     1      45.643   1.840   8.568  0.00  0.00    +0.000 A 
ATOM      7  C   UNL     1      44.745   2.589   9.322  0.00  0.00    +0.000 A 
ATOM      8  F   UNL     1      43.963   1.963  10.212  0.00  0.00    +0.000 F 
BRANCH   5   9
ATOM      9  C   UNL     1      47.516   1.826   6.861  0.00  0.00    +0.000 C 
ATOM     10  O   UNL     1      47.427   0.648   6.551  0.00  0.00    +0.000 OA
BRANCH   9  11
ATOM     11  O   UNL     1      48.564   2.598   6.513  0.00  0.00    +0.000 OA
ATOM     12  H   UNL     1      49.127   2.930   7.235  0.00  0.00    +0.000 HD
ENDBRANCH   9  11
ENDBRANCH   5   9
ENDBRANCH   1   2
BRANCH   1  13
ATOM     13  O   UNL     1      44.066   4.560  11.464  0.00  0.00    +0.000 OA
BRANCH  13  17
ATOM     14  C   UNL     1      47.500   6.255  13.182  0.00  0.00    +0.000 A 
ATOM     15  C   UNL     1      46.889   6.894  12.097  0.00  0.00    +0.000 A 
ATOM     16  C   UNL     1      45.747   6.359  11.496  0.00  0.00    +0.000 A 
ATOM     17  C   UNL     1      45.193   5.166  11.965  0.00  0.00    +0.000 A 
ATOM     18  C   UNL     1      45.809   4.510  13.034  0.00  0.00    +0.000 A 
ATOM     19  C   UNL     1      46.953   5.049  13.640  0.00  0.00    +0.000 A 
BRANCH  14  20
ATOM     20  C   UNL     1      48.730   6.855  13.814  0.00  0.00    +0.000 C 
BRANCH  20  21
ATOM     21  N   UNL     1      49.826   6.963  12.856  0.00  0.00    +0.000 NA
ATOM     22  H   UNL     1      49.643   6.350  12.065  0.00  0.00    +0.000 HD
ATOM     23  H   UNL     1      50.681   6.625  13.295  0.00  0.00    +0.000 HD
ENDBRANCH  20  21
ENDBRANCH  14  20
ENDBRANCH  13  17
ENDBRANCH   1  13
TORSDOF 7
ENDMDL
MODEL 5
REMARK VINA RESULT:    -7.232      2.790      6.309
REMARK INTER + INTRA:         -10.325
REMARK INTER:                  -9.697
REMARK INTRA:                  -0.628
REMARK UNBOUND:                -0.557
REMARK  Name = 
REMARK  7 active torsions:
REMARK  status: ('A' for Active; 'I' for Inactive)
REMARK    1  A    between atoms: N_1  and  C_2
REMARK    2  A    between atoms: C_2  and  C_3
REMARK    3  A    between atoms: C_6  and  O_7
REMARK    4  A    between atoms: O_7  and  C_8
REMARK    5  A    between atoms: C_8  and  C_9
REMARK    6  A    between atoms: C_12  and  C_13
REMARK    7  A    between atoms: C_13  and  O_15
REMARK                            x       y       z     vdW  Elec       q    Type
REMARK                         _______ _______ _______ _____ _____    ______ ____
ROOT
ATOM      1  C   UNL     1      43.683   4.524  10.140  0.00  0.00    +0.000 C 
ENDROOT
BRANCH   1   2
ATOM      2  C   UNL     1      44.656   3.600   9.446  0.00  0.00    +0.000 A 
ATOM      3  N   UNL     1      44.441   2.259   9.546  0.00  0.00    +0.000 NA
ATOM      4  C   UNL     1      45.260   1.438   8.838  0.00  0.00    +0.000 A 
ATOM      5  C   UNL     1      46.303   1.890   8.037  0.00  0.00    +0.000 A 
ATOM      6  C   UNL     1      46.504   3.267   7.933  0.00  0.00    +0.000 A 
ATOM      7  C   UNL     1      45.670   4.121   8.648  0.00  0.00    +0.000 A 
ATOM      8  F   UNL     1      45.828   5.445   8.515  0.00  0.00    +0.000 F 
BRANCH   5   9
ATOM      9  C   UNL     1      47.089   0.886   7.292  0.00  0.00    +0.000 C 
ATOM     10  O   UNL     1      47.833   1.195   6.374  0.00  0.00    +0.000 OA
BRANCH   9  11
ATOM     11  O   UNL     1      46.896  -0.389   7.682  0.00  0.00    +0.000 OA
ATOM     12  H   UNL     1      46.100  -0.838   7.346  0.00  0.00    +0.000 HD
ENDBRANCH   9  11
ENDBRANCH   5   9
ENDBRANCH   1   2
BRANCH   1  13
ATOM     13  O   UNL     1      43.806   4.456  11.564  0.00  0.00    +0.000 OA
BRANCH  13  17
ATOM     14  C   UNL     1      46.760   7.031  13.067  0.00  0.00    +0.000 A 
ATOM     15  C   UNL     1      46.746   5.692  13.473  0.00  0.00    +0.000 A 
ATOM     16  C   UNL     1      45.777   4.806  12.998  0.00  0.00    +0.000 A 
ATOM     17  C   UNL     1      44.793   5.241  12.108  0.00  0.00    +0.000 A 
ATOM     18  C   UNL     1      44.787   6.582  11.714  0.00  0.00    +0.000 A 
ATOM     19  C   UNL     1      45.762   7.471  12.187  0.00  0.00    +0.000 A 
BRANCH  14  20
ATOM     20  C   UNL     1      47.819   7.967  13.592  0.00  0.00    +0.000 C 
BRANCH  20  21
ATOM     21  N   UNL     1      47.262   8.927  14.541  0.00  0.00    +0.000 NA
ATOM     22  H   UNL     1      47.819   9.779  14.522  0.00  0.00    +0.000 HD
ATOM     23  H   UNL     1      47.346   8.544  15.481  0.00  0.00    +0.000 HD
ENDBRANCH  20  21
ENDBRANCH  14  20
ENDBRANCH  13  17
ENDBRANCH   1  13
TORSDOF 7
ENDMDL
MODEL 6
REMARK VINA RESULT:    -5.984      3.500      7.408
REMARK INTER + INTRA:          -8.640
REMARK INTER:                  -8.262
REMARK INTRA:                  -0.378
REMARK UNBOUND:                -0.557
REMARK  Name = 
REMARK  7 active torsions:
REMARK  status: ('A' for Active; 'I' for Inactive)
REMARK    1  A    between atoms: N_1  and  C_2
REMARK    2  A    between atoms: C_2  and  C_3
REMARK    3  A    between atoms: C_6  and  O_7
REMARK    4  A    between atoms: O_7  and  C_8
REMARK    5  A    between atoms: C_8  and  C_9
REMARK    6  A    between atoms: C_12  and  C_13
REMARK    7  A    between atoms: C_13  and  O_15
REMARK                            x       y       z     vdW  Elec       q    Type
REMARK                         _______ _______ _______ _____ _____    ______ ____
ROOT
ATOM      1  C   UNL     1      46.810   5.163  14.779  0.00  0.00    +0.000 C 
ENDROOT
BRANCH   1   2
ATOM      2  C   UNL     1      46.207   4.790  13.445  0.00  0.00    +0.000 A 
ATOM      3  N   UNL     1      45.727   3.524  13.296  0.00  0.00    +0.000 NA
ATOM      4  C   UNL     1      45.096   3.227  12.129  0.00  0.00    +0.000 A 
ATOM      5  C   UNL     1      44.929   4.132  11.087  0.00  0.00    +0.000 A 
ATOM      6  C   UNL     1      45.414   5.429  11.260  0.00  0.00    +0.000 A 
ATOM      7  C   UNL     1      46.058   5.752  12.450  0.00  0.00    +0.000 A 
ATOM      8  F   UNL     1      46.483   7.008  12.640  0.00  0.00    +0.000 F 
BRANCH   5   9
ATOM      9  C   UNL     1      44.187   3.684   9.892  0.00  0.00    +0.000 C 
ATOM     10  O   UNL     1      44.058   2.502   9.613  0.00  0.00    +0.000 OA
BRANCH   9  11
ATOM     11  O   UNL     1      43.695   4.676   9.125  0.00  0.00    +0.000 OA
ATOM     12  H   UNL     1      44.042   4.747   8.219  0.00  0.00    +0.000 HD
ENDBRANCH   9  11
ENDBRANCH   5   9
ENDBRANCH   1   2
BRANCH   1  13
ATOM     13  O   UNL     1      46.853   4.047  15.675  0.00  0.00    +0.000 OA
BRANCH  13  17
ATOM     14  C   UNL     1      50.518   3.104  17.490  0.00  0.00    +0.000 A 
ATOM     15  C   UNL     1      50.110   4.440  17.421  0.00  0.00    +0.000 A 
ATOM     16  C   UNL     1      48.900   4.795  16.822  0.00  0.00    +0.000 A 
ATOM     17  C   UNL     1      48.070   3.817  16.271  0.00  0.00    +0.000 A 
ATOM     18  C   UNL     1      48.478   2.481  16.316  0.00  0.00    +0.000 A 
ATOM     19  C   UNL     1      49.692   2.125  16.921  0.00  0.00    +0.000 A 
BRANCH  14  20
ATOM     20  C   UNL     1      51.828   2.748  18.145  0.00  0.00    +0.000 C 
BRANCH  20  21
ATOM     21  N   UNL     1      52.051   1.305  18.149  0.00  0.00    +0.000 NA
ATOM     22  H   UNL     1      51.601   0.898  18.966  0.00  0.00    +0.000 HD
ATOM     23  H   UNL     1      53.049   1.128  18.247  0.00  0.00    +0.000 HD
ENDBRANCH  20  21
ENDBRANCH  14  20
ENDBRANCH  13  17
ENDBRANCH   1  13
TORSDOF 7
ENDMDL
MODEL 7
REMARK VINA RESULT:    -5.888      3.615      7.929
REMARK INTER + INTRA:          -8.510
REMARK INTER:                  -8.170
REMARK INTRA:                  -0.340
REMARK UNBOUND:                -0.557
REMARK  Name = 
REMARK  7 active torsions:
REMARK  status: ('A' for Active; 'I' for Inactive)
REMARK    1  A    between atoms: N_1  and  C_2
REMARK    2  A    between atoms: C_2  and  C_3
REMARK    3  A    between atoms: C_6  and  O_7
REMARK    4  A    between atoms: O_7  and  C_8
REMARK    5  A    between atoms: C_8  and  C_9
REMARK    6  A    between atoms: C_12  and  C_13
REMARK    7  A    between atoms: C_13  and  O_15
REMARK                            x       y       z     vdW  Elec       q    Type
REMARK                         _______ _______ _______ _____ _____    ______ ____
ROOT
ATOM      1  C   UNL     1      47.037   4.994  14.543  0.00  0.00    +0.000 C 
ENDROOT
BRANCH   1   2
ATOM      2  C   UNL     1      46.396   4.659  13.218  0.00  0.00    +0.000 A 
ATOM      3  N   UNL     1      45.843   3.422  13.074  0.00  0.00    +0.000 NA
ATOM      4  C   UNL     1      45.181   3.162  11.916  0.00  0.00    +0.000 A 
ATOM      5  C   UNL     1      45.052   4.077  10.877  0.00  0.00    +0.000 A 
ATOM      6  C   UNL     1      45.611   5.344  11.044  0.00  0.00    +0.000 A 
ATOM      7  C   UNL     1      46.288   5.628  12.226  0.00  0.00    +0.000 A 
ATOM      8  F   UNL     1      46.786   6.858  12.410  0.00  0.00    +0.000 F 
BRANCH   5   9
ATOM      9  C   UNL     1      44.269   3.672   9.692  0.00  0.00    +0.000 C 
ATOM     10  O   UNL     1      44.228   2.515   9.304  0.00  0.00    +0.000 OA
BRANCH   9  11
ATOM     11  O   UNL     1      43.635   4.680   9.061  0.00  0.00    +0.000 OA
ATOM     12  H   UNL     1      43.912   5.586   9.285  0.00  0.00    +0.000 HD
ENDBRANCH   9  11
ENDBRANCH   5   9
ENDBRANCH   1   2
BRANCH   1  13
ATOM     13  O   UNL     1      47.077   3.863  15.419  0.00  0.00    +0.000 OA
BRANCH  13  17
ATOM     14  C   UNL     1      49.260   4.642  18.918  0.00  0.00    +0.000 A 
ATOM     15  C   UNL     1      48.560   3.436  18.800  0.00  0.00    +0.000 A 
ATOM     16  C   UNL     1      47.819   3.142  17.653  0.00  0.00    +0.000 A 
ATOM     17  C   UNL     1      47.757   4.054  16.598  0.00  0.00    +0.000 A 
ATOM     18  C   UNL     1      48.435   5.270  16.715  0.00  0.00    +0.000 A 
ATOM     19  C   UNL     1      49.182   5.564  17.865  0.00  0.00    +0.000 A 
BRANCH  14  20
ATOM     20  C   UNL     1      50.054   4.934  20.166  0.00  0.00    +0.000 C 
BRANCH  20  21
ATOM     21  N   UNL     1      51.389   4.346  20.100  0.00  0.00    +0.000 NA
ATOM     22  H   UNL     1      51.549   3.783  20.932  0.00  0.00    +0.000 HD
ATOM     23  H   UNL     1      52.078   5.096  20.118  0.00  0.00    +0.000 HD
ENDBRANCH  20  21
ENDBRANCH  14  20
ENDBRANCH  13  17
ENDBRANCH   1  13
TORSDOF 7
ENDMDL
MODEL 8
REMARK VINA RESULT:    -5.872      2.051      2.548
REMARK INTER + INTRA:          -8.489
REMARK INTER:                  -8.186
REMARK INTRA:                  -0.303
REMARK UNBOUND:                -0.557
REMARK  Name = 
REMARK  7 active torsions:
REMARK  status: ('A' for Active; 'I' for Inactive)
REMARK    1  A    between atoms: N_1  and  C_2
REMARK    2  A    between atoms: C_2  and  C_3
REMARK    3  A    between atoms: C_6  and  O_7
REMARK    4  A    between atoms: O_7  and  C_8
REMARK    5  A    between atoms: C_8  and  C_9
REMARK    6  A    between atoms: C_12  and  C_13
REMARK    7  A    between atoms: C_13  and  O_15
REMARK                            x       y       z     vdW  Elec       q    Type
REMARK                         _______ _______ _______ _____ _____    ______ ____
ROOT
ATOM      1  C   UNL     1      44.401   4.425  12.840  0.00  0.00    +0.000 C 
ENDROOT
BRANCH   1   2
ATOM      2  C   UNL     1      45.420   5.540  12.875  0.00  0.00    +0.000 A 
ATOM      3  N   UNL     1      44.970   6.817  12.725  0.00  0.00    +0.000 NA
ATOM      4  C   UNL     1      45.877   7.820  12.858  0.00  0.00    +0.000 A 
ATOM      5  C   UNL     1      47.226   7.613  13.121  0.00  0.00    +0.000 A 
ATOM      6  C   UNL     1      47.671   6.301  13.286  0.00  0.00    +0.000 A 
ATOM      7  C   UNL     1      46.753   5.262  13.159  0.00  0.00    +0.000 A 
ATOM      8  F   UNL     1      47.165   4.003  13.362  0.00  0.00    +0.000 F 
BRANCH   5   9
ATOM      9  C   UNL     1      48.091   8.800  13.280  0.00  0.00    +0.000 C 
ATOM     10  O   UNL     1      48.783   8.971  14.271  0.00  0.00    +0.000 OA
BRANCH   9  11
ATOM     11  O   UNL     1      48.031   9.685  12.266  0.00  0.00    +0.000 OA
ATOM     12  H   UNL     1      48.877   9.972  11.880  0.00  0.00    +0.000 HD
ENDBRANCH   9  11
ENDBRANCH   5   9
ENDBRANCH   1   2
BRANCH   1  13
ATOM     13  O   UNL     1      43.632   4.443  11.633  0.00  0.00    +0.000 OA
BRANCH  13  17
ATOM     14  C   UNL     1      45.634   3.209   8.156  0.00  0.00    +0.000 A 
ATOM     15  C   UNL     1      44.958   2.261   8.932  0.00  0.00    +0.000 A 
ATOM     16  C   UNL     1      44.284   2.632  10.098  0.00  0.00    +0.000 A 
ATOM     17  C   UNL     1      44.275   3.963  10.517  0.00  0.00    +0.000 A 
ATOM     18  C   UNL     1      44.966   4.914   9.760  0.00  0.00    +0.000 A 
ATOM     19  C   UNL     1      45.639   4.542   8.589  0.00  0.00    +0.000 A 
BRANCH  14  20
ATOM     20  C   UNL     1      46.352   2.783   6.901  0.00  0.00    +0.000 C 
BRANCH  20  21
ATOM     21  N   UNL     1      46.948   3.923   6.212  0.00  0.00    +0.000 NA
ATOM     22  H   UNL     1      46.862   3.791   5.206  0.00  0.00    +0.000 HD
ATOM     23  H   UNL     1      47.945   3.946   6.419  0.00  0.00    +0.000 HD
ENDBRANCH  20  21
ENDBRANCH  14  20
ENDBRANCH  13  17
ENDBRANCH   1  13
TORSDOF 7
ENDMDL
MODEL 9
REMARK VINA RESULT:    -5.843      4.406      6.428
REMARK INTER + INTRA:          -8.449
REMARK INTER:                  -8.031
REMARK INTRA:                  -0.418
REMARK UNBOUND:                -0.557
REMARK  Name = 
REMARK  7 active torsions:
REMARK  status: ('A' for Active; 'I' for Inactive)
REMARK    1  A    between atoms: N_1  and  C_2
REMARK    2  A    between atoms: C_2  and  C_3
REMARK    3  A    between atoms: C_6  and  O_7
REMARK    4  A    between atoms: O_7  and  C_8
REMARK    5  A    between atoms: C_8  and  C_9
REMARK    6  A    between atoms: C_12  and  C_13
REMARK    7  A    between atoms: C_13  and  O_15
REMARK                            x       y       z     vdW  Elec       q    Type
REMARK                         _______ _______ _______ _____ _____    ______ ____
ROOT
ATOM      1  C   UNL     1      47.464   4.389  16.120  0.00  0.00    +0.000 C 
ENDROOT
BRANCH   1   2
ATOM      2  C   UNL     1      48.653   3.630  16.660  0.00  0.00    +0.000 A 
ATOM      3  N   UNL     1      48.865   2.367  16.197  0.00  0.00    +0.000 NA
ATOM      4  C   UNL     1      49.991   1.728  16.611  0.00  0.00    +0.000 A 
ATOM      5  C   UNL     1      50.919   2.285  17.483  0.00  0.00    +0.000 A 
ATOM      6  C   UNL     1      50.697   3.584  17.939  0.00  0.00    +0.000 A 
ATOM      7  C   UNL     1      49.551   4.254  17.521  0.00  0.00    +0.000 A 
ATOM      8  F   UNL     1      49.356   5.519  17.918  0.00  0.00    +0.000 F 
BRANCH   5   9
ATOM      9  C   UNL     1      52.119   1.491  17.816  0.00  0.00    +0.000 C 
ATOM     10  O   UNL     1      53.249   1.936  17.686  0.00  0.00    +0.000 OA
BRANCH   9  11
ATOM     11  O   UNL     1      51.869   0.237  18.241  0.00  0.00    +0.000 OA
ATOM     12  H   UNL     1      50.967  -0.104  18.106  0.00  0.00    +0.000 HD
ENDBRANCH   9  11
ENDBRANCH   5   9
ENDBRANCH   1   2
BRANCH   1  13
ATOM     13  O   UNL     1      47.774   5.067  14.898  0.00  0.00    +0.000 OA
BRANCH  13  17
ATOM     14  C   UNL     1      45.000   4.377  11.825  0.00  0.00    +0.000 A 
ATOM     15  C   UNL     1      45.336   5.692  12.162  0.00  0.00    +0.000 A 
ATOM     16  C   UNL     1      46.252   5.963  13.182  0.00  0.00    +0.000 A 
ATOM     17  C   UNL     1      46.849   4.920  13.892  0.00  0.00    +0.000 A 
ATOM     18  C   UNL     1      46.503   3.603  13.576  0.00  0.00    +0.000 A 
ATOM     19  C   UNL     1      45.586   3.331  12.551  0.00  0.00    +0.000 A 
BRANCH  14  20
ATOM     20  C   UNL     1      44.010   4.112  10.719  0.00  0.00    +0.000 C 
BRANCH  20  21
ATOM     21  N   UNL     1      42.919   3.253  11.170  0.00  0.00    +0.000 NA
ATOM     22  H   UNL     1      42.584   2.697  10.387  0.00  0.00    +0.000 HD
ATOM     23  H   UNL     1      42.141   3.840  11.465  0.00  0.00    +0.000 HD
ENDBRANCH  20  21
ENDBRANCH  14  20
ENDBRANCH  13  17
ENDBRANCH   1  13
TORSDOF 7
ENDMDL
