MODEL 1
REMARK VINA RESULT:    -8.689      0.000      0.000
REMARK INTER + INTRA:         -11.328
REMARK INTER:                 -10.721
REMARK INTRA:                  -0.607
REMARK UNBOUND:                -0.607
REMARK  Name = 
REMARK  4 active torsions:
REMARK  status: ('A' for Active; 'I' for Inactive)
REMARK    1  A    between atoms: C_2  and  C_4
REMARK    2  A    between atoms: N_8  and  C_9
REMARK    3  A    between atoms: C_9  and  C_10
REMARK    4  A    between atoms: C_14  and  C_15
REMARK                            x       y       z     vdW  Elec       q    Type
REMARK                         _______ _______ _______ _____ _____    ______ ____
ROOT
ATOM      1  C   UNL     1      46.599   2.501   7.257  0.00  0.00    +0.000 A 
ATOM      2  C   UNL     1      46.072   3.731   7.636  0.00  0.00    +0.000 A 
ATOM      3  C   UNL     1      45.236   3.797   8.751  0.00  0.00    +0.000 A 
ATOM      4  C   UNL     1      44.937   2.641   9.463  0.00  0.00    +0.000 A 
ATOM      5  N   UNL     1      44.169   2.618  10.590  0.00  0.00    +0.000 N 
ATOM      6  N   UNL     1      45.416   1.440   9.081  0.00  0.00    +0.000 NA
ATOM      7  C   UNL     1      46.226   1.388   7.992  0.00  0.00    +0.000 A 
ATOM      8  H   UNL     1      43.978   1.685  10.931  0.00  0.00    +0.000 HD
ENDROOT
BRANCH   1  10
ATOM      9  N   UNL     1      47.465   3.296   5.135  0.00  0.00    +0.000 N 
ATOM     10  C   UNL     1      47.516   2.339   6.113  0.00  0.00    +0.000 C 
ATOM     11  O   UNL     1      48.318   1.417   6.056  0.00  0.00    +0.000 OA
ATOM     12  H   UNL     1      48.170   3.236   4.412  0.00  0.00    +0.000 HD
ATOM     13  H   UNL     1      47.009   4.187   5.268  0.00  0.00    +0.000 HD
ENDBRANCH   1  10
BRANCH   5  14
ATOM     14  C   UNL     1      43.494   3.736  11.204  0.00  0.00    +0.000 C 
BRANCH  14  15
ATOM     15  C   UNL     1      44.422   4.815  11.719  0.00  0.00    +0.000 A 
ATOM     16  C   UNL     1      44.391   6.139  11.263  0.00  0.00    +0.000 A 
ATOM     17  C   UNL     1      45.246   7.095  11.807  0.00  0.00    +0.000 A 
ATOM     18  C   UNL     1      46.122   6.748  12.835  0.00  0.00    +0.000 A 
ATOM     19  C   UNL     1      46.163   5.441  13.349  0.00  0.00    +0.000 A 
ATOM     20  C   UNL     1      45.327   4.481  12.747  0.00  0.00    +0.000 A 
BRANCH  19  21
ATOM     21  C   UNL     1      47.003   5.098  14.516  0.00  0.00    +0.000 A 
ATOM     22  C   UNL     1      47.936   5.997  15.038  0.00  0.00    +0.000 A 
ATOM     23  C   UNL     1      48.682   5.645  16.159  0.00  0.00    +0.000 A 
ATOM     24  C   UNL     1      48.479   4.402  16.740  0.00  0.00    +0.000 A 
ATOM     25  C   UNL     1      47.533   3.566  16.173  0.00  0.00    +0.000 A 
ATOM     26  N   UNL     1      46.791   3.884  15.085  0.00  0.00    +0.000 NA
ENDBRANCH  19  21
ENDBRANCH  14  15
ENDBRANCH   5  14
TORSDOF 4
ENDMDL
MODEL 2
REMARK VINA RESULT:    -8.579      1.987      3.948
REMARK INTER + INTRA:         -11.192
REMARK INTER:                 -10.471
REMARK INTRA:                  -0.721
REMARK UNBOUND:                -0.607
REMARK  Name = 
REMARK  4 active torsions:
REMARK  status: ('A' for Active; 'I' for Inactive)
REMARK    1  A    between atoms: C_2  and  C_4
REMARK    2  A    between atoms: N_8  and  C_9
REMARK    3  A    between atoms: C_9  and  C_10
REMARK    4  A    between atoms: C_14  and  C_15
REMARK                            x       y       z     vdW  Elec       q    Type
REMARK                         _______ _______ _______ _____ _____    ______ ____
ROOT
ATOM      1  C   UNL     1      46.559   2.482   7.281  0.00  0.00    +0.000 A 
ATOM      2  C   UNL     1      46.043   3.717   7.657  0.00  0.00    +0.000 A 
ATOM      3  C   UNL     1      45.190   3.790   8.758  0.00  0.00    +0.000 A 
ATOM      4  C   UNL     1      44.862   2.635   9.459  0.00  0.00    +0.000 A 
ATOM      5  N   UNL     1      44.074   2.618  10.572  0.00  0.00    +0.000 N 
ATOM      6  N   UNL     1      45.330   1.429   9.078  0.00  0.00    +0.000 NA
ATOM      7  C   UNL     1      46.158   1.371   8.003  0.00  0.00    +0.000 A 
ATOM      8  H   UNL     1      43.864   1.685  10.905  0.00  0.00    +0.000 HD
ENDROOT
BRANCH   1  10
ATOM      9  N   UNL     1      47.444   3.253   5.158  0.00  0.00    +0.000 N 
ATOM     10  C   UNL     1      47.493   2.312   6.151  0.00  0.00    +0.000 C 
ATOM     11  O   UNL     1      48.306   1.400   6.119  0.00  0.00    +0.000 OA
ATOM     12  H   UNL     1      48.159   3.190   4.444  0.00  0.00    +0.000 HD
ATOM     13  H   UNL     1      46.976   4.140   5.270  0.00  0.00    +0.000 HD
ENDBRANCH   1  10
BRANCH   5  14
ATOM     14  C   UNL     1      43.405   3.742  11.180  0.00  0.00    +0.000 C 
BRANCH  14  15
ATOM     15  C   UNL     1      44.333   4.719  11.869  0.00  0.00    +0.000 A 
ATOM     16  C   UNL     1      45.382   4.324  12.708  0.00  0.00    +0.000 A 
ATOM     17  C   UNL     1      46.227   5.272  13.280  0.00  0.00    +0.000 A 
ATOM     18  C   UNL     1      46.054   6.627  12.997  0.00  0.00    +0.000 A 
ATOM     19  C   UNL     1      45.037   7.068  12.133  0.00  0.00    +0.000 A 
ATOM     20  C   UNL     1      44.164   6.095  11.610  0.00  0.00    +0.000 A 
BRANCH  19  21
ATOM     21  C   UNL     1      44.924   8.487  11.737  0.00  0.00    +0.000 A 
ATOM     22  C   UNL     1      45.859   9.440  12.149  0.00  0.00    +0.000 A 
ATOM     23  C   UNL     1      45.732  10.760  11.725  0.00  0.00    +0.000 A 
ATOM     24  C   UNL     1      44.676  11.102  10.894  0.00  0.00    +0.000 A 
ATOM     25  C   UNL     1      43.792  10.104  10.521  0.00  0.00    +0.000 A 
ATOM     26  N   UNL     1      43.894   8.812  10.915  0.00  0.00    +0.000 NA
ENDBRANCH  19  21
ENDBRANCH  14  15
ENDBRANCH   5  14
TORSDOF 4
ENDMDL
MODEL 3
REMARK VINA RESULT:    -7.938      3.076      7.132
REMARK INTER + INTRA:         -10.401
REMARK INTER:                  -9.825
REMARK INTRA:                  -0.576
REMARK UNBOUND:                -0.607
REMARK  Name = 
REMARK  4 active torsions:
REMARK  status: ('A' for Active; 'I' for Inactive)
REMARK    1  A    between atoms: C_2  and  C_4
REMARK    2  A    between atoms: N_8  and  C_9
REMARK    3  A    between atoms: C_9  and  C_10
REMARK    4  A    between atoms: C_14  and  C_15
REMARK                            x       y       z     vdW  Elec       q    Type
REMARK                         _______ _______ _______ _____ _____    ______ ____
ROOT
ATOM      1  C   UNL     1      48.108   6.930  13.584  0.00  0.00    +0.000 A 
ATOM      2  C   UNL     1      47.053   6.052  13.809  0.00  0.00    +0.000 A 
ATOM      3  C   UNL     1      45.917   6.135  13.003  0.00  0.00    +0.000 A 
ATOM      4  C   UNL     1      45.850   7.090  11.995  0.00  0.00    +0.000 A 
ATOM      5  N   UNL     1      44.802   7.214  11.132  0.00  0.00    +0.000 N 
ATOM      6  N   UNL     1      46.855   7.968  11.795  0.00  0.00    +0.000 NA
ATOM      7  C   UNL     1      47.954   7.878  12.588  0.00  0.00    +0.000 A 
ATOM      8  H   UNL     1      44.875   8.015  10.519  0.00  0.00    +0.000 HD
ENDROOT
BRANCH   1  10
ATOM      9  N   UNL     1      50.444   7.535  13.826  0.00  0.00    +0.000 N 
ATOM     10  C   UNL     1      49.360   6.896  14.364  0.00  0.00    +0.000 C 
ATOM     11  O   UNL     1      49.421   6.360  15.461  0.00  0.00    +0.000 OA
ATOM     12  H   UNL     1      51.265   7.600  14.415  0.00  0.00    +0.000 HD
ATOM     13  H   UNL     1      50.366   8.192  13.062  0.00  0.00    +0.000 HD
ENDBRANCH   1  10
BRANCH   5  14
ATOM     14  C   UNL     1      43.580   6.447  11.134  0.00  0.00    +0.000 C 
BRANCH  14  15
ATOM     15  C   UNL     1      43.781   4.958  10.957  0.00  0.00    +0.000 A 
ATOM     16  C   UNL     1      43.112   3.994  11.721  0.00  0.00    +0.000 A 
ATOM     17  C   UNL     1      43.311   2.637  11.482  0.00  0.00    +0.000 A 
ATOM     18  C   UNL     1      44.159   2.223  10.454  0.00  0.00    +0.000 A 
ATOM     19  C   UNL     1      44.825   3.154   9.638  0.00  0.00    +0.000 A 
ATOM     20  C   UNL     1      44.648   4.518   9.934  0.00  0.00    +0.000 A 
BRANCH  19  21
ATOM     21  C   UNL     1      45.628   2.722   8.476  0.00  0.00    +0.000 A 
ATOM     22  C   UNL     1      45.935   3.597   7.430  0.00  0.00    +0.000 A 
ATOM     23  C   UNL     1      46.724   3.157   6.371  0.00  0.00    +0.000 A 
ATOM     24  C   UNL     1      47.194   1.852   6.377  0.00  0.00    +0.000 A 
ATOM     25  C   UNL     1      46.856   1.045   7.450  0.00  0.00    +0.000 A 
ATOM     26  N   UNL     1      46.094   1.447   8.495  0.00  0.00    +0.000 NA
ENDBRANCH  19  21
ENDBRANCH  14  15
ENDBRANCH   5  14
TORSDOF 4
ENDMDL
MODEL 4
REMARK VINA RESULT:    -7.771      3.136      7.103
REMARK INTER + INTRA:         -10.195
REMARK INTER:                  -9.431
REMARK INTRA:                  -0.764
REMARK UNBOUND:                -0.607
REMARK  Name = 
REMARK  4 active torsions:
REMARK  status: ('A' for Active; 'I' for Inactive)
REMARK    1  A    between atoms: C_2  and  C_4
REMARK    2  A    between atoms: N_8  and  C_9
REMARK    3  A    between atoms: C_9  and  C_10
REMARK    4  A    between atoms: C_14  and  C_15
REMARK                            x       y       z     vdW  Elec       q    Type
REMARK                         _______ _______ _______ _____ _____    ______ ____
ROOT
ATOM      1  C   UNL     1      49.607   7.780  12.642  0.00  0.00    +0.000 A 
ATOM      2  C   UNL     1      48.728   7.818  11.565  0.00  0.00    +0.000 A 
ATOM      3  C   UNL     1      47.436   7.315  11.727  0.00  0.00    +0.000 A 
ATOM      4  C   UNL     1      47.047   6.781  12.950  0.00  0.00    +0.000 A 
ATOM      5  N   UNL     1      45.794   6.309  13.211  0.00  0.00    +0.000 N 
ATOM      6  N   UNL     1      47.907   6.708  13.987  0.00  0.00    +0.000 NA
ATOM      7  C   UNL     1      49.162   7.199  13.817  0.00  0.00    +0.000 A 
ATOM      8  H   UNL     1      45.707   5.875  14.121  0.00  0.00    +0.000 HD
ENDROOT
BRANCH   1  10
ATOM      9  N   UNL     1      51.831   7.974  13.591  0.00  0.00    +0.000 N 
ATOM     10  C   UNL     1      50.980   8.317  12.575  0.00  0.00    +0.000 C 
ATOM     11  O   UNL     1      51.359   9.001  11.636  0.00  0.00    +0.000 OA
ATOM     12  H   UNL     1      52.797   8.255  13.481  0.00  0.00    +0.000 HD
ATOM     13  H   UNL     1      51.636   7.221  14.234  0.00  0.00    +0.000 HD
ENDBRANCH   1  10
BRANCH   5  14
ATOM     14  C   UNL     1      44.689   6.222  12.288  0.00  0.00    +0.000 C 
BRANCH  14  15
ATOM     15  C   UNL     1      44.447   4.832  11.739  0.00  0.00    +0.000 A 
ATOM     16  C   UNL     1      43.490   3.954  12.261  0.00  0.00    +0.000 A 
ATOM     17  C   UNL     1      43.288   2.702  11.686  0.00  0.00    +0.000 A 
ATOM     18  C   UNL     1      44.019   2.323  10.560  0.00  0.00    +0.000 A 
ATOM     19  C   UNL     1      44.965   3.184   9.979  0.00  0.00    +0.000 A 
ATOM     20  C   UNL     1      45.188   4.422  10.612  0.00  0.00    +0.000 A 
BRANCH  19  21
ATOM     21  C   UNL     1      45.655   2.834   8.720  0.00  0.00    +0.000 A 
ATOM     22  C   UNL     1      45.895   3.786   7.726  0.00  0.00    +0.000 A 
ATOM     23  C   UNL     1      46.578   3.420   6.570  0.00  0.00    +0.000 A 
ATOM     24  C   UNL     1      47.012   2.110   6.430  0.00  0.00    +0.000 A 
ATOM     25  C   UNL     1      46.745   1.223   7.459  0.00  0.00    +0.000 A 
ATOM     26  N   UNL     1      46.086   1.553   8.596  0.00  0.00    +0.000 NA
ENDBRANCH  19  21
ENDBRANCH  14  15
ENDBRANCH   5  14
TORSDOF 4
ENDMDL
MODEL 5
REMARK VINA RESULT:    -7.405      3.303      8.328
REMARK INTER + INTRA:          -9.744
REMARK INTER:                  -9.272
REMARK INTRA:                  -0.472
REMARK UNBOUND:                -0.607
REMARK  Name = 
REMARK  4 active torsions:
REMARK  status: ('A' for Active; 'I' for Inactive)
REMARK    1  A    between atoms: C_2  and  C_4
REMARK    2  A    between atoms: N_8  and  C_9
REMARK    3  A    between atoms: C_9  and  C_10
REMARK    4  A    between atoms: C_14  and  C_15
REMARK                            x       y       z     vdW  Elec       q    Type
REMARK                         _______ _______ _______ _____ _____    ______ ____
ROOT
ATOM      1  C   UNL     1      48.643   4.355  18.007  0.00  0.00    +0.000 A 
ATOM      2  C   UNL     1      48.649   5.499  17.217  0.00  0.00    +0.000 A 
ATOM      3  C   UNL     1      47.899   5.514  16.040  0.00  0.00    +0.000 A 
ATOM      4  C   UNL     1      47.166   4.393  15.670  0.00  0.00    +0.000 A 
ATOM      5  N   UNL     1      46.371   4.335  14.563  0.00  0.00    +0.000 N 
ATOM      6  N   UNL     1      47.185   3.268  16.413  0.00  0.00    +0.000 NA
ATOM      7  C   UNL     1      47.920   3.264  17.555  0.00  0.00    +0.000 A 
ATOM      8  H   UNL     1      45.979   3.417  14.394  0.00  0.00    +0.000 HD
ENDROOT
BRANCH   1  10
ATOM      9  N   UNL     1      48.660   3.879  20.386  0.00  0.00    +0.000 N 
ATOM     10  C   UNL     1      49.378   4.257  19.283  0.00  0.00    +0.000 C 
ATOM     11  O   UNL     1      50.581   4.462  19.350  0.00  0.00    +0.000 OA
ATOM     12  H   UNL     1      49.192   3.710  21.230  0.00  0.00    +0.000 HD
ATOM     13  H   UNL     1      47.742   3.464  20.322  0.00  0.00    +0.000 HD
ENDBRANCH   1  10
BRANCH   5  14
ATOM     14  C   UNL     1      46.190   5.363  13.568  0.00  0.00    +0.000 C 
BRANCH  14  15
ATOM     15  C   UNL     1      45.228   4.993  12.460  0.00  0.00    +0.000 A 
ATOM     16  C   UNL     1      43.883   5.380  12.447  0.00  0.00    +0.000 A 
ATOM     17  C   UNL     1      43.058   5.041  11.377  0.00  0.00    +0.000 A 
ATOM     18  C   UNL     1      43.574   4.336  10.290  0.00  0.00    +0.000 A 
ATOM     19  C   UNL     1      44.927   3.956  10.242  0.00  0.00    +0.000 A 
ATOM     20  C   UNL     1      45.726   4.265  11.359  0.00  0.00    +0.000 A 
BRANCH  19  21
ATOM     21  C   UNL     1      45.505   3.315   9.043  0.00  0.00    +0.000 A 
ATOM     22  C   UNL     1      45.922   4.063   7.940  0.00  0.00    +0.000 A 
ATOM     23  C   UNL     1      46.491   3.420   6.844  0.00  0.00    +0.000 A 
ATOM     24  C   UNL     1      46.637   2.041   6.874  0.00  0.00    +0.000 A 
ATOM     25  C   UNL     1      46.208   1.366   8.004  0.00  0.00    +0.000 A 
ATOM     26  N   UNL     1      45.654   1.966   9.084  0.00  0.00    +0.000 NA
ENDBRANCH  19  21
ENDBRANCH  14  15
ENDBRANCH   5  14
TORSDOF 4
ENDMDL
MODEL 6
REMARK VINA RESULT:    -6.492      3.899      8.461
REMARK INTER + INTRA:          -8.617
REMARK INTER:                  -7.911
REMARK INTRA:                  -0.706
REMARK UNBOUND:                -0.607
REMARK  Name = 
REMARK  4 active torsions:
REMARK  status: ('A' for Active; 'I' for Inactive)
REMARK    1  A    between atoms: C_2  and  C_4
REMARK    2  A    between atoms: N_8  and  C_9
REMARK    3  A    between atoms: C_9  and  C_10
REMARK    4  A    between atoms: C_14  and  C_15
REMARK                            x       y       z     vdW  Elec       q    Type
REMARK                         _______ _______ _______ _____ _____    ______ ____
ROOT
ATOM      1  C   UNL     1      48.431   5.387  18.143  0.00  0.00    +0.000 A 
ATOM      2  C   UNL     1      48.293   4.748  16.916  0.00  0.00    +0.000 A 
ATOM      3  C   UNL     1      48.411   5.496  15.744  0.00  0.00    +0.000 A 
ATOM      4  C   UNL     1      48.659   6.862  15.815  0.00  0.00    +0.000 A 
ATOM      5  N   UNL     1      48.834   7.661  14.724  0.00  0.00    +0.000 N 
ATOM      6  N   UNL     1      48.758   7.495  17.002  0.00  0.00    +0.000 NA
ATOM      7  C   UNL     1      48.638   6.757  18.135  0.00  0.00    +0.000 A 
ATOM      8  H   UNL     1      48.916   8.644  14.951  0.00  0.00    +0.000 HD
ENDROOT
BRANCH   1  10
ATOM      9  N   UNL     1      48.397   3.307  19.390  0.00  0.00    +0.000 N 
ATOM     10  C   UNL     1      48.354   4.675  19.433  0.00  0.00    +0.000 C 
ATOM     11  O   UNL     1      48.298   5.274  20.497  0.00  0.00    +0.000 OA
ATOM     12  H   UNL     1      48.454   2.832  20.282  0.00  0.00    +0.000 HD
ATOM     13  H   UNL     1      48.694   2.797  18.571  0.00  0.00    +0.000 HD
ENDBRANCH   1  10
BRANCH   5  14
ATOM     14  C   UNL     1      48.742   7.272  13.338  0.00  0.00    +0.000 C 
BRANCH  14  15
ATOM     15  C   UNL     1      47.337   7.304  12.776  0.00  0.00    +0.000 A 
ATOM     16  C   UNL     1      46.484   8.408  12.897  0.00  0.00    +0.000 A 
ATOM     17  C   UNL     1      45.215   8.390  12.322  0.00  0.00    +0.000 A 
ATOM     18  C   UNL     1      44.793   7.279  11.592  0.00  0.00    +0.000 A 
ATOM     19  C   UNL     1      45.627   6.162  11.413  0.00  0.00    +0.000 A 
ATOM     20  C   UNL     1      46.883   6.184  12.048  0.00  0.00    +0.000 A 
BRANCH  19  21
ATOM     21  C   UNL     1      45.230   5.036  10.543  0.00  0.00    +0.000 A 
ATOM     22  C   UNL     1      45.568   5.001   9.188  0.00  0.00    +0.000 A 
ATOM     23  C   UNL     1      45.202   3.904   8.413  0.00  0.00    +0.000 A 
ATOM     24  C   UNL     1      44.509   2.860   9.008  0.00  0.00    +0.000 A 
ATOM     25  C   UNL     1      44.215   2.960  10.357  0.00  0.00    +0.000 A 
ATOM     26  N   UNL     1      44.561   4.013  11.135  0.00  0.00    +0.000 NA
ENDBRANCH  19  21
ENDBRANCH  14  15
ENDBRANCH   5  14
TORSDOF 4
ENDMDL
MODEL 7
REMARK VINA RESULT:    -6.380      4.572      6.308
REMARK INTER + INTRA:          -8.479
REMARK INTER:                  -7.746
REMARK INTRA:                  -0.733
REMARK UNBOUND:                -0.607
REMARK  Name = 
REMARK  4 active torsions:
REMARK  status: ('A' for Active; 'I' for Inactive)
REMARK    1  A    between atoms: C_2  and  C_4
REMARK    2  A    between atoms: N_8  and  C_9
REMARK    3  A    between atoms: C_9  and  C_10
REMARK    4  A    between atoms: C_14  and  C_15
REMARK                            x       y       z     vdW  Elec       q    Type
REMARK                         _______ _______ _______ _____ _____    ______ ____
ROOT
ATOM      1  C   UNL     1      44.279   4.186  11.472  0.00  0.00    +0.000 A 
ATOM      2  C   UNL     1      45.126   5.003  10.732  0.00  0.00    +0.000 A 
ATOM      3  C   UNL     1      45.480   6.253  11.241  0.00  0.00    +0.000 A 
ATOM      4  C   UNL     1      44.982   6.667  12.471  0.00  0.00    +0.000 A 
ATOM      5  N   UNL     1      45.310   7.850  13.066  0.00  0.00    +0.000 N 
ATOM      6  N   UNL     1      44.131   5.895  13.178  0.00  0.00    +0.000 NA
ATOM      7  C   UNL     1      43.792   4.682  12.670  0.00  0.00    +0.000 A 
ATOM      8  H   UNL     1      44.791   8.034  13.915  0.00  0.00    +0.000 HD
ENDROOT
BRANCH   1  10
ATOM      9  N   UNL     1      44.591   2.281  10.004  0.00  0.00    +0.000 N 
ATOM     10  C   UNL     1      43.876   2.838  11.030  0.00  0.00    +0.000 C 
ATOM     11  O   UNL     1      42.973   2.223  11.579  0.00  0.00    +0.000 OA
ATOM     12  H   UNL     1      44.379   1.316   9.781  0.00  0.00    +0.000 HD
ATOM     13  H   UNL     1      45.484   2.642   9.704  0.00  0.00    +0.000 HD
ENDBRANCH   1  10
BRANCH   5  14
ATOM     14  C   UNL     1      46.157   8.887  12.529  0.00  0.00    +0.000 C 
BRANCH  14  15
ATOM     15  C   UNL     1      47.600   8.804  12.976  0.00  0.00    +0.000 A 
ATOM     16  C   UNL     1      47.984   8.627  14.311  0.00  0.00    +0.000 A 
ATOM     17  C   UNL     1      49.330   8.518  14.653  0.00  0.00    +0.000 A 
ATOM     18  C   UNL     1      50.310   8.552  13.660  0.00  0.00    +0.000 A 
ATOM     19  C   UNL     1      49.970   8.692  12.304  0.00  0.00    +0.000 A 
ATOM     20  C   UNL     1      48.608   8.854  11.990  0.00  0.00    +0.000 A 
BRANCH  19  21
ATOM     21  C   UNL     1      50.994   8.610  11.241  0.00  0.00    +0.000 A 
ATOM     22  C   UNL     1      51.366   7.389  10.674  0.00  0.00    +0.000 A 
ATOM     23  C   UNL     1      52.311   7.362   9.652  0.00  0.00    +0.000 A 
ATOM     24  C   UNL     1      52.864   8.556   9.214  0.00  0.00    +0.000 A 
ATOM     25  C   UNL     1      52.442   9.728   9.818  0.00  0.00    +0.000 A 
ATOM     26  N   UNL     1      51.523   9.784  10.810  0.00  0.00    +0.000 NA
ENDBRANCH  19  21
ENDBRANCH  14  15
ENDBRANCH   5  14
TORSDOF 4
ENDMDL
MODEL 8
REMARK VINA RESULT:    -6.143      3.338      6.382
REMARK INTER + INTRA:          -8.187
REMARK INTER:                  -7.673
REMARK INTRA:                  -0.514
REMARK UNBOUND:                -0.607
REMARK  Name = 
REMARK  4 active torsions:
REMARK  status: ('A' for Active; 'I' for Inactive)
REMARK    1  A    between atoms: C_2  and  C_4
REMARK    2  A    between atoms: N_8  and  C_9
REMARK    3  A    between atoms: C_9  and  C_10
REMARK    4  A    between atoms: C_14  and  C_15
REMARK                            x       y       z     vdW  Elec       q    Type
REMARK                         _______ _______ _______ _____ _____    ______ ____
ROOT
ATOM      1  C   UNL     1      45.450   5.050  11.567  0.00  0.00    +0.000 A 
ATOM      2  C   UNL     1      46.231   6.167  11.845  0.00  0.00    +0.000 A 
ATOM      3  C   UNL     1      46.907   6.236  13.064  0.00  0.00    +0.000 A 
ATOM      4  C   UNL     1      46.790   5.199  13.982  0.00  0.00    +0.000 A 
ATOM      5  N   UNL     1      47.449   5.160  15.175  0.00  0.00    +0.000 N 
ATOM      6  N   UNL     1      46.006   4.130  13.734  0.00  0.00    +0.000 NA
ATOM      7  C   UNL     1      45.351   4.075  12.545  0.00  0.00    +0.000 A 
ATOM      8  H   UNL     1      47.183   4.379  15.760  0.00  0.00    +0.000 HD
ENDROOT
BRANCH   1  10
ATOM      9  N   UNL     1      43.417   5.275  10.264  0.00  0.00    +0.000 N 
ATOM     10  C   UNL     1      44.725   4.875  10.294  0.00  0.00    +0.000 C 
ATOM     11  O   UNL     1      45.275   4.432   9.296  0.00  0.00    +0.000 OA
ATOM     12  H   UNL     1      42.961   5.253   9.360  0.00  0.00    +0.000 HD
ATOM     13  H   UNL     1      43.012   5.868  10.975  0.00  0.00    +0.000 HD
ENDBRANCH   1  10
BRANCH   5  14
ATOM     14  C   UNL     1      48.316   6.175  15.722  0.00  0.00    +0.000 C 
BRANCH  14  15
ATOM     15  C   UNL     1      48.973   5.792  17.031  0.00  0.00    +0.000 A 
ATOM     16  C   UNL     1      48.590   6.320  18.269  0.00  0.00    +0.000 A 
ATOM     17  C   UNL     1      49.208   5.896  19.443  0.00  0.00    +0.000 A 
ATOM     18  C   UNL     1      50.197   4.915  19.398  0.00  0.00    +0.000 A 
ATOM     19  C   UNL     1      50.591   4.330  18.182  0.00  0.00    +0.000 A 
ATOM     20  C   UNL     1      49.989   4.813  17.006  0.00  0.00    +0.000 A 
BRANCH  19  21
ATOM     21  C   UNL     1      51.552   3.208  18.143  0.00  0.00    +0.000 A 
ATOM     22  C   UNL     1      51.270   2.024  17.458  0.00  0.00    +0.000 A 
ATOM     23  C   UNL     1      52.219   1.005  17.419  0.00  0.00    +0.000 A 
ATOM     24  C   UNL     1      53.433   1.192  18.062  0.00  0.00    +0.000 A 
ATOM     25  C   UNL     1      53.646   2.394  18.715  0.00  0.00    +0.000 A 
ATOM     26  N   UNL     1      52.743   3.402  18.765  0.00  0.00    +0.000 NA
ENDBRANCH  19  21
ENDBRANCH  14  15
ENDBRANCH   5  14
TORSDOF 4
ENDMDL
MODEL 9
REMARK VINA RESULT:    -6.073      4.040      8.610
REMARK INTER + INTRA:          -8.100
REMARK INTER:                  -7.405
REMARK INTRA:                  -0.695
REMARK UNBOUND:                -0.607
REMARK  Name = 
REMARK  4 active torsions:
REMARK  status: ('A' for Active; 'I' for Inactive)
REMARK    1  A    between atoms: C_2  and  C_4
REMARK    2  A    between atoms: N_8  and  C_9
REMARK    3  A    between atoms: C_9  and  C_10
REMARK    4  A    between atoms: C_14  and  C_15
REMARK                            x       y       z     vdW  Elec       q    Type
REMARK                         _______ _______ _______ _____ _____    ______ ____
ROOT
ATOM      1  C   UNL     1      49.190   7.476  17.569  0.00  0.00    +0.000 A 
ATOM      2  C   UNL     1      48.630   8.484  16.793  0.00  0.00    +0.000 A 
ATOM      3  C   UNL     1      48.698   8.388  15.402  0.00  0.00    +0.000 A 
ATOM      4  C   UNL     1      49.325   7.297  14.813  0.00  0.00    +0.000 A 
ATOM      5  N   UNL     1      49.398   7.097  13.465  0.00  0.00    +0.000 N 
ATOM      6  N   UNL     1      49.902   6.333  15.559  0.00  0.00    +0.000 NA
ATOM      7  C   UNL     1      49.831   6.440  16.912  0.00  0.00    +0.000 A 
ATOM      8  H   UNL     1      49.965   6.301  13.204  0.00  0.00    +0.000 HD
ENDROOT
BRANCH   1  10
ATOM      9  N   UNL     1      47.899   7.508  19.622  0.00  0.00    +0.000 N 
ATOM     10  C   UNL     1      49.139   7.476  19.044  0.00  0.00    +0.000 C 
ATOM     11  O   UNL     1      50.153   7.407  19.723  0.00  0.00    +0.000 OA
ATOM     12  H   UNL     1      47.870   7.397  20.628  0.00  0.00    +0.000 HD
ATOM     13  H   UNL     1      47.052   7.311  19.108  0.00  0.00    +0.000 HD
ENDBRANCH   1  10
BRANCH   5  14
ATOM     14  C   UNL     1      48.911   7.975  12.429  0.00  0.00    +0.000 C 
BRANCH  14  15
ATOM     15  C   UNL     1      47.439   7.810  12.117  0.00  0.00    +0.000 A 
ATOM     16  C   UNL     1      46.490   8.817  12.329  0.00  0.00    +0.000 A 
ATOM     17  C   UNL     1      45.156   8.617  11.983  0.00  0.00    +0.000 A 
ATOM     18  C   UNL     1      44.758   7.418  11.391  0.00  0.00    +0.000 A 
ATOM     19  C   UNL     1      45.681   6.392  11.127  0.00  0.00    +0.000 A 
ATOM     20  C   UNL     1      47.013   6.599  11.534  0.00  0.00    +0.000 A 
BRANCH  19  21
ATOM     21  C   UNL     1      45.287   5.171  10.394  0.00  0.00    +0.000 A 
ATOM     22  C   UNL     1      44.569   4.144  11.012  0.00  0.00    +0.000 A 
ATOM     23  C   UNL     1      44.189   3.026  10.274  0.00  0.00    +0.000 A 
ATOM     24  C   UNL     1      44.532   2.957   8.932  0.00  0.00    +0.000 A 
ATOM     25  C   UNL     1      45.238   4.015   8.386  0.00  0.00    +0.000 A 
ATOM     26  N   UNL     1      45.616   5.115   9.078  0.00  0.00    +0.000 NA
ENDBRANCH  19  21
ENDBRANCH  14  15
ENDBRANCH   5  14
TORSDOF 4
ENDMDL
