MODEL 1
REMARK VINA RESULT:    -7.067      0.000      0.000
REMARK INTER + INTRA:         -11.069
REMARK INTER:                 -10.372
REMARK INTRA:                  -0.698
REMARK UNBOUND:                -0.698
REMARK  Name = 
REMARK  12 active torsions:
REMARK  status: ('A' for Active; 'I' for Inactive)
REMARK    1  A    between atoms: C_1  and  C_2
REMARK    2  A    between atoms: C_2  and  C_3
REMARK    3  A    between atoms: C_3  and  N_4
REMARK    4  A    between atoms: C_5  and  C_7
REMARK    5  A    between atoms: C_10  and  N_11
REMARK    6  A    between atoms: N_11  and  C_12
REMARK    7  A    between atoms: C_12  and  C_13
REMARK    8  A    between atoms: C_13  and  C_14
REMARK    9  A    between atoms: C_13  and  C_15
REMARK   10  A    between atoms: C_13  and  C_16
REMARK   11  A    between atoms: C_20  and  O_21
REMARK   12  A    between atoms: O_21  and  C_22
REMARK                            x       y       z     vdW  Elec       q    Type
REMARK                         _______ _______ _______ _____ _____    ______ ____
ROOT
ATOM      1  N   UNL     1      45.975   3.908  13.175  0.00  0.00    +0.000 N 
ATOM      2  H   UNL     1      46.526   3.249  12.647  0.00  0.00    +0.000 HD
ENDROOT
BRANCH   1   6
ATOM      3  C   UNL     1      48.401   5.497  16.097  0.00  0.00    +0.000 A 
ATOM      4  C   UNL     1      47.629   4.372  16.355  0.00  0.00    +0.000 A 
ATOM      5  N   UNL     1      46.781   3.829  15.432  0.00  0.00    +0.000 NA
ATOM      6  C   UNL     1      46.737   4.437  14.229  0.00  0.00    +0.000 A 
ATOM      7  C   UNL     1      47.544   5.560  13.987  0.00  0.00    +0.000 A 
ATOM      8  N   UNL     1      48.373   6.137  14.899  0.00  0.00    +0.000 NA
BRANCH   3  10
ATOM      9  N   UNL     1      48.732   6.266  18.376  0.00  0.00    +0.000 N 
ATOM     10  C   UNL     1      49.317   6.034  17.147  0.00  0.00    +0.000 C 
ATOM     11  O   UNL     1      50.497   6.241  16.901  0.00  0.00    +0.000 OA
ATOM     12  H   UNL     1      47.737   6.079  18.457  0.00  0.00    +0.000 HD
BRANCH   9  13
ATOM     13  C   UNL     1      49.465   6.821  19.494  0.00  0.00    +0.000 C 
BRANCH  13  15
ATOM     14  C   UNL     1      48.760   4.593  20.495  0.00  0.00    +0.000 C 
ATOM     15  C   UNL     1      49.612   5.842  20.660  0.00  0.00    +0.000 C 
ENDBRANCH  13  15
ENDBRANCH   9  13
ENDBRANCH   3  10
ENDBRANCH   1   6
BRANCH   1  16
ATOM     16  C   UNL     1      45.280   4.889  12.325  0.00  0.00    +0.000 C 
BRANCH  16  17
ATOM     17  C   UNL     1      44.156   4.220  11.446  0.00  0.00    +0.000 C 
ATOM     18  C   UNL     1      43.560   3.010  12.217  0.00  0.00    +0.000 C 
ATOM     19  C   UNL     1      42.997   5.211  11.193  0.00  0.00    +0.000 C 
BRANCH  17  20
ATOM     20  C   UNL     1      44.786   3.796  10.097  0.00  0.00    +0.000 A 
ATOM     21  C   UNL     1      45.249   4.773   9.197  0.00  0.00    +0.000 A 
ATOM     22  C   UNL     1      45.904   4.421   8.013  0.00  0.00    +0.000 A 
ATOM     23  C   UNL     1      46.124   3.082   7.704  0.00  0.00    +0.000 A 
ATOM     24  C   UNL     1      45.675   2.092   8.571  0.00  0.00    +0.000 A 
ATOM     25  C   UNL     1      44.983   2.449   9.738  0.00  0.00    +0.000 A 
BRANCH  24  26
ATOM     26  O   UNL     1      45.841   0.748   8.373  0.00  0.00    +0.000 OA
ATOM     27  C   UNL     1      46.936   0.398   7.531  0.00  0.00    +0.000 C 
ENDBRANCH  24  26
ENDBRANCH  17  20
ENDBRANCH  16  17
ENDBRANCH   1  16
TORSDOF 8
ENDMDL
MODEL 2
REMARK VINA RESULT:    -6.940      1.334      1.723
REMARK INTER + INTRA:         -10.884
REMARK INTER:                 -10.191
REMARK INTRA:                  -0.693
REMARK UNBOUND:                -0.698
REMARK  Name = 
REMARK  12 active torsions:
REMARK  status: ('A' for Active; 'I' for Inactive)
REMARK    1  A    between atoms: C_1  and  C_2
REMARK    2  A    between atoms: C_2  and  C_3
REMARK    3  A    between atoms: C_3  and  N_4
REMARK    4  A    between atoms: C_5  and  C_7
REMARK    5  A    between atoms: C_10  and  N_11
REMARK    6  A    between atoms: N_11  and  C_12
REMARK    7  A    between atoms: C_12  and  C_13
REMARK    8  A    between atoms: C_13  and  C_14
REMARK    9  A    between atoms: C_13  and  C_15
REMARK   10  A    between atoms: C_13  and  C_16
REMARK   11  A    between atoms: C_20  and  O_21
REMARK   12  A    between atoms: O_21  and  C_22
REMARK                            x       y       z     vdW  Elec       q    Type
REMARK                         _______ _______ _______ _____ _____    ______ ____
ROOT
ATOM      1  N   UNL     1      45.716   3.919  13.400  0.00  0.00    +0.000 N 
ATOM      2  H   UNL     1      46.093   3.069  13.009  0.00  0.00    +0.000 HD
ENDROOT
BRANCH   1   6
ATOM      3  C   UNL     1      48.481   5.476  16.024  0.00  0.00    +0.000 A 
ATOM      4  C   UNL     1      47.703   4.385  16.384  0.00  0.00    +0.000 A 
ATOM      5  N   UNL     1      46.746   3.854  15.564  0.00  0.00    +0.000 NA
ATOM      6  C   UNL     1      46.599   4.441  14.359  0.00  0.00    +0.000 A 
ATOM      7  C   UNL     1      47.414   5.529  14.011  0.00  0.00    +0.000 A 
ATOM      8  N   UNL     1      48.352   6.093  14.820  0.00  0.00    +0.000 NA
BRANCH   3  10
ATOM      9  N   UNL     1      50.483   5.089  17.340  0.00  0.00    +0.000 N 
ATOM     10  C   UNL     1      49.517   6.000  16.962  0.00  0.00    +0.000 C 
ATOM     11  O   UNL     1      49.485   7.160  17.345  0.00  0.00    +0.000 OA
ATOM     12  H   UNL     1      50.396   4.145  16.977  0.00  0.00    +0.000 HD
BRANCH   9  13
ATOM     13  C   UNL     1      51.540   5.418  18.274  0.00  0.00    +0.000 C 
BRANCH  13  15
ATOM     14  C   UNL     1      53.261   6.211  16.579  0.00  0.00    +0.000 C 
ATOM     15  C   UNL     1      52.939   5.221  17.688  0.00  0.00    +0.000 C 
ENDBRANCH  13  15
ENDBRANCH   9  13
ENDBRANCH   3  10
ENDBRANCH   1   6
BRANCH   1  16
ATOM     16  C   UNL     1      45.244   4.865  12.376  0.00  0.00    +0.000 C 
BRANCH  16  17
ATOM     17  C   UNL     1      44.128   4.236  11.458  0.00  0.00    +0.000 C 
ATOM     18  C   UNL     1      43.496   3.018  12.187  0.00  0.00    +0.000 C 
ATOM     19  C   UNL     1      42.991   5.251  11.204  0.00  0.00    +0.000 C 
BRANCH  17  20
ATOM     20  C   UNL     1      44.780   3.832  10.113  0.00  0.00    +0.000 A 
ATOM     21  C   UNL     1      45.278   4.822   9.246  0.00  0.00    +0.000 A 
ATOM     22  C   UNL     1      45.953   4.486   8.069  0.00  0.00    +0.000 A 
ATOM     23  C   UNL     1      46.156   3.151   7.732  0.00  0.00    +0.000 A 
ATOM     24  C   UNL     1      45.671   2.149   8.566  0.00  0.00    +0.000 A 
ATOM     25  C   UNL     1      44.961   2.491   9.725  0.00  0.00    +0.000 A 
BRANCH  24  26
ATOM     26  O   UNL     1      45.818   0.808   8.338  0.00  0.00    +0.000 OA
ATOM     27  C   UNL     1      46.947   0.456   7.545  0.00  0.00    +0.000 C 
ENDBRANCH  24  26
ENDBRANCH  17  20
ENDBRANCH  16  17
ENDBRANCH   1  16
TORSDOF 8
ENDMDL
MODEL 3
REMARK VINA RESULT:    -6.750      1.167      1.662
REMARK INTER + INTRA:         -10.605
REMARK INTER:                  -9.913
REMARK INTRA:                  -0.693
REMARK UNBOUND:                -0.698
REMARK  Name = 
REMARK  12 active torsions:
REMARK  status: ('A' for Active; 'I' for Inactive)
REMARK    1  A    between atoms: C_1  and  C_2
REMARK    2  A    between atoms: C_2  and  C_3
REMARK    3  A    between atoms: C_3  and  N_4
REMARK    4  A    between atoms: C_5  and  C_7
REMARK    5  A    between atoms: C_10  and  N_11
REMARK    6  A    between atoms: N_11  and  C_12
REMARK    7  A    between atoms: C_12  and  C_13
REMARK    8  A    between atoms: C_13  and  C_14
REMARK    9  A    between atoms: C_13  and  C_15
REMARK   10  A    between atoms: C_13  and  C_16
REMARK   11  A    between atoms: C_20  and  O_21
REMARK   12  A    between atoms: O_21  and  C_22
REMARK                            x       y       z     vdW  Elec       q    Type
REMARK                         _______ _______ _______ _____ _____    ______ ____
ROOT
ATOM      1  N   UNL     1      46.029   4.365  12.989  0.00  0.00    +0.000 N 
ATOM      2  H   UNL     1      46.501   4.646  12.142  0.00  0.00    +0.000 HD
ENDROOT
BRANCH   1   6
ATOM      3  C   UNL     1      48.461   5.487  16.115  0.00  0.00    +0.000 A 
ATOM      4  C   UNL     1      47.624   4.387  16.233  0.00  0.00    +0.000 A 
ATOM      5  N   UNL     1      46.771   3.995  15.239  0.00  0.00    +0.000 NA
ATOM      6  C   UNL     1      46.791   4.732  14.110  0.00  0.00    +0.000 A 
ATOM      7  C   UNL     1      47.663   5.827  14.008  0.00  0.00    +0.000 A 
ATOM      8  N   UNL     1      48.499   6.254  14.994  0.00  0.00    +0.000 NA
BRANCH   3  10
ATOM      9  N   UNL     1      48.753   6.222  18.410  0.00  0.00    +0.000 N 
ATOM     10  C   UNL     1      49.378   5.855  17.235  0.00  0.00    +0.000 C 
ATOM     11  O   UNL     1      50.591   5.820  17.087  0.00  0.00    +0.000 OA
ATOM     12  H   UNL     1      47.738   6.236  18.409  0.00  0.00    +0.000 HD
BRANCH   9  13
ATOM     13  C   UNL     1      49.489   6.644  19.583  0.00  0.00    +0.000 C 
BRANCH  13  15
ATOM     14  C   UNL     1      48.662   4.504  20.679  0.00  0.00    +0.000 C 
ATOM     15  C   UNL     1      49.810   5.492  20.536  0.00  0.00    +0.000 C 
ENDBRANCH  13  15
ENDBRANCH   9  13
ENDBRANCH   3  10
ENDBRANCH   1   6
BRANCH   1  16
ATOM     16  C   UNL     1      44.610   4.757  13.016  0.00  0.00    +0.000 C 
BRANCH  16  17
ATOM     17  C   UNL     1      44.137   5.362  11.640  0.00  0.00    +0.000 C 
ATOM     18  C   UNL     1      42.603   5.601  11.690  0.00  0.00    +0.000 C 
ATOM     19  C   UNL     1      44.801   6.734  11.387  0.00  0.00    +0.000 C 
BRANCH  17  20
ATOM     20  C   UNL     1      44.533   4.374  10.516  0.00  0.00    +0.000 A 
ATOM     21  C   UNL     1      44.062   3.048  10.543  0.00  0.00    +0.000 A 
ATOM     22  C   UNL     1      44.327   2.159   9.498  0.00  0.00    +0.000 A 
ATOM     23  C   UNL     1      45.063   2.575   8.392  0.00  0.00    +0.000 A 
ATOM     24  C   UNL     1      45.547   3.877   8.337  0.00  0.00    +0.000 A 
ATOM     25  C   UNL     1      45.312   4.754   9.406  0.00  0.00    +0.000 A 
BRANCH  24  26
ATOM     26  O   UNL     1      46.274   4.395   7.300  0.00  0.00    +0.000 OA
ATOM     27  C   UNL     1      46.884   3.425   6.454  0.00  0.00    +0.000 C 
ENDBRANCH  24  26
ENDBRANCH  17  20
ENDBRANCH  16  17
ENDBRANCH   1  16
TORSDOF 8
ENDMDL
MODEL 4
REMARK VINA RESULT:    -6.457      1.646      2.334
REMARK INTER + INTRA:         -10.174
REMARK INTER:                  -9.474
REMARK INTRA:                  -0.700
REMARK UNBOUND:                -0.698
REMARK  Name = 
REMARK  12 active torsions:
REMARK  status: ('A' for Active; 'I' for Inactive)
REMARK    1  A    between atoms: C_1  and  C_2
REMARK    2  A    between atoms: C_2  and  C_3
REMARK    3  A    between atoms: C_3  and  N_4
REMARK    4  A    between atoms: C_5  and  C_7
REMARK    5  A    between atoms: C_10  and  N_11
REMARK    6  A    between atoms: N_11  and  C_12
REMARK    7  A    between atoms: C_12  and  C_13
REMARK    8  A    between atoms: C_13  and  C_14
REMARK    9  A    between atoms: C_13  and  C_15
REMARK   10  A    between atoms: C_13  and  C_16
REMARK   11  A    between atoms: C_20  and  O_21
REMARK   12  A    between atoms: O_21  and  C_22
REMARK                            x       y       z     vdW  Elec       q    Type
REMARK                         _______ _______ _______ _____ _____    ______ ____
ROOT
ATOM      1  N   UNL     1      46.007   4.382  13.023  0.00  0.00    +0.000 N 
ATOM      2  H   UNL     1      46.509   4.651  12.191  0.00  0.00    +0.000 HD
ENDROOT
BRANCH   1   6
ATOM      3  C   UNL     1      48.382   5.431  16.218  0.00  0.00    +0.000 A 
ATOM      4  C   UNL     1      47.501   4.363  16.315  0.00  0.00    +0.000 A 
ATOM      5  N   UNL     1      46.666   3.997  15.297  0.00  0.00    +0.000 NA
ATOM      6  C   UNL     1      46.747   4.727  14.166  0.00  0.00    +0.000 A 
ATOM      7  C   UNL     1      47.662   5.788  14.086  0.00  0.00    +0.000 A 
ATOM      8  N   UNL     1      48.483   6.189  15.095  0.00  0.00    +0.000 NA
BRANCH   3  10
ATOM      9  N   UNL     1      49.952   6.970  17.247  0.00  0.00    +0.000 N 
ATOM     10  C   UNL     1      49.278   5.771  17.364  0.00  0.00    +0.000 C 
ATOM     11  O   UNL     1      49.380   5.019  18.322  0.00  0.00    +0.000 OA
ATOM     12  H   UNL     1      49.807   7.501  16.395  0.00  0.00    +0.000 HD
BRANCH   9  13
ATOM     13  C   UNL     1      50.890   7.435  18.248  0.00  0.00    +0.000 C 
BRANCH  13  15
ATOM     14  C   UNL     1      52.844   6.614  16.846  0.00  0.00    +0.000 C 
ATOM     15  C   UNL     1      52.271   7.754  17.674  0.00  0.00    +0.000 C 
ENDBRANCH  13  15
ENDBRANCH   9  13
ENDBRANCH   3  10
ENDBRANCH   1   6
BRANCH   1  16
ATOM     16  C   UNL     1      44.599   4.812  13.012  0.00  0.00    +0.000 C 
BRANCH  16  17
ATOM     17  C   UNL     1      44.184   5.444  11.630  0.00  0.00    +0.000 C 
ATOM     18  C   UNL     1      42.662   5.752  11.648  0.00  0.00    +0.000 C 
ATOM     19  C   UNL     1      44.915   6.786  11.399  0.00  0.00    +0.000 C 
BRANCH  17  20
ATOM     20  C   UNL     1      44.560   4.444  10.509  0.00  0.00    +0.000 A 
ATOM     21  C   UNL     1      44.040   3.136  10.527  0.00  0.00    +0.000 A 
ATOM     22  C   UNL     1      44.288   2.240   9.483  0.00  0.00    +0.000 A 
ATOM     23  C   UNL     1      45.054   2.631   8.389  0.00  0.00    +0.000 A 
ATOM     24  C   UNL     1      45.586   3.915   8.344  0.00  0.00    +0.000 A 
ATOM     25  C   UNL     1      45.368   4.797   9.411  0.00  0.00    +0.000 A 
BRANCH  24  26
ATOM     26  O   UNL     1      46.345   4.408   7.317  0.00  0.00    +0.000 OA
ATOM     27  C   UNL     1      46.737   3.443   6.345  0.00  0.00    +0.000 C 
ENDBRANCH  24  26
ENDBRANCH  17  20
ENDBRANCH  16  17
ENDBRANCH   1  16
TORSDOF 8
ENDMDL
MODEL 5
REMARK VINA RESULT:    -6.437      2.569      9.177
REMARK INTER + INTRA:         -10.145
REMARK INTER:                  -9.514
REMARK INTRA:                  -0.631
REMARK UNBOUND:                -0.698
REMARK  Name = 
REMARK  12 active torsions:
REMARK  status: ('A' for Active; 'I' for Inactive)
REMARK    1  A    between atoms: C_1  and  C_2
REMARK    2  A    between atoms: C_2  and  C_3
REMARK    3  A    between atoms: C_3  and  N_4
REMARK    4  A    between atoms: C_5  and  C_7
REMARK    5  A    between atoms: C_10  and  N_11
REMARK    6  A    between atoms: N_11  and  C_12
REMARK    7  A    between atoms: C_12  and  C_13
REMARK    8  A    between atoms: C_13  and  C_14
REMARK    9  A    between atoms: C_13  and  C_15
REMARK   10  A    between atoms: C_13  and  C_16
REMARK   11  A    between atoms: C_20  and  O_21
REMARK   12  A    between atoms: O_21  and  C_22
REMARK                            x       y       z     vdW  Elec       q    Type
REMARK                         _______ _______ _______ _____ _____    ______ ____
ROOT
ATOM      1  N   UNL     1      47.469   5.403  15.253  0.00  0.00    +0.000 N 
ATOM      2  H   UNL     1      48.340   5.855  15.017  0.00  0.00    +0.000 HD
ENDROOT
BRANCH   1   6
ATOM      3  C   UNL     1      45.433   4.241  11.868  0.00  0.00    +0.000 A 
ATOM      4  C   UNL     1      45.910   3.294  12.765  0.00  0.00    +0.000 A 
ATOM      5  N   UNL     1      46.622   3.626  13.883  0.00  0.00    +0.000 NA
ATOM      6  C   UNL     1      46.834   4.942  14.088  0.00  0.00    +0.000 A 
ATOM      7  C   UNL     1      46.323   5.880  13.177  0.00  0.00    +0.000 A 
ATOM      8  N   UNL     1      45.637   5.573  12.043  0.00  0.00    +0.000 NA
BRANCH   3  10
ATOM      9  N   UNL     1      45.293   3.976   9.459  0.00  0.00    +0.000 N 
ATOM     10  C   UNL     1      44.651   3.812  10.671  0.00  0.00    +0.000 C 
ATOM     11  O   UNL     1      43.525   3.351  10.791  0.00  0.00    +0.000 OA
ATOM     12  H   UNL     1      46.219   4.391   9.479  0.00  0.00    +0.000 HD
BRANCH   9  13
ATOM     13  C   UNL     1      44.666   3.647   8.196  0.00  0.00    +0.000 C 
BRANCH  13  15
ATOM     14  C   UNL     1      46.603   2.152   7.508  0.00  0.00    +0.000 C 
ATOM     15  C   UNL     1      45.673   3.285   7.103  0.00  0.00    +0.000 C 
ENDBRANCH  13  15
ENDBRANCH   9  13
ENDBRANCH   3  10
ENDBRANCH   1   6
BRANCH   1  16
ATOM     16  C   UNL     1      47.603   4.425  16.345  0.00  0.00    +0.000 C 
BRANCH  16  17
ATOM     17  C   UNL     1      48.589   4.924  17.468  0.00  0.00    +0.000 C 
ATOM     18  C   UNL     1      49.092   6.348  17.108  0.00  0.00    +0.000 C 
ATOM     19  C   UNL     1      47.862   5.030  18.827  0.00  0.00    +0.000 C 
BRANCH  17  20
ATOM     20  C   UNL     1      49.752   3.908  17.576  0.00  0.00    +0.000 A 
ATOM     21  C   UNL     1      49.568   2.578  17.155  0.00  0.00    +0.000 A 
ATOM     22  C   UNL     1      50.624   1.661  17.154  0.00  0.00    +0.000 A 
ATOM     23  C   UNL     1      51.895   2.054  17.564  0.00  0.00    +0.000 A 
ATOM     24  C   UNL     1      52.108   3.360  17.990  0.00  0.00    +0.000 A 
ATOM     25  C   UNL     1      51.038   4.265  18.027  0.00  0.00    +0.000 A 
BRANCH  24  26
ATOM     26  O   UNL     1      53.313   3.856  18.408  0.00  0.00    +0.000 OA
ATOM     27  C   UNL     1      53.489   5.255  18.199  0.00  0.00    +0.000 C 
ENDBRANCH  24  26
ENDBRANCH  17  20
ENDBRANCH  16  17
ENDBRANCH   1  16
TORSDOF 8
ENDMDL
MODEL 6
REMARK VINA RESULT:    -6.215      2.374      2.928
REMARK INTER + INTRA:          -9.820
REMARK INTER:                  -9.256
REMARK INTRA:                  -0.563
REMARK UNBOUND:                -0.698
REMARK  Name = 
REMARK  12 active torsions:
REMARK  status: ('A' for Active; 'I' for Inactive)
REMARK    1  A    between atoms: C_1  and  C_2
REMARK    2  A    between atoms: C_2  and  C_3
REMARK    3  A    between atoms: C_3  and  N_4
REMARK    4  A    between atoms: C_5  and  C_7
REMARK    5  A    between atoms: C_10  and  N_11
REMARK    6  A    between atoms: N_11  and  C_12
REMARK    7  A    between atoms: C_12  and  C_13
REMARK    8  A    between atoms: C_13  and  C_14
REMARK    9  A    between atoms: C_13  and  C_15
REMARK   10  A    between atoms: C_13  and  C_16
REMARK   11  A    between atoms: C_20  and  O_21
REMARK   12  A    between atoms: O_21  and  C_22
REMARK                            x       y       z     vdW  Elec       q    Type
REMARK                         _______ _______ _______ _____ _____    ______ ____
ROOT
ATOM      1  N   UNL     1      46.631   6.001  13.901  0.00  0.00    +0.000 N 
ATOM      2  H   UNL     1      45.870   6.495  14.344  0.00  0.00    +0.000 HD
ENDROOT
BRANCH   1   6
ATOM      3  C   UNL     1      49.226   4.807  16.866  0.00  0.00    +0.000 A 
ATOM      4  C   UNL     1      49.419   6.011  16.202  0.00  0.00    +0.000 A 
ATOM      5  N   UNL     1      48.608   6.435  15.186  0.00  0.00    +0.000 NA
ATOM      6  C   UNL     1      47.583   5.621  14.861  0.00  0.00    +0.000 A 
ATOM      7  C   UNL     1      47.397   4.420  15.563  0.00  0.00    +0.000 A 
ATOM      8  N   UNL     1      48.207   3.963  16.557  0.00  0.00    +0.000 NA
BRANCH   3  10
ATOM      9  N   UNL     1      51.418   4.052  17.585  0.00  0.00    +0.000 N 
ATOM     10  C   UNL     1      50.143   4.408  17.975  0.00  0.00    +0.000 C 
ATOM     11  O   UNL     1      49.758   4.411  19.135  0.00  0.00    +0.000 OA
ATOM     12  H   UNL     1      51.618   4.065  16.590  0.00  0.00    +0.000 HD
BRANCH   9  13
ATOM     13  C   UNL     1      52.423   3.602  18.526  0.00  0.00    +0.000 C 
BRANCH  13  15
ATOM     14  C   UNL     1      51.866   1.378  17.429  0.00  0.00    +0.000 C 
ATOM     15  C   UNL     1      52.839   2.147  18.308  0.00  0.00    +0.000 C 
ENDBRANCH  13  15
ENDBRANCH   9  13
ENDBRANCH   3  10
ENDBRANCH   1   6
BRANCH   1  16
ATOM     16  C   UNL     1      46.175   4.939  12.989  0.00  0.00    +0.000 C 
BRANCH  16  17
ATOM     17  C   UNL     1      45.068   5.450  11.992  0.00  0.00    +0.000 C 
ATOM     18  C   UNL     1      43.702   5.498  12.729  0.00  0.00    +0.000 C 
ATOM     19  C   UNL     1      45.378   6.888  11.518  0.00  0.00    +0.000 C 
BRANCH  17  20
ATOM     20  C   UNL     1      45.036   4.494  10.774  0.00  0.00    +0.000 A 
ATOM     21  C   UNL     1      44.313   3.289  10.843  0.00  0.00    +0.000 A 
ATOM     22  C   UNL     1      44.190   2.449   9.732  0.00  0.00    +0.000 A 
ATOM     23  C   UNL     1      44.780   2.797   8.520  0.00  0.00    +0.000 A 
ATOM     24  C   UNL     1      45.505   3.980   8.421  0.00  0.00    +0.000 A 
ATOM     25  C   UNL     1      45.659   4.799   9.548  0.00  0.00    +0.000 A 
BRANCH  24  26
ATOM     26  O   UNL     1      46.120   4.424   7.282  0.00  0.00    +0.000 OA
ATOM     27  C   UNL     1      46.708   3.403   6.482  0.00  0.00    +0.000 C 
ENDBRANCH  24  26
ENDBRANCH  17  20
ENDBRANCH  16  17
ENDBRANCH   1  16
TORSDOF 8
ENDMDL
MODEL 7
REMARK VINA RESULT:    -6.178      3.369      4.850
REMARK INTER + INTRA:          -9.765
REMARK INTER:                  -8.969
REMARK INTRA:                  -0.797
REMARK UNBOUND:                -0.698
REMARK  Name = 
REMARK  12 active torsions:
REMARK  status: ('A' for Active; 'I' for Inactive)
REMARK    1  A    between atoms: C_1  and  C_2
REMARK    2  A    between atoms: C_2  and  C_3
REMARK    3  A    between atoms: C_3  and  N_4
REMARK    4  A    between atoms: C_5  and  C_7
REMARK    5  A    between atoms: C_10  and  N_11
REMARK    6  A    between atoms: N_11  and  C_12
REMARK    7  A    between atoms: C_12  and  C_13
REMARK    8  A    between atoms: C_13  and  C_14
REMARK    9  A    between atoms: C_13  and  C_15
REMARK   10  A    between atoms: C_13  and  C_16
REMARK   11  A    between atoms: C_20  and  O_21
REMARK   12  A    between atoms: O_21  and  C_22
REMARK                            x       y       z     vdW  Elec       q    Type
REMARK                         _______ _______ _______ _____ _____    ______ ____
ROOT
ATOM      1  N   UNL     1      45.729   5.754  13.071  0.00  0.00    +0.000 N 
ATOM      2  H   UNL     1      45.851   4.863  13.528  0.00  0.00    +0.000 HD
ENDROOT
BRANCH   1   6
ATOM      3  C   UNL     1      49.376   7.589  12.536  0.00  0.00    +0.000 A 
ATOM      4  C   UNL     1      49.049   7.010  13.754  0.00  0.00    +0.000 A 
ATOM      5  N   UNL     1      47.839   6.421  13.994  0.00  0.00    +0.000 NA
ATOM      6  C   UNL     1      46.964   6.416  12.968  0.00  0.00    +0.000 A 
ATOM      7  C   UNL     1      47.327   6.988  11.740  0.00  0.00    +0.000 A 
ATOM      8  N   UNL     1      48.513   7.605  11.486  0.00  0.00    +0.000 NA
BRANCH   3  10
ATOM      9  N   UNL     1      51.505   7.604  11.370  0.00  0.00    +0.000 N 
ATOM     10  C   UNL     1      50.721   8.205  12.335  0.00  0.00    +0.000 C 
ATOM     11  O   UNL     1      51.069   9.174  12.993  0.00  0.00    +0.000 OA
ATOM     12  H   UNL     1      51.119   6.790  10.902  0.00  0.00    +0.000 HD
BRANCH   9  13
ATOM     13  C   UNL     1      52.850   8.050  11.073  0.00  0.00    +0.000 C 
BRANCH  13  15
ATOM     14  C   UNL     1      53.240   8.177   8.564  0.00  0.00    +0.000 C 
ATOM     15  C   UNL     1      52.925   8.948   9.837  0.00  0.00    +0.000 C 
ENDBRANCH  13  15
ENDBRANCH   9  13
ENDBRANCH   3  10
ENDBRANCH   1   6
BRANCH   1  16
ATOM     16  C   UNL     1      44.941   5.662  11.831  0.00  0.00    +0.000 C 
BRANCH  16  17
ATOM     17  C   UNL     1      44.454   4.191  11.546  0.00  0.00    +0.000 C 
ATOM     18  C   UNL     1      44.982   3.254  12.667  0.00  0.00    +0.000 C 
ATOM     19  C   UNL     1      42.911   4.110  11.577  0.00  0.00    +0.000 C 
BRANCH  17  20
ATOM     20  C   UNL     1      44.971   3.773  10.148  0.00  0.00    +0.000 A 
ATOM     21  C   UNL     1      45.377   4.754   9.224  0.00  0.00    +0.000 A 
ATOM     22  C   UNL     1      45.934   4.405   7.990  0.00  0.00    +0.000 A 
ATOM     23  C   UNL     1      46.109   3.067   7.651  0.00  0.00    +0.000 A 
ATOM     24  C   UNL     1      45.713   2.074   8.541  0.00  0.00    +0.000 A 
ATOM     25  C   UNL     1      45.120   2.427   9.761  0.00  0.00    +0.000 A 
BRANCH  24  26
ATOM     26  O   UNL     1      45.843   0.730   8.317  0.00  0.00    +0.000 OA
ATOM     27  C   UNL     1      46.937   0.366   7.479  0.00  0.00    +0.000 C 
ENDBRANCH  24  26
ENDBRANCH  17  20
ENDBRANCH  16  17
ENDBRANCH   1  16
TORSDOF 8
ENDMDL
MODEL 8
REMARK VINA RESULT:    -6.099      2.455      8.336
REMARK INTER + INTRA:          -9.650
REMARK INTER:                  -8.685
REMARK INTRA:                  -0.965
REMARK UNBOUND:                -0.698
REMARK  Name = 
REMARK  12 active torsions:
REMARK  status: ('A' for Active; 'I' for Inactive)
REMARK    1  A    between atoms: C_1  and  C_2
REMARK    2  A    between atoms: C_2  and  C_3
REMARK    3  A    between atoms: C_3  and  N_4
REMARK    4  A    between atoms: C_5  and  C_7
REMARK    5  A    between atoms: C_10  and  N_11
REMARK    6  A    between atoms: N_11  and  C_12
REMARK    7  A    between atoms: C_12  and  C_13
REMARK    8  A    between atoms: C_13  and  C_14
REMARK    9  A    between atoms: C_13  and  C_15
REMARK   10  A    between atoms: C_13  and  C_16
REMARK   11  A    between atoms: C_20  and  O_21
REMARK   12  A    between atoms: O_21  and  C_22
REMARK                            x       y       z     vdW  Elec       q    Type
REMARK                         _______ _______ _______ _____ _____    ______ ____
ROOT
ATOM      1  N   UNL     1      49.273   7.172  15.109  0.00  0.00    +0.000 N 
ATOM      2  H   UNL     1      50.047   6.527  15.058  0.00  0.00    +0.000 HD
ENDROOT
BRANCH   1   6
ATOM      3  C   UNL     1      46.150   6.206  12.607  0.00  0.00    +0.000 A 
ATOM      4  C   UNL     1      46.840   5.213  13.289  0.00  0.00    +0.000 A 
ATOM      5  N   UNL     1      47.906   5.478  14.102  0.00  0.00    +0.000 NA
ATOM      6  C   UNL     1      48.256   6.774  14.226  0.00  0.00    +0.000 A 
ATOM      7  C   UNL     1      47.528   7.760  13.543  0.00  0.00    +0.000 A 
ATOM      8  N   UNL     1      46.482   7.520  12.705  0.00  0.00    +0.000 NA
BRANCH   3  10
ATOM      9  N   UNL     1      45.116   4.672  11.034  0.00  0.00    +0.000 N 
ATOM     10  C   UNL     1      44.985   5.850  11.743  0.00  0.00    +0.000 C 
ATOM     11  O   UNL     1      44.000   6.572  11.692  0.00  0.00    +0.000 OA
ATOM     12  H   UNL     1      45.990   4.166  11.137  0.00  0.00    +0.000 HD
BRANCH   9  13
ATOM     13  C   UNL     1      44.098   4.197  10.120  0.00  0.00    +0.000 C 
BRANCH  13  15
ATOM     14  C   UNL     1      45.207   3.484   7.947  0.00  0.00    +0.000 C 
ATOM     15  C   UNL     1      44.571   3.030   9.252  0.00  0.00    +0.000 C 
ENDBRANCH  13  15
ENDBRANCH   9  13
ENDBRANCH   3  10
ENDBRANCH   1   6
BRANCH   1  16
ATOM     16  C   UNL     1      48.852   7.460  16.490  0.00  0.00    +0.000 C 
BRANCH  16  17
ATOM     17  C   UNL     1      49.609   6.561  17.540  0.00  0.00    +0.000 C 
ATOM     18  C   UNL     1      51.133   6.607  17.244  0.00  0.00    +0.000 C 
ATOM     19  C   UNL     1      49.409   7.105  18.972  0.00  0.00    +0.000 C 
BRANCH  17  20
ATOM     20  C   UNL     1      49.042   5.124  17.442  0.00  0.00    +0.000 A 
ATOM     21  C   UNL     1      47.668   4.893  17.640  0.00  0.00    +0.000 A 
ATOM     22  C   UNL     1      47.111   3.622  17.470  0.00  0.00    +0.000 A 
ATOM     23  C   UNL     1      47.912   2.550  17.086  0.00  0.00    +0.000 A 
ATOM     24  C   UNL     1      49.274   2.745  16.887  0.00  0.00    +0.000 A 
ATOM     25  C   UNL     1      49.835   4.012  17.098  0.00  0.00    +0.000 A 
BRANCH  24  26
ATOM     26  O   UNL     1      50.153   1.768  16.504  0.00  0.00    +0.000 OA
ATOM     27  C   UNL     1      51.259   1.580  17.382  0.00  0.00    +0.000 C 
ENDBRANCH  24  26
ENDBRANCH  17  20
ENDBRANCH  16  17
ENDBRANCH   1  16
TORSDOF 8
ENDMDL
MODEL 9
REMARK VINA RESULT:    -5.971      2.143      8.842
REMARK INTER + INTRA:          -9.462
REMARK INTER:                  -8.607
REMARK INTRA:                  -0.854
REMARK UNBOUND:                -0.698
REMARK  Name = 
REMARK  12 active torsions:
REMARK  status: ('A' for Active; 'I' for Inactive)
REMARK    1  A    between atoms: C_1  and  C_2
REMARK    2  A    between atoms: C_2  and  C_3
REMARK    3  A    between atoms: C_3  and  N_4
REMARK    4  A    between atoms: C_5  and  C_7
REMARK    5  A    between atoms: C_10  and  N_11
REMARK    6  A    between atoms: N_11  and  C_12
REMARK    7  A    between atoms: C_12  and  C_13
REMARK    8  A    between atoms: C_13  and  C_14
REMARK    9  A    between atoms: C_13  and  C_15
REMARK   10  A    between atoms: C_13  and  C_16
REMARK   11  A    between atoms: C_20  and  O_21
REMARK   12  A    between atoms: O_21  and  C_22
REMARK                            x       y       z     vdW  Elec       q    Type
REMARK                         _______ _______ _______ _____ _____    ______ ____
ROOT
ATOM      1  N   UNL     1      47.392   7.328  14.114  0.00  0.00    +0.000 N 
ATOM      2  H   UNL     1      47.348   8.226  13.656  0.00  0.00    +0.000 HD
ENDROOT
BRANCH   1   6
ATOM      3  C   UNL     1      45.334   4.400  12.079  0.00  0.00    +0.000 A 
ATOM      4  C   UNL     1      45.361   5.704  11.603  0.00  0.00    +0.000 A 
ATOM      5  N   UNL     1      45.998   6.719  12.261  0.00  0.00    +0.000 NA
ATOM      6  C   UNL     1      46.625   6.388  13.408  0.00  0.00    +0.000 A 
ATOM      7  C   UNL     1      46.601   5.058  13.855  0.00  0.00    +0.000 A 
ATOM      8  N   UNL     1      45.950   4.036  13.235  0.00  0.00    +0.000 NA
BRANCH   3  10
ATOM      9  N   UNL     1      45.191   3.026  10.083  0.00  0.00    +0.000 N 
ATOM     10  C   UNL     1      44.629   3.334  11.306  0.00  0.00    +0.000 C 
ATOM     11  O   UNL     1      43.630   2.793  11.756  0.00  0.00    +0.000 OA
ATOM     12  H   UNL     1      46.008   3.558   9.802  0.00  0.00    +0.000 HD
BRANCH   9  13
ATOM     13  C   UNL     1      44.615   2.044   9.188  0.00  0.00    +0.000 C 
BRANCH  13  15
ATOM     14  C   UNL     1      46.543   2.269   7.546  0.00  0.00    +0.000 C 
ATOM     15  C   UNL     1      45.662   1.318   8.341  0.00  0.00    +0.000 C 
ENDBRANCH  13  15
ENDBRANCH   9  13
ENDBRANCH   3  10
ENDBRANCH   1   6
BRANCH   1  16
ATOM     16  C   UNL     1      48.766   6.919  14.450  0.00  0.00    +0.000 C 
BRANCH  16  17
ATOM     17  C   UNL     1      49.339   7.721  15.679  0.00  0.00    +0.000 C 
ATOM     18  C   UNL     1      50.890   7.649  15.655  0.00  0.00    +0.000 C 
ATOM     19  C   UNL     1      48.953   9.215  15.587  0.00  0.00    +0.000 C 
BRANCH  17  20
ATOM     20  C   UNL     1      48.750   7.108  16.973  0.00  0.00    +0.000 A 
ATOM     21  C   UNL     1      48.251   7.946  17.987  0.00  0.00    +0.000 A 
ATOM     22  C   UNL     1      47.631   7.422  19.125  0.00  0.00    +0.000 A 
ATOM     23  C   UNL     1      47.484   6.046  19.274  0.00  0.00    +0.000 A 
ATOM     24  C   UNL     1      47.970   5.191  18.292  0.00  0.00    +0.000 A 
ATOM     25  C   UNL     1      48.626   5.719  17.171  0.00  0.00    +0.000 A 
BRANCH  24  26
ATOM     26  O   UNL     1      47.875   3.826  18.330  0.00  0.00    +0.000 OA
ATOM     27  C   UNL     1      47.577   3.212  17.079  0.00  0.00    +0.000 C 
ENDBRANCH  24  26
ENDBRANCH  17  20
ENDBRANCH  16  17
ENDBRANCH   1  16
TORSDOF 8
ENDMDL
