MODEL 1
REMARK VINA RESULT:    -7.886      0.000      0.000
REMARK INTER + INTRA:         -10.967
REMARK INTER:                 -10.422
REMARK INTRA:                  -0.545
REMARK UNBOUND:                -0.545
REMARK  Name = 
REMARK  8 active torsions:
REMARK  status: ('A' for Active; 'I' for Inactive)
REMARK    1  A    between atoms: C_1  and  O_2
REMARK    2  A    between atoms: O_2  and  C_3
REMARK    3  A    between atoms: C_5  and  C_6
REMARK    4  A    between atoms: C_6  and  N_7
REMARK    5  A    between atoms: C_12  and  C_13
REMARK    6  A    between atoms: C_13  and  N_14
REMARK    7  A    between atoms: C_19  and  O_20
REMARK    8  A    between atoms: O_20  and  C_21
REMARK                            x       y       z     vdW  Elec       q    Type
REMARK                         _______ _______ _______ _____ _____    ______ ____
ROOT
ATOM      1  N   UNL     1      44.541   4.174  10.197  0.00  0.00    +0.000 N 
ATOM      2  C   UNL     1      44.076   3.026  10.792  0.00  0.00    +0.000 A 
ATOM      3  C   UNL     1      44.127   2.027   9.850  0.00  0.00    +0.000 A 
ATOM      4  C   UNL     1      45.129   2.443   8.930  0.00  0.00    +0.000 A 
ATOM      5  C   UNL     1      46.034   1.761   8.101  0.00  0.00    +0.000 A 
ATOM      6  C   UNL     1      46.977   2.479   7.372  0.00  0.00    +0.000 A 
ATOM      7  C   UNL     1      46.837   3.874   7.281  0.00  0.00    +0.000 A 
ATOM      8  C   UNL     1      45.941   4.575   8.095  0.00  0.00    +0.000 A 
ATOM      9  C   UNL     1      45.211   3.833   9.030  0.00  0.00    +0.000 A 
ENDROOT
BRANCH   1  10
ATOM     10  C   UNL     1      44.609   5.445  10.902  0.00  0.00    +0.000 C 
BRANCH  10  13
ATOM     11  C   UNL     1      47.733   6.563  12.812  0.00  0.00    +0.000 A 
ATOM     12  C   UNL     1      46.767   6.455  11.809  0.00  0.00    +0.000 A 
ATOM     13  C   UNL     1      45.707   5.548  11.933  0.00  0.00    +0.000 A 
ATOM     14  C   UNL     1      45.628   4.747  13.083  0.00  0.00    +0.000 A 
ATOM     15  C   UNL     1      46.610   4.807  14.066  0.00  0.00    +0.000 A 
ATOM     16  C   UNL     1      47.629   5.755  13.950  0.00  0.00    +0.000 A 
BRANCH  11  18
ATOM     17  C   UNL     1      49.321   7.829  11.565  0.00  0.00    +0.000 C 
ATOM     18  O   UNL     1      48.811   7.404  12.820  0.00  0.00    +0.000 OA
ENDBRANCH  11  18
BRANCH  15  19
ATOM     19  O   UNL     1      46.630   4.030  15.194  0.00  0.00    +0.000 OA
ATOM     20  C   UNL     1      47.583   4.440  16.170  0.00  0.00    +0.000 C 
ENDBRANCH  15  19
ENDBRANCH  10  13
ENDBRANCH   1  10
BRANCH   6  21
ATOM     21  C   UNL     1      48.197   1.809   6.797  0.00  0.00    +0.000 C 
BRANCH  21  22
ATOM     22  N   UNL     1      48.316   1.994   5.363  0.00  0.00    +0.000 NA
ATOM     23  H   UNL     1      47.845   1.221   4.896  0.00  0.00    +0.000 HD
ATOM     24  H   UNL     1      49.300   1.931   5.113  0.00  0.00    +0.000 HD
ENDBRANCH  21  22
ENDBRANCH   6  21
TORSDOF 6
ENDMDL
MODEL 2
REMARK VINA RESULT:    -7.804      0.866      2.623
REMARK INTER + INTRA:         -10.858
REMARK INTER:                 -10.038
REMARK INTRA:                  -0.819
REMARK UNBOUND:                -0.545
REMARK  Name = 
REMARK  8 active torsions:
REMARK  status: ('A' for Active; 'I' for Inactive)
REMARK    1  A    between atoms: C_1  and  O_2
REMARK    2  A    between atoms: O_2  and  C_3
REMARK    3  A    between atoms: C_5  and  C_6
REMARK    4  A    between atoms: C_6  and  N_7
REMARK    5  A    between atoms: C_12  and  C_13
REMARK    6  A    between atoms: C_13  and  N_14
REMARK    7  A    between atoms: C_19  and  O_20
REMARK    8  A    between atoms: O_20  and  C_21
REMARK                            x       y       z     vdW  Elec       q    Type
REMARK                         _______ _______ _______ _____ _____    ______ ____
ROOT
ATOM      1  N   UNL     1      44.368   4.371  10.665  0.00  0.00    +0.000 N 
ATOM      2  C   UNL     1      43.999   3.288  11.426  0.00  0.00    +0.000 A 
ATOM      3  C   UNL     1      43.947   2.198  10.590  0.00  0.00    +0.000 A 
ATOM      4  C   UNL     1      44.821   2.522   9.515  0.00  0.00    +0.000 A 
ATOM      5  C   UNL     1      45.627   1.761   8.652  0.00  0.00    +0.000 A 
ATOM      6  C   UNL     1      46.460   2.405   7.743  0.00  0.00    +0.000 A 
ATOM      7  C   UNL     1      46.289   3.782   7.531  0.00  0.00    +0.000 A 
ATOM      8  C   UNL     1      45.490   4.560   8.375  0.00  0.00    +0.000 A 
ATOM      9  C   UNL     1      44.893   3.915   9.463  0.00  0.00    +0.000 A 
ENDROOT
BRANCH   1  10
ATOM     10  C   UNL     1      44.503   5.707  11.225  0.00  0.00    +0.000 C 
BRANCH  10  13
ATOM     11  C   UNL     1      47.445   5.643  13.674  0.00  0.00    +0.000 A 
ATOM     12  C   UNL     1      46.187   5.404  13.114  0.00  0.00    +0.000 A 
ATOM     13  C   UNL     1      45.825   5.990  11.895  0.00  0.00    +0.000 A 
ATOM     14  C   UNL     1      46.746   6.825  11.242  0.00  0.00    +0.000 A 
ATOM     15  C   UNL     1      47.982   7.114  11.813  0.00  0.00    +0.000 A 
ATOM     16  C   UNL     1      48.345   6.477  13.001  0.00  0.00    +0.000 A 
BRANCH  11  18
ATOM     17  C   UNL     1      47.169   4.112  15.479  0.00  0.00    +0.000 C 
ATOM     18  O   UNL     1      47.925   5.135  14.850  0.00  0.00    +0.000 OA
ENDBRANCH  11  18
BRANCH  15  19
ATOM     19  O   UNL     1      48.916   7.951  11.263  0.00  0.00    +0.000 OA
ATOM     20  C   UNL     1      50.243   7.736  11.734  0.00  0.00    +0.000 C 
ENDBRANCH  15  19
ENDBRANCH  10  13
ENDBRANCH   1  10
BRANCH   6  21
ATOM     21  C   UNL     1      47.610   1.682   7.090  0.00  0.00    +0.000 C 
BRANCH  21  22
ATOM     22  N   UNL     1      48.516   2.580   6.397  0.00  0.00    +0.000 NA
ATOM     23  H   UNL     1      48.389   2.457   5.394  0.00  0.00    +0.000 HD
ATOM     24  H   UNL     1      49.470   2.297   6.608  0.00  0.00    +0.000 HD
ENDBRANCH  21  22
ENDBRANCH   6  21
TORSDOF 6
ENDMDL
MODEL 3
REMARK VINA RESULT:    -6.535      2.145      3.273
REMARK INTER + INTRA:          -9.181
REMARK INTER:                  -8.827
REMARK INTRA:                  -0.354
REMARK UNBOUND:                -0.545
REMARK  Name = 
REMARK  8 active torsions:
REMARK  status: ('A' for Active; 'I' for Inactive)
REMARK    1  A    between atoms: C_1  and  O_2
REMARK    2  A    between atoms: O_2  and  C_3
REMARK    3  A    between atoms: C_5  and  C_6
REMARK    4  A    between atoms: C_6  and  N_7
REMARK    5  A    between atoms: C_12  and  C_13
REMARK    6  A    between atoms: C_13  and  N_14
REMARK    7  A    between atoms: C_19  and  O_20
REMARK    8  A    between atoms: O_20  and  C_21
REMARK                            x       y       z     vdW  Elec       q    Type
REMARK                         _______ _______ _______ _____ _____    ______ ____
ROOT
ATOM      1  N   UNL     1      44.830   4.586  12.223  0.00  0.00    +0.000 N 
ATOM      2  C   UNL     1      44.001   3.531  12.518  0.00  0.00    +0.000 A 
ATOM      3  C   UNL     1      43.353   3.183  11.358  0.00  0.00    +0.000 A 
ATOM      4  C   UNL     1      44.208   3.632  10.313  0.00  0.00    +0.000 A 
ATOM      5  C   UNL     1      44.461   3.191   9.004  0.00  0.00    +0.000 A 
ATOM      6  C   UNL     1      45.455   3.807   8.250  0.00  0.00    +0.000 A 
ATOM      7  C   UNL     1      46.002   5.014   8.715  0.00  0.00    +0.000 A 
ATOM      8  C   UNL     1      45.762   5.475  10.014  0.00  0.00    +0.000 A 
ATOM      9  C   UNL     1      44.980   4.666  10.845  0.00  0.00    +0.000 A 
ENDROOT
BRANCH   1  10
ATOM     10  C   UNL     1      45.662   5.230  13.230  0.00  0.00    +0.000 C 
BRANCH  10  13
ATOM     11  C   UNL     1      47.811   8.243  12.251  0.00  0.00    +0.000 A 
ATOM     12  C   UNL     1      47.445   6.946  12.619  0.00  0.00    +0.000 A 
ATOM     13  C   UNL     1      46.108   6.631  12.892  0.00  0.00    +0.000 A 
ATOM     14  C   UNL     1      45.137   7.641  12.791  0.00  0.00    +0.000 A 
ATOM     15  C   UNL     1      45.494   8.948  12.476  0.00  0.00    +0.000 A 
ATOM     16  C   UNL     1      46.823   9.229  12.155  0.00  0.00    +0.000 A 
BRANCH  11  18
ATOM     17  C   UNL     1      50.137   8.212  12.767  0.00  0.00    +0.000 C 
ATOM     18  O   UNL     1      49.072   8.683  11.956  0.00  0.00    +0.000 OA
ENDBRANCH  11  18
BRANCH  15  19
ATOM     19  O   UNL     1      44.616   9.997  12.401  0.00  0.00    +0.000 OA
ATOM     20  C   UNL     1      44.867  10.893  11.322  0.00  0.00    +0.000 C 
ENDBRANCH  15  19
ENDBRANCH  10  13
ENDBRANCH   1  10
BRANCH   6  21
ATOM     21  C   UNL     1      46.035   3.142   7.028  0.00  0.00    +0.000 C 
BRANCH  21  22
ATOM     22  N   UNL     1      46.937   4.009   6.293  0.00  0.00    +0.000 NA
ATOM     23  H   UNL     1      46.382   4.678   5.762  0.00  0.00    +0.000 HD
ATOM     24  H   UNL     1      47.441   3.443   5.614  0.00  0.00    +0.000 HD
ENDBRANCH  21  22
ENDBRANCH   6  21
TORSDOF 6
ENDMDL
MODEL 4
REMARK VINA RESULT:    -6.015      2.473      3.816
REMARK INTER + INTRA:          -8.494
REMARK INTER:                  -8.064
REMARK INTRA:                  -0.430
REMARK UNBOUND:                -0.545
REMARK  Name = 
REMARK  8 active torsions:
REMARK  status: ('A' for Active; 'I' for Inactive)
REMARK    1  A    between atoms: C_1  and  O_2
REMARK    2  A    between atoms: O_2  and  C_3
REMARK    3  A    between atoms: C_5  and  C_6
REMARK    4  A    between atoms: C_6  and  N_7
REMARK    5  A    between atoms: C_12  and  C_13
REMARK    6  A    between atoms: C_13  and  N_14
REMARK    7  A    between atoms: C_19  and  O_20
REMARK    8  A    between atoms: O_20  and  C_21
REMARK                            x       y       z     vdW  Elec       q    Type
REMARK                         _______ _______ _______ _____ _____    ______ ____
ROOT
ATOM      1  N   UNL     1      44.729   4.994  11.983  0.00  0.00    +0.000 N 
ATOM      2  C   UNL     1      43.908   3.980  12.415  0.00  0.00    +0.000 A 
ATOM      3  C   UNL     1      43.331   3.417  11.302  0.00  0.00    +0.000 A 
ATOM      4  C   UNL     1      44.231   3.706  10.239  0.00  0.00    +0.000 A 
ATOM      5  C   UNL     1      44.565   3.054   9.040  0.00  0.00    +0.000 A 
ATOM      6  C   UNL     1      45.584   3.561   8.242  0.00  0.00    +0.000 A 
ATOM      7  C   UNL     1      46.079   4.846   8.516  0.00  0.00    +0.000 A 
ATOM      8  C   UNL     1      45.759   5.516   9.702  0.00  0.00    +0.000 A 
ATOM      9  C   UNL     1      44.951   4.839  10.621  0.00  0.00    +0.000 A 
ENDROOT
BRANCH   1  10
ATOM     10  C   UNL     1      45.490   5.826  12.902  0.00  0.00    +0.000 C 
BRANCH  10  13
ATOM     11  C   UNL     1      44.747   9.346  11.592  0.00  0.00    +0.000 A 
ATOM     12  C   UNL     1      44.589   7.995  11.911  0.00  0.00    +0.000 A 
ATOM     13  C   UNL     1      45.640   7.269  12.486  0.00  0.00    +0.000 A 
ATOM     14  C   UNL     1      46.858   7.920  12.738  0.00  0.00    +0.000 A 
ATOM     15  C   UNL     1      47.047   9.251  12.380  0.00  0.00    +0.000 A 
ATOM     16  C   UNL     1      45.970   9.971  11.858  0.00  0.00    +0.000 A 
BRANCH  11  18
ATOM     17  C   UNL     1      42.563   9.592  10.672  0.00  0.00    +0.000 C 
ATOM     18  O   UNL     1      43.808  10.169  11.034  0.00  0.00    +0.000 OA
ENDBRANCH  11  18
BRANCH  15  19
ATOM     19  O   UNL     1      48.215   9.944  12.551  0.00  0.00    +0.000 OA
ATOM     20  C   UNL     1      49.151   9.786  11.489  0.00  0.00    +0.000 C 
ENDBRANCH  15  19
ENDBRANCH  10  13
ENDBRANCH   1  10
BRANCH   6  21
ATOM     21  C   UNL     1      46.243   2.714   7.184  0.00  0.00    +0.000 C 
BRANCH  21  22
ATOM     22  N   UNL     1      46.896   3.506   6.158  0.00  0.00    +0.000 NA
ATOM     23  H   UNL     1      47.866   3.653   6.431  0.00  0.00    +0.000 HD
ATOM     24  H   UNL     1      46.456   4.423   6.134  0.00  0.00    +0.000 HD
ENDBRANCH  21  22
ENDBRANCH   6  21
TORSDOF 6
ENDMDL
MODEL 5
REMARK VINA RESULT:    -5.952      2.747      3.783
REMARK INTER + INTRA:          -8.410
REMARK INTER:                  -8.075
REMARK INTRA:                  -0.335
REMARK UNBOUND:                -0.545
REMARK  Name = 
REMARK  8 active torsions:
REMARK  status: ('A' for Active; 'I' for Inactive)
REMARK    1  A    between atoms: C_1  and  O_2
REMARK    2  A    between atoms: O_2  and  C_3
REMARK    3  A    between atoms: C_5  and  C_6
REMARK    4  A    between atoms: C_6  and  N_7
REMARK    5  A    between atoms: C_12  and  C_13
REMARK    6  A    between atoms: C_13  and  N_14
REMARK    7  A    between atoms: C_19  and  O_20
REMARK    8  A    between atoms: O_20  and  C_21
REMARK                            x       y       z     vdW  Elec       q    Type
REMARK                         _______ _______ _______ _____ _____    ______ ____
ROOT
ATOM      1  N   UNL     1      44.660   4.944  11.952  0.00  0.00    +0.000 N 
ATOM      2  C   UNL     1      43.883   3.913  12.423  0.00  0.00    +0.000 A 
ATOM      3  C   UNL     1      43.354   3.267  11.332  0.00  0.00    +0.000 A 
ATOM      4  C   UNL     1      44.256   3.548  10.269  0.00  0.00    +0.000 A 
ATOM      5  C   UNL     1      44.642   2.855   9.109  0.00  0.00    +0.000 A 
ATOM      6  C   UNL     1      45.648   3.372   8.300  0.00  0.00    +0.000 A 
ATOM      7  C   UNL     1      46.074   4.693   8.517  0.00  0.00    +0.000 A 
ATOM      8  C   UNL     1      45.701   5.404   9.663  0.00  0.00    +0.000 A 
ATOM      9  C   UNL     1      44.913   4.733  10.603  0.00  0.00    +0.000 A 
ENDROOT
BRANCH   1  10
ATOM     10  C   UNL     1      45.364   5.858  12.840  0.00  0.00    +0.000 C 
BRANCH  10  13
ATOM     11  C   UNL     1      46.344   9.513  12.260  0.00  0.00    +0.000 A 
ATOM     12  C   UNL     1      46.378   8.193  12.717  0.00  0.00    +0.000 A 
ATOM     13  C   UNL     1      45.335   7.307  12.419  0.00  0.00    +0.000 A 
ATOM     14  C   UNL     1      44.252   7.765  11.652  0.00  0.00    +0.000 A 
ATOM     15  C   UNL     1      44.179   9.089  11.234  0.00  0.00    +0.000 A 
ATOM     16  C   UNL     1      45.254   9.942  11.494  0.00  0.00    +0.000 A 
BRANCH  11  18
ATOM     17  C   UNL     1      48.397  10.137  13.296  0.00  0.00    +0.000 C 
ATOM     18  O   UNL     1      47.291  10.476  12.474  0.00  0.00    +0.000 OA
ENDBRANCH  11  18
BRANCH  15  19
ATOM     19  O   UNL     1      43.139   9.625  10.522  0.00  0.00    +0.000 OA
ATOM     20  C   UNL     1      42.540  10.766  11.129  0.00  0.00    +0.000 C 
ENDBRANCH  15  19
ENDBRANCH  10  13
ENDBRANCH   1  10
BRANCH   6  21
ATOM     21  C   UNL     1      46.366   2.508   7.296  0.00  0.00    +0.000 C 
BRANCH  21  22
ATOM     22  N   UNL     1      47.575   3.128   6.786  0.00  0.00    +0.000 NA
ATOM     23  H   UNL     1      48.358   2.839   7.370  0.00  0.00    +0.000 HD
ATOM     24  H   UNL     1      47.487   4.136   6.893  0.00  0.00    +0.000 HD
ENDBRANCH  21  22
ENDBRANCH   6  21
TORSDOF 6
ENDMDL
MODEL 6
REMARK VINA RESULT:    -5.864      3.496      6.041
REMARK INTER + INTRA:          -8.294
REMARK INTER:                  -7.911
REMARK INTRA:                  -0.383
REMARK UNBOUND:                -0.545
REMARK  Name = 
REMARK  8 active torsions:
REMARK  status: ('A' for Active; 'I' for Inactive)
REMARK    1  A    between atoms: C_1  and  O_2
REMARK    2  A    between atoms: O_2  and  C_3
REMARK    3  A    between atoms: C_5  and  C_6
REMARK    4  A    between atoms: C_6  and  N_7
REMARK    5  A    between atoms: C_12  and  C_13
REMARK    6  A    between atoms: C_13  and  N_14
REMARK    7  A    between atoms: C_19  and  O_20
REMARK    8  A    between atoms: O_20  and  C_21
REMARK                            x       y       z     vdW  Elec       q    Type
REMARK                         _______ _______ _______ _____ _____    ______ ____
ROOT
ATOM      1  N   UNL     1      47.263   4.863  14.671  0.00  0.00    +0.000 N 
ATOM      2  C   UNL     1      47.767   6.134  14.539  0.00  0.00    +0.000 A 
ATOM      3  C   UNL     1      47.764   6.438  13.198  0.00  0.00    +0.000 A 
ATOM      4  C   UNL     1      46.755   5.608  12.638  0.00  0.00    +0.000 A 
ATOM      5  C   UNL     1      45.884   5.736  11.543  0.00  0.00    +0.000 A 
ATOM      6  C   UNL     1      44.921   4.760  11.312  0.00  0.00    +0.000 A 
ATOM      7  C   UNL     1      45.006   3.549  12.018  0.00  0.00    +0.000 A 
ATOM      8  C   UNL     1      45.867   3.397  13.110  0.00  0.00    +0.000 A 
ATOM      9  C   UNL     1      46.617   4.513  13.493  0.00  0.00    +0.000 A 
ENDROOT
BRANCH   1  10
ATOM     10  C   UNL     1      47.139   4.204  15.963  0.00  0.00    +0.000 C 
BRANCH  10  13
ATOM     11  C   UNL     1      50.228   2.252  17.106  0.00  0.00    +0.000 A 
ATOM     12  C   UNL     1      48.986   2.543  16.536  0.00  0.00    +0.000 A 
ATOM     13  C   UNL     1      48.446   3.833  16.620  0.00  0.00    +0.000 A 
ATOM     14  C   UNL     1      49.172   4.831  17.288  0.00  0.00    +0.000 A 
ATOM     15  C   UNL     1      50.385   4.544  17.906  0.00  0.00    +0.000 A 
ATOM     16  C   UNL     1      50.931   3.267  17.764  0.00  0.00    +0.000 A 
BRANCH  11  18
ATOM     17  C   UNL     1      52.149   0.975  17.705  0.00  0.00    +0.000 C 
ATOM     18  O   UNL     1      50.869   1.044  17.095  0.00  0.00    +0.000 OA
ENDBRANCH  11  18
BRANCH  15  19
ATOM     19  O   UNL     1      51.131   5.449  18.614  0.00  0.00    +0.000 OA
ATOM     20  C   UNL     1      51.811   6.405  17.806  0.00  0.00    +0.000 C 
ENDBRANCH  15  19
ENDBRANCH  10  13
ENDBRANCH   1  10
BRANCH   6  21
ATOM     21  C   UNL     1      43.732   5.030  10.425  0.00  0.00    +0.000 C 
BRANCH  21  22
ATOM     22  N   UNL     1      43.899   4.494   9.086  0.00  0.00    +0.000 NA
ATOM     23  H   UNL     1      44.518   3.687   9.136  0.00  0.00    +0.000 HD
ATOM     24  H   UNL     1      44.374   5.193   8.520  0.00  0.00    +0.000 HD
ENDBRANCH  21  22
ENDBRANCH   6  21
TORSDOF 6
ENDMDL
MODEL 7
REMARK VINA RESULT:    -5.771      3.301      6.595
REMARK INTER + INTRA:          -8.171
REMARK INTER:                  -7.621
REMARK INTRA:                  -0.551
REMARK UNBOUND:                -0.545
REMARK  Name = 
REMARK  8 active torsions:
REMARK  status: ('A' for Active; 'I' for Inactive)
REMARK    1  A    between atoms: C_1  and  O_2
REMARK    2  A    between atoms: O_2  and  C_3
REMARK    3  A    between atoms: C_5  and  C_6
REMARK    4  A    between atoms: C_6  and  N_7
REMARK    5  A    between atoms: C_12  and  C_13
REMARK    6  A    between atoms: C_13  and  N_14
REMARK    7  A    between atoms: C_19  and  O_20
REMARK    8  A    between atoms: O_20  and  C_21
REMARK                            x       y       z     vdW  Elec       q    Type
REMARK                         _______ _______ _______ _____ _____    ______ ____
ROOT
ATOM      1  N   UNL     1      46.920   6.564  12.327  0.00  0.00    +0.000 N 
ATOM      2  C   UNL     1      46.646   6.075  13.582  0.00  0.00    +0.000 A 
ATOM      3  C   UNL     1      47.846   5.927  14.235  0.00  0.00    +0.000 A 
ATOM      4  C   UNL     1      48.725   6.845  13.596  0.00  0.00    +0.000 A 
ATOM      5  C   UNL     1      49.841   7.584  14.024  0.00  0.00    +0.000 A 
ATOM      6  C   UNL     1      50.438   8.492  13.156  0.00  0.00    +0.000 A 
ATOM      7  C   UNL     1      50.078   8.463  11.799  0.00  0.00    +0.000 A 
ATOM      8  C   UNL     1      48.972   7.734  11.349  0.00  0.00    +0.000 A 
ATOM      9  C   UNL     1      48.217   7.058  12.314  0.00  0.00    +0.000 A 
ENDROOT
BRANCH   1  10
ATOM     10  C   UNL     1      45.877   6.824  11.346  0.00  0.00    +0.000 C 
BRANCH  10  13
ATOM     11  C   UNL     1      45.616   4.305   8.476  0.00  0.00    +0.000 A 
ATOM     12  C   UNL     1      45.960   5.447   9.203  0.00  0.00    +0.000 A 
ATOM     13  C   UNL     1      45.479   5.637  10.504  0.00  0.00    +0.000 A 
ATOM     14  C   UNL     1      44.643   4.660  11.070  0.00  0.00    +0.000 A 
ATOM     15  C   UNL     1      44.251   3.543  10.339  0.00  0.00    +0.000 A 
ATOM     16  C   UNL     1      44.784   3.345   9.064  0.00  0.00    +0.000 A 
BRANCH  11  18
ATOM     17  C   UNL     1      46.907   2.900   7.047  0.00  0.00    +0.000 C 
ATOM     18  O   UNL     1      46.016   3.994   7.205  0.00  0.00    +0.000 OA
ENDBRANCH  11  18
BRANCH  15  19
ATOM     19  O   UNL     1      43.405   2.569  10.801  0.00  0.00    +0.000 OA
ATOM     20  C   UNL     1      43.386   2.434  12.219  0.00  0.00    +0.000 C 
ENDBRANCH  15  19
ENDBRANCH  10  13
ENDBRANCH   1  10
BRANCH   6  21
ATOM     21  C   UNL     1      51.356   9.573  13.666  0.00  0.00    +0.000 C 
BRANCH  21  22
ATOM     22  N   UNL     1      52.687   9.082  13.969  0.00  0.00    +0.000 NA
ATOM     23  H   UNL     1      52.699   8.750  14.932  0.00  0.00    +0.000 HD
ATOM     24  H   UNL     1      53.335   9.866  13.922  0.00  0.00    +0.000 HD
ENDBRANCH  21  22
ENDBRANCH   6  21
TORSDOF 6
ENDMDL
MODEL 8
REMARK VINA RESULT:    -5.520      4.009      7.641
REMARK INTER + INTRA:          -7.840
REMARK INTER:                  -7.101
REMARK INTRA:                  -0.739
REMARK UNBOUND:                -0.545
REMARK  Name = 
REMARK  8 active torsions:
REMARK  status: ('A' for Active; 'I' for Inactive)
REMARK    1  A    between atoms: C_1  and  O_2
REMARK    2  A    between atoms: O_2  and  C_3
REMARK    3  A    between atoms: C_5  and  C_6
REMARK    4  A    between atoms: C_6  and  N_7
REMARK    5  A    between atoms: C_12  and  C_13
REMARK    6  A    between atoms: C_13  and  N_14
REMARK    7  A    between atoms: C_19  and  O_20
REMARK    8  A    between atoms: O_20  and  C_21
REMARK                            x       y       z     vdW  Elec       q    Type
REMARK                         _______ _______ _______ _____ _____    ______ ____
ROOT
ATOM      1  N   UNL     1      48.162   6.446  13.984  0.00  0.00    +0.000 N 
ATOM      2  C   UNL     1      49.009   7.471  14.330  0.00  0.00    +0.000 A 
ATOM      3  C   UNL     1      48.996   7.568  15.701  0.00  0.00    +0.000 A 
ATOM      4  C   UNL     1      48.616   6.274  16.154  0.00  0.00    +0.000 A 
ATOM      5  C   UNL     1      48.895   5.527  17.311  0.00  0.00    +0.000 A 
ATOM      6  C   UNL     1      48.436   4.217  17.410  0.00  0.00    +0.000 A 
ATOM      7  C   UNL     1      47.494   3.761  16.475  0.00  0.00    +0.000 A 
ATOM      8  C   UNL     1      47.198   4.489  15.317  0.00  0.00    +0.000 A 
ATOM      9  C   UNL     1      47.906   5.677  15.112  0.00  0.00    +0.000 A 
ENDROOT
BRANCH   1  10
ATOM     10  C   UNL     1      47.914   6.073  12.599  0.00  0.00    +0.000 C 
BRANCH  10  13
ATOM     11  C   UNL     1      44.302   5.425  11.512  0.00  0.00    +0.000 A 
ATOM     12  C   UNL     1      45.627   5.199  11.892  0.00  0.00    +0.000 A 
ATOM     13  C   UNL     1      46.495   6.272  12.126  0.00  0.00    +0.000 A 
ATOM     14  C   UNL     1      46.014   7.582  11.973  0.00  0.00    +0.000 A 
ATOM     15  C   UNL     1      44.712   7.822  11.546  0.00  0.00    +0.000 A 
ATOM     16  C   UNL     1      43.847   6.741  11.370  0.00  0.00    +0.000 A 
BRANCH  11  18
ATOM     17  C   UNL     1      43.586   3.164  11.748  0.00  0.00    +0.000 C 
ATOM     18  O   UNL     1      43.352   4.475  11.256  0.00  0.00    +0.000 OA
ENDBRANCH  11  18
BRANCH  15  19
ATOM     19  O   UNL     1      44.181   9.066  11.330  0.00  0.00    +0.000 OA
ATOM     20  C   UNL     1      45.011  10.140  11.763  0.00  0.00    +0.000 C 
ENDBRANCH  15  19
ENDBRANCH  10  13
ENDBRANCH   1  10
BRANCH   6  21
ATOM     21  C   UNL     1      49.023   3.258  18.413  0.00  0.00    +0.000 C 
BRANCH  21  22
ATOM     22  N   UNL     1      48.312   3.264  19.678  0.00  0.00    +0.000 NA
ATOM     23  H   UNL     1      48.891   2.799  20.376  0.00  0.00    +0.000 HD
ATOM     24  H   UNL     1      47.471   2.701  19.574  0.00  0.00    +0.000 HD
ENDBRANCH  21  22
ENDBRANCH   6  21
TORSDOF 6
ENDMDL
MODEL 9
REMARK VINA RESULT:    -5.431      4.458      6.429
REMARK INTER + INTRA:          -7.723
REMARK INTER:                  -6.897
REMARK INTRA:                  -0.826
REMARK UNBOUND:                -0.545
REMARK  Name = 
REMARK  8 active torsions:
REMARK  status: ('A' for Active; 'I' for Inactive)
REMARK    1  A    between atoms: C_1  and  O_2
REMARK    2  A    between atoms: O_2  and  C_3
REMARK    3  A    between atoms: C_5  and  C_6
REMARK    4  A    between atoms: C_6  and  N_7
REMARK    5  A    between atoms: C_12  and  C_13
REMARK    6  A    between atoms: C_13  and  N_14
REMARK    7  A    between atoms: C_19  and  O_20
REMARK    8  A    between atoms: O_20  and  C_21
REMARK                            x       y       z     vdW  Elec       q    Type
REMARK                         _______ _______ _______ _____ _____    ______ ____
ROOT
ATOM      1  N   UNL     1      48.162   7.579  13.947  0.00  0.00    +0.000 N 
ATOM      2  C   UNL     1      47.590   8.824  13.837  0.00  0.00    +0.000 A 
ATOM      3  C   UNL     1      46.589   8.734  12.899  0.00  0.00    +0.000 A 
ATOM      4  C   UNL     1      46.212   7.362  12.899  0.00  0.00    +0.000 A 
ATOM      5  C   UNL     1      45.011   6.682  12.636  0.00  0.00    +0.000 A 
ATOM      6  C   UNL     1      44.945   5.305  12.822  0.00  0.00    +0.000 A 
ATOM      7  C   UNL     1      46.140   4.594  13.017  0.00  0.00    +0.000 A 
ATOM      8  C   UNL     1      47.348   5.249  13.278  0.00  0.00    +0.000 A 
ATOM      9  C   UNL     1      47.312   6.644  13.371  0.00  0.00    +0.000 A 
ENDROOT
BRANCH   1  10
ATOM     10  C   UNL     1      49.277   7.310  14.843  0.00  0.00    +0.000 C 
BRANCH  10  13
ATOM     11  C   UNL     1      48.298   7.643  18.528  0.00  0.00    +0.000 A 
ATOM     12  C   UNL     1      48.713   7.977  17.237  0.00  0.00    +0.000 A 
ATOM     13  C   UNL     1      48.892   6.985  16.265  0.00  0.00    +0.000 A 
ATOM     14  C   UNL     1      48.648   5.646  16.608  0.00  0.00    +0.000 A 
ATOM     15  C   UNL     1      48.284   5.292  17.903  0.00  0.00    +0.000 A 
ATOM     16  C   UNL     1      48.059   6.301  18.843  0.00  0.00    +0.000 A 
BRANCH  11  18
ATOM     17  C   UNL     1      47.529   7.974  20.760  0.00  0.00    +0.000 C 
ATOM     18  O   UNL     1      48.083   8.507  19.566  0.00  0.00    +0.000 OA
ENDBRANCH  11  18
BRANCH  15  19
ATOM     19  O   UNL     1      48.071   4.008  18.329  0.00  0.00    +0.000 OA
ATOM     20  C   UNL     1      47.352   3.197  17.405  0.00  0.00    +0.000 C 
ENDBRANCH  15  19
ENDBRANCH  10  13
ENDBRANCH   1  10
BRANCH   6  21
ATOM     21  C   UNL     1      43.621   4.596  12.943  0.00  0.00    +0.000 C 
BRANCH  21  22
ATOM     22  N   UNL     1      42.547   5.480  13.355  0.00  0.00    +0.000 NA
ATOM     23  H   UNL     1      42.946   6.389  13.585  0.00  0.00    +0.000 HD
ATOM     24  H   UNL     1      42.143   5.113  14.214  0.00  0.00    +0.000 HD
ENDBRANCH  21  22
ENDBRANCH   6  21
TORSDOF 6
ENDMDL
