MODEL 1
REMARK VINA RESULT:    -9.288      0.000      0.000
REMARK INTER + INTRA:         -13.681
REMARK INTER:                 -12.546
REMARK INTRA:                  -1.135
REMARK UNBOUND:                -1.135
REMARK  Name = 
REMARK  6 active torsions:
REMARK  status: ('A' for Active; 'I' for Inactive)
REMARK    1  A    between atoms: C_2  and  C_4
REMARK    2  A    between atoms: C_7  and  N_8
REMARK    3  A    between atoms: N_8  and  C_9
REMARK    4  A    between atoms: C_9  and  C_10
REMARK    5  A    between atoms: C_10  and  C_13
REMARK    6  A    between atoms: C_17  and  C_18
REMARK                            x       y       z     vdW  Elec       q    Type
REMARK                         _______ _______ _______ _____ _____    ______ ____
ROOT
ATOM      1  C   UNL     1      43.491   5.540  12.118  0.00  0.00    +0.000 C 
ATOM      2  F   UNL     1      42.946   6.594  11.439  0.00  0.00    +0.000 F 
ATOM      3  F   UNL     1      42.770   5.447  13.278  0.00  0.00    +0.000 F 
ENDROOT
BRANCH   1   4
ATOM      4  C   UNL     1      44.971   5.737  12.380  0.00  0.00    +0.000 A 
ATOM      5  C   UNL     1      45.744   6.532  11.529  0.00  0.00    +0.000 A 
ATOM      6  C   UNL     1      47.090   6.749  11.802  0.00  0.00    +0.000 A 
ATOM      7  C   UNL     1      47.672   6.190  12.940  0.00  0.00    +0.000 A 
ATOM      8  C   UNL     1      46.924   5.405  13.835  0.00  0.00    +0.000 A 
ATOM      9  C   UNL     1      45.572   5.173  13.519  0.00  0.00    +0.000 A 
BRANCH   8  10
ATOM     10  C   UNL     1      47.519   4.884  15.083  0.00  0.00    +0.000 A 
ATOM     11  C   UNL     1      47.273   3.584  15.548  0.00  0.00    +0.000 A 
ATOM     12  C   UNL     1      47.822   3.153  16.754  0.00  0.00    +0.000 A 
ATOM     13  C   UNL     1      48.622   4.028  17.466  0.00  0.00    +0.000 A 
ATOM     14  F   UNL     1      49.149   3.613  18.625  0.00  0.00    +0.000 F 
ATOM     15  N   UNL     1      48.898   5.283  17.066  0.00  0.00    +0.000 NA
ATOM     16  C   UNL     1      48.340   5.674  15.897  0.00  0.00    +0.000 A 
ENDBRANCH   8  10
ENDBRANCH   1   4
BRANCH   1  17
ATOM     17  C   UNL     1      43.262   4.240  11.303  0.00  0.00    +0.000 C 
BRANCH  17  18
ATOM     18  N   UNL     1      43.488   4.422   9.862  0.00  0.00    +0.000 N 
ATOM     19  H   UNL     1      42.638   4.475   9.301  0.00  0.00    +0.000 HD
BRANCH  18  23
ATOM     20  C   UNL     1      46.567   2.496   7.727  0.00  0.00    +0.000 A 
ATOM     21  C   UNL     1      46.442   3.884   7.646  0.00  0.00    +0.000 A 
ATOM     22  C   UNL     1      45.440   4.540   8.373  0.00  0.00    +0.000 A 
ATOM     23  C   UNL     1      44.569   3.837   9.214  0.00  0.00    +0.000 A 
ATOM     24  C   UNL     1      44.713   2.444   9.286  0.00  0.00    +0.000 A 
ATOM     25  C   UNL     1      45.697   1.775   8.547  0.00  0.00    +0.000 A 
BRANCH  20  27
ATOM     26  N   UNL     1      48.670   2.433   6.500  0.00  0.00    +0.000 N 
ATOM     27  C   UNL     1      47.556   1.756   6.905  0.00  0.00    +0.000 C 
ATOM     28  O   UNL     1      47.394   0.576   6.612  0.00  0.00    +0.000 OA
ATOM     29  H   UNL     1      49.370   1.890   6.009  0.00  0.00    +0.000 HD
ATOM     30  H   UNL     1      48.957   3.305   6.921  0.00  0.00    +0.000 HD
ENDBRANCH  20  27
ENDBRANCH  18  23
ENDBRANCH  17  18
ENDBRANCH   1  17
TORSDOF 6
ENDMDL
MODEL 2
REMARK VINA RESULT:    -8.361      2.152      2.898
REMARK INTER + INTRA:         -12.428
REMARK INTER:                 -11.665
REMARK INTRA:                  -0.763
REMARK UNBOUND:                -1.135
REMARK  Name = 
REMARK  6 active torsions:
REMARK  status: ('A' for Active; 'I' for Inactive)
REMARK    1  A    between atoms: C_2  and  C_4
REMARK    2  A    between atoms: C_7  and  N_8
REMARK    3  A    between atoms: N_8  and  C_9
REMARK    4  A    between atoms: C_9  and  C_10
REMARK    5  A    between atoms: C_10  and  C_13
REMARK    6  A    between atoms: C_17  and  C_18
REMARK                            x       y       z     vdW  Elec       q    Type
REMARK                         _______ _______ _______ _____ _____    ______ ____
ROOT
ATOM      1  C   UNL     1      43.746   5.085  12.372  0.00  0.00    +0.000 C 
ATOM      2  F   UNL     1      42.771   5.230  13.318  0.00  0.00    +0.000 F 
ATOM      3  F   UNL     1      44.466   3.989  12.760  0.00  0.00    +0.000 F 
ENDROOT
BRANCH   1   4
ATOM      4  C   UNL     1      44.612   6.324  12.253  0.00  0.00    +0.000 A 
ATOM      5  C   UNL     1      44.110   7.489  11.666  0.00  0.00    +0.000 A 
ATOM      6  C   UNL     1      44.892   8.637  11.605  0.00  0.00    +0.000 A 
ATOM      7  C   UNL     1      46.177   8.638  12.149  0.00  0.00    +0.000 A 
ATOM      8  C   UNL     1      46.711   7.495  12.770  0.00  0.00    +0.000 A 
ATOM      9  C   UNL     1      45.912   6.336  12.790  0.00  0.00    +0.000 A 
BRANCH   8  10
ATOM     10  C   UNL     1      48.037   7.522  13.420  0.00  0.00    +0.000 A 
ATOM     11  C   UNL     1      49.124   8.227  12.881  0.00  0.00    +0.000 A 
ATOM     12  C   UNL     1      50.368   8.188  13.507  0.00  0.00    +0.000 A 
ATOM     13  C   UNL     1      50.498   7.454  14.673  0.00  0.00    +0.000 A 
ATOM     14  F   UNL     1      51.694   7.416  15.273  0.00  0.00    +0.000 F 
ATOM     15  N   UNL     1      49.490   6.764  15.238  0.00  0.00    +0.000 NA
ATOM     16  C   UNL     1      48.299   6.815  14.599  0.00  0.00    +0.000 A 
ENDBRANCH   8  10
ENDBRANCH   1   4
BRANCH   1  17
ATOM     17  C   UNL     1      43.083   4.767  11.006  0.00  0.00    +0.000 C 
BRANCH  17  18
ATOM     18  N   UNL     1      43.968   5.038   9.864  0.00  0.00    +0.000 N 
ATOM     19  H   UNL     1      43.671   5.811   9.269  0.00  0.00    +0.000 HD
BRANCH  18  23
ATOM     20  C   UNL     1      46.218   2.035   7.948  0.00  0.00    +0.000 A 
ATOM     21  C   UNL     1      45.243   1.672   8.879  0.00  0.00    +0.000 A 
ATOM     22  C   UNL     1      44.468   2.660   9.503  0.00  0.00    +0.000 A 
ATOM     23  C   UNL     1      44.625   4.015   9.191  0.00  0.00    +0.000 A 
ATOM     24  C   UNL     1      45.606   4.360   8.250  0.00  0.00    +0.000 A 
ATOM     25  C   UNL     1      46.401   3.385   7.637  0.00  0.00    +0.000 A 
BRANCH  20  27
ATOM     26  N   UNL     1      46.877  -0.285   7.613  0.00  0.00    +0.000 N 
ATOM     27  C   UNL     1      47.118   1.030   7.334  0.00  0.00    +0.000 C 
ATOM     28  O   UNL     1      48.035   1.357   6.588  0.00  0.00    +0.000 OA
ATOM     29  H   UNL     1      47.451  -0.960   7.123  0.00  0.00    +0.000 HD
ATOM     30  H   UNL     1      46.003  -0.604   8.006  0.00  0.00    +0.000 HD
ENDBRANCH  20  27
ENDBRANCH  18  23
ENDBRANCH  17  18
ENDBRANCH   1  17
TORSDOF 6
ENDMDL
MODEL 3
REMARK VINA RESULT:    -8.198      3.192      7.519
REMARK INTER + INTRA:         -12.209
REMARK INTER:                 -11.172
REMARK INTRA:                  -1.038
REMARK UNBOUND:                -1.135
REMARK  Name = 
REMARK  6 active torsions:
REMARK  status: ('A' for Active; 'I' for Inactive)
REMARK    1  A    between atoms: C_2  and  C_4
REMARK    2  A    between atoms: C_7  and  N_8
REMARK    3  A    between atoms: N_8  and  C_9
REMARK    4  A    between atoms: C_9  and  C_10
REMARK    5  A    between atoms: C_10  and  C_13
REMARK    6  A    between atoms: C_17  and  C_18
REMARK                            x       y       z     vdW  Elec       q    Type
REMARK                         _______ _______ _______ _____ _____    ______ ____
ROOT
ATOM      1  C   UNL     1      45.579   7.655  11.970  0.00  0.00    +0.000 C 
ATOM      2  F   UNL     1      45.240   7.982  13.252  0.00  0.00    +0.000 F 
ATOM      3  F   UNL     1      45.267   8.757  11.221  0.00  0.00    +0.000 F 
ENDROOT
BRANCH   1   4
ATOM      4  C   UNL     1      44.853   6.414  11.489  0.00  0.00    +0.000 A 
ATOM      5  C   UNL     1      43.528   6.175  11.865  0.00  0.00    +0.000 A 
ATOM      6  C   UNL     1      42.851   5.060  11.382  0.00  0.00    +0.000 A 
ATOM      7  C   UNL     1      43.486   4.185  10.499  0.00  0.00    +0.000 A 
ATOM      8  C   UNL     1      44.810   4.403  10.076  0.00  0.00    +0.000 A 
ATOM      9  C   UNL     1      45.484   5.520  10.606  0.00  0.00    +0.000 A 
BRANCH   8  10
ATOM     10  C   UNL     1      45.451   3.524   9.077  0.00  0.00    +0.000 A 
ATOM     11  C   UNL     1      46.066   4.025   7.920  0.00  0.00    +0.000 A 
ATOM     12  C   UNL     1      46.620   3.153   6.984  0.00  0.00    +0.000 A 
ATOM     13  C   UNL     1      46.560   1.793   7.232  0.00  0.00    +0.000 A 
ATOM     14  F   UNL     1      47.092   0.956   6.332  0.00  0.00    +0.000 F 
ATOM     15  N   UNL     1      45.989   1.257   8.327  0.00  0.00    +0.000 NA
ATOM     16  C   UNL     1      45.453   2.130   9.209  0.00  0.00    +0.000 A 
ENDBRANCH   8  10
ENDBRANCH   1   4
BRANCH   1  17
ATOM     17  C   UNL     1      47.113   7.439  11.891  0.00  0.00    +0.000 C 
BRANCH  17  18
ATOM     18  N   UNL     1      47.766   7.497  13.206  0.00  0.00    +0.000 N 
ATOM     19  H   UNL     1      48.605   8.075  13.241  0.00  0.00    +0.000 HD
BRANCH  18  23
ATOM     20  C   UNL     1      47.685   4.334  15.988  0.00  0.00    +0.000 A 
ATOM     21  C   UNL     1      47.040   4.182  14.759  0.00  0.00    +0.000 A 
ATOM     22  C   UNL     1      47.084   5.216  13.814  0.00  0.00    +0.000 A 
ATOM     23  C   UNL     1      47.790   6.398  14.058  0.00  0.00    +0.000 A 
ATOM     24  C   UNL     1      48.435   6.531  15.296  0.00  0.00    +0.000 A 
ATOM     25  C   UNL     1      48.381   5.514  16.257  0.00  0.00    +0.000 A 
BRANCH  20  27
ATOM     26  N   UNL     1      48.756   2.809  17.558  0.00  0.00    +0.000 N 
ATOM     27  C   UNL     1      47.588   3.301  17.049  0.00  0.00    +0.000 C 
ATOM     28  O   UNL     1      46.504   2.912  17.470  0.00  0.00    +0.000 OA
ATOM     29  H   UNL     1      48.670   2.165  18.334  0.00  0.00    +0.000 HD
ATOM     30  H   UNL     1      49.643   3.273  17.423  0.00  0.00    +0.000 HD
ENDBRANCH  20  27
ENDBRANCH  18  23
ENDBRANCH  17  18
ENDBRANCH   1  17
TORSDOF 6
ENDMDL
MODEL 4
REMARK VINA RESULT:    -7.932      2.741      3.976
REMARK INTER + INTRA:         -11.850
REMARK INTER:                 -11.174
REMARK INTRA:                  -0.675
REMARK UNBOUND:                -1.135
REMARK  Name = 
REMARK  6 active torsions:
REMARK  status: ('A' for Active; 'I' for Inactive)
REMARK    1  A    between atoms: C_2  and  C_4
REMARK    2  A    between atoms: C_7  and  N_8
REMARK    3  A    between atoms: N_8  and  C_9
REMARK    4  A    between atoms: C_9  and  C_10
REMARK    5  A    between atoms: C_10  and  C_13
REMARK    6  A    between atoms: C_17  and  C_18
REMARK                            x       y       z     vdW  Elec       q    Type
REMARK                         _______ _______ _______ _____ _____    ______ ____
ROOT
ATOM      1  C   UNL     1      43.225   4.885  12.188  0.00  0.00    +0.000 C 
ATOM      2  F   UNL     1      42.408   5.886  12.633  0.00  0.00    +0.000 F 
ATOM      3  F   UNL     1      42.721   3.737  12.736  0.00  0.00    +0.000 F 
ENDROOT
BRANCH   1   4
ATOM      4  C   UNL     1      44.672   5.117  12.579  0.00  0.00    +0.000 A 
ATOM      5  C   UNL     1      45.439   4.077  13.112  0.00  0.00    +0.000 A 
ATOM      6  C   UNL     1      46.779   4.282  13.423  0.00  0.00    +0.000 A 
ATOM      7  C   UNL     1      47.371   5.523  13.184  0.00  0.00    +0.000 A 
ATOM      8  C   UNL     1      46.640   6.588  12.626  0.00  0.00    +0.000 A 
ATOM      9  C   UNL     1      45.278   6.365  12.352  0.00  0.00    +0.000 A 
BRANCH   8  10
ATOM     10  C   UNL     1      47.288   7.874  12.296  0.00  0.00    +0.000 A 
ATOM     11  C   UNL     1      48.557   7.944  11.702  0.00  0.00    +0.000 A 
ATOM     12  C   UNL     1      49.147   9.182  11.448  0.00  0.00    +0.000 A 
ATOM     13  C   UNL     1      48.447  10.328  11.782  0.00  0.00    +0.000 A 
ATOM     14  F   UNL     1      49.016  11.516  11.539  0.00  0.00    +0.000 F 
ATOM     15  N   UNL     1      47.226  10.320  12.348  0.00  0.00    +0.000 NA
ATOM     16  C   UNL     1      46.687   9.103  12.590  0.00  0.00    +0.000 A 
ENDBRANCH   8  10
ENDBRANCH   1   4
BRANCH   1  17
ATOM     17  C   UNL     1      43.101   4.777  10.646  0.00  0.00    +0.000 C 
BRANCH  17  18
ATOM     18  N   UNL     1      44.343   5.137   9.946  0.00  0.00    +0.000 N 
ATOM     19  H   UNL     1      44.321   6.041   9.476  0.00  0.00    +0.000 HD
BRANCH  18  23
ATOM     20  C   UNL     1      46.464   2.107   7.928  0.00  0.00    +0.000 A 
ATOM     21  C   UNL     1      46.642   3.439   7.546  0.00  0.00    +0.000 A 
ATOM     22  C   UNL     1      45.964   4.458   8.228  0.00  0.00    +0.000 A 
ATOM     23  C   UNL     1      45.127   4.179   9.314  0.00  0.00    +0.000 A 
ATOM     24  C   UNL     1      44.965   2.837   9.686  0.00  0.00    +0.000 A 
ATOM     25  C   UNL     1      45.620   1.807   8.999  0.00  0.00    +0.000 A 
BRANCH  20  27
ATOM     26  N   UNL     1      46.762  -0.279   7.544  0.00  0.00    +0.000 N 
ATOM     27  C   UNL     1      47.092   0.994   7.176  0.00  0.00    +0.000 C 
ATOM     28  O   UNL     1      47.866   1.200   6.247  0.00  0.00    +0.000 OA
ATOM     29  H   UNL     1      47.138  -1.023   6.969  0.00  0.00    +0.000 HD
ATOM     30  H   UNL     1      45.958  -0.486   8.118  0.00  0.00    +0.000 HD
ENDBRANCH  20  27
ENDBRANCH  18  23
ENDBRANCH  17  18
ENDBRANCH   1  17
TORSDOF 6
ENDMDL
MODEL 5
REMARK VINA RESULT:    -7.712      3.066      7.709
REMARK INTER + INTRA:         -11.553
REMARK INTER:                 -10.534
REMARK INTRA:                  -1.019
REMARK UNBOUND:                -1.135
REMARK  Name = 
REMARK  6 active torsions:
REMARK  status: ('A' for Active; 'I' for Inactive)
REMARK    1  A    between atoms: C_2  and  C_4
REMARK    2  A    between atoms: C_7  and  N_8
REMARK    3  A    between atoms: N_8  and  C_9
REMARK    4  A    between atoms: C_9  and  C_10
REMARK    5  A    between atoms: C_10  and  C_13
REMARK    6  A    between atoms: C_17  and  C_18
REMARK                            x       y       z     vdW  Elec       q    Type
REMARK                         _______ _______ _______ _____ _____    ______ ____
ROOT
ATOM      1  C   UNL     1      44.673   6.305  11.908  0.00  0.00    +0.000 C 
ATOM      2  F   UNL     1      44.139   6.382  13.163  0.00  0.00    +0.000 F 
ATOM      3  F   UNL     1      44.016   7.256  11.177  0.00  0.00    +0.000 F 
ENDROOT
BRANCH   1   4
ATOM      4  C   UNL     1      44.520   4.919  11.310  0.00  0.00    +0.000 A 
ATOM      5  C   UNL     1      43.584   4.020  11.830  0.00  0.00    +0.000 A 
ATOM      6  C   UNL     1      43.414   2.769  11.246  0.00  0.00    +0.000 A 
ATOM      7  C   UNL     1      44.164   2.413  10.124  0.00  0.00    +0.000 A 
ATOM      8  C   UNL     1      45.098   3.298   9.556  0.00  0.00    +0.000 A 
ATOM      9  C   UNL     1      45.275   4.545  10.185  0.00  0.00    +0.000 A 
BRANCH   8  10
ATOM     10  C   UNL     1      45.828   2.952   8.319  0.00  0.00    +0.000 A 
ATOM     11  C   UNL     1      46.355   1.672   8.090  0.00  0.00    +0.000 A 
ATOM     12  C   UNL     1      47.075   1.406   6.927  0.00  0.00    +0.000 A 
ATOM     13  C   UNL     1      47.243   2.425   6.006  0.00  0.00    +0.000 A 
ATOM     14  F   UNL     1      47.936   2.167   4.889  0.00  0.00    +0.000 F 
ATOM     15  N   UNL     1      46.755   3.668   6.170  0.00  0.00    +0.000 NA
ATOM     16  C   UNL     1      46.070   3.896   7.314  0.00  0.00    +0.000 A 
ENDBRANCH   8  10
ENDBRANCH   1   4
BRANCH   1  17
ATOM     17  C   UNL     1      46.172   6.695  11.970  0.00  0.00    +0.000 C 
BRANCH  17  18
ATOM     18  N   UNL     1      46.644   6.935  13.342  0.00  0.00    +0.000 N 
ATOM     19  H   UNL     1      47.115   7.828  13.481  0.00  0.00    +0.000 HD
BRANCH  18  23
ATOM     20  C   UNL     1      47.939   3.921  15.986  0.00  0.00    +0.000 A 
ATOM     21  C   UNL     1      47.173   3.573  14.872  0.00  0.00    +0.000 A 
ATOM     22  C   UNL     1      46.759   4.562  13.969  0.00  0.00    +0.000 A 
ATOM     23  C   UNL     1      47.124   5.902  14.138  0.00  0.00    +0.000 A 
ATOM     24  C   UNL     1      47.898   6.232  15.260  0.00  0.00    +0.000 A 
ATOM     25  C   UNL     1      48.299   5.256  16.180  0.00  0.00    +0.000 A 
BRANCH  20  27
ATOM     26  N   UNL     1      47.623   2.923  18.185  0.00  0.00    +0.000 N 
ATOM     27  C   UNL     1      48.320   2.919  17.011  0.00  0.00    +0.000 C 
ATOM     28  O   UNL     1      49.213   2.102  16.811  0.00  0.00    +0.000 OA
ATOM     29  H   UNL     1      47.844   2.182  18.839  0.00  0.00    +0.000 HD
ATOM     30  H   UNL     1      46.738   3.397  18.288  0.00  0.00    +0.000 HD
ENDBRANCH  20  27
ENDBRANCH  18  23
ENDBRANCH  17  18
ENDBRANCH   1  17
TORSDOF 6
ENDMDL
MODEL 6
REMARK VINA RESULT:    -7.281      3.601      7.874
REMARK INTER + INTRA:         -10.969
REMARK INTER:                  -9.711
REMARK INTRA:                  -1.259
REMARK UNBOUND:                -1.135
REMARK  Name = 
REMARK  6 active torsions:
REMARK  status: ('A' for Active; 'I' for Inactive)
REMARK    1  A    between atoms: C_2  and  C_4
REMARK    2  A    between atoms: C_7  and  N_8
REMARK    3  A    between atoms: N_8  and  C_9
REMARK    4  A    between atoms: C_9  and  C_10
REMARK    5  A    between atoms: C_10  and  C_13
REMARK    6  A    between atoms: C_17  and  C_18
REMARK                            x       y       z     vdW  Elec       q    Type
REMARK                         _______ _______ _______ _____ _____    ______ ____
ROOT
ATOM      1  C   UNL     1      49.045   8.405  12.468  0.00  0.00    +0.000 C 
ATOM      2  F   UNL     1      49.453   9.520  11.792  0.00  0.00    +0.000 F 
ATOM      3  F   UNL     1      49.867   7.400  12.036  0.00  0.00    +0.000 F 
ENDROOT
BRANCH   1   4
ATOM      4  C   UNL     1      47.582   8.093  12.219  0.00  0.00    +0.000 A 
ATOM      5  C   UNL     1      46.598   9.052  12.473  0.00  0.00    +0.000 A 
ATOM      6  C   UNL     1      45.263   8.778  12.196  0.00  0.00    +0.000 A 
ATOM      7  C   UNL     1      44.902   7.549  11.643  0.00  0.00    +0.000 A 
ATOM      8  C   UNL     1      45.864   6.566  11.350  0.00  0.00    +0.000 A 
ATOM      9  C   UNL     1      47.204   6.855  11.670  0.00  0.00    +0.000 A 
BRANCH   8  10
ATOM     10  C   UNL     1      45.491   5.300  10.686  0.00  0.00    +0.000 A 
ATOM     11  C   UNL     1      45.592   5.120   9.299  0.00  0.00    +0.000 A 
ATOM     12  C   UNL     1      45.187   3.922   8.713  0.00  0.00    +0.000 A 
ATOM     13  C   UNL     1      44.700   2.918   9.532  0.00  0.00    +0.000 A 
ATOM     14  F   UNL     1      44.310   1.768   8.968  0.00  0.00    +0.000 F 
ATOM     15  N   UNL     1      44.587   3.032  10.868  0.00  0.00    +0.000 NA
ATOM     16  C   UNL     1      44.979   4.211  11.403  0.00  0.00    +0.000 A 
ENDBRANCH   8  10
ENDBRANCH   1   4
BRANCH   1  17
ATOM     17  C   UNL     1      49.295   8.613  13.985  0.00  0.00    +0.000 C 
BRANCH  17  18
ATOM     18  N   UNL     1      50.061   7.516  14.593  0.00  0.00    +0.000 N 
ATOM     19  H   UNL     1      50.769   7.103  13.988  0.00  0.00    +0.000 HD
BRANCH  18  23
ATOM     20  C   UNL     1      48.303   4.599  17.074  0.00  0.00    +0.000 A 
ATOM     21  C   UNL     1      49.525   5.166  17.442  0.00  0.00    +0.000 A 
ATOM     22  C   UNL     1      50.107   6.157  16.641  0.00  0.00    +0.000 A 
ATOM     23  C   UNL     1      49.474   6.623  15.483  0.00  0.00    +0.000 A 
ATOM     24  C   UNL     1      48.245   6.046  15.132  0.00  0.00    +0.000 A 
ATOM     25  C   UNL     1      47.665   5.039  15.913  0.00  0.00    +0.000 A 
BRANCH  20  27
ATOM     26  N   UNL     1      48.292   3.146  19.029  0.00  0.00    +0.000 N 
ATOM     27  C   UNL     1      47.700   3.486  17.846  0.00  0.00    +0.000 C 
ATOM     28  O   UNL     1      46.696   2.900  17.454  0.00  0.00    +0.000 OA
ATOM     29  H   UNL     1      47.821   2.438  19.579  0.00  0.00    +0.000 HD
ATOM     30  H   UNL     1      48.949   3.751  19.499  0.00  0.00    +0.000 HD
ENDBRANCH  20  27
ENDBRANCH  18  23
ENDBRANCH  17  18
ENDBRANCH   1  17
TORSDOF 6
ENDMDL
MODEL 7
REMARK VINA RESULT:    -7.240      3.648      8.477
REMARK INTER + INTRA:         -10.915
REMARK INTER:                 -10.250
REMARK INTRA:                  -0.665
REMARK UNBOUND:                -1.135
REMARK  Name = 
REMARK  6 active torsions:
REMARK  status: ('A' for Active; 'I' for Inactive)
REMARK    1  A    between atoms: C_2  and  C_4
REMARK    2  A    between atoms: C_7  and  N_8
REMARK    3  A    between atoms: N_8  and  C_9
REMARK    4  A    between atoms: C_9  and  C_10
REMARK    5  A    between atoms: C_10  and  C_13
REMARK    6  A    between atoms: C_17  and  C_18
REMARK                            x       y       z     vdW  Elec       q    Type
REMARK                         _______ _______ _______ _____ _____    ______ ____
ROOT
ATOM      1  C   UNL     1      45.291   5.339  12.842  0.00  0.00    +0.000 C 
ATOM      2  F   UNL     1      44.224   5.992  13.392  0.00  0.00    +0.000 F 
ATOM      3  F   UNL     1      45.995   6.300  12.168  0.00  0.00    +0.000 F 
ENDROOT
BRANCH   1   4
ATOM      4  C   UNL     1      44.857   4.206  11.932  0.00  0.00    +0.000 A 
ATOM      5  C   UNL     1      43.738   3.430  12.249  0.00  0.00    +0.000 A 
ATOM      6  C   UNL     1      43.315   2.424  11.386  0.00  0.00    +0.000 A 
ATOM      7  C   UNL     1      43.995   2.199  10.188  0.00  0.00    +0.000 A 
ATOM      8  C   UNL     1      45.110   2.974   9.821  0.00  0.00    +0.000 A 
ATOM      9  C   UNL     1      45.538   3.963  10.727  0.00  0.00    +0.000 A 
BRANCH   8  10
ATOM     10  C   UNL     1      45.776   2.791   8.515  0.00  0.00    +0.000 A 
ATOM     11  C   UNL     1      46.307   1.557   8.109  0.00  0.00    +0.000 A 
ATOM     12  C   UNL     1      46.965   1.444   6.886  0.00  0.00    +0.000 A 
ATOM     13  C   UNL     1      47.068   2.567   6.084  0.00  0.00    +0.000 A 
ATOM     14  F   UNL     1      47.702   2.456   4.909  0.00  0.00    +0.000 F 
ATOM     15  N   UNL     1      46.573   3.772   6.419  0.00  0.00    +0.000 NA
ATOM     16  C   UNL     1      45.949   3.850   7.617  0.00  0.00    +0.000 A 
ENDBRANCH   8  10
ENDBRANCH   1   4
BRANCH   1  17
ATOM     17  C   UNL     1      46.191   4.792  13.981  0.00  0.00    +0.000 C 
BRANCH  17  18
ATOM     18  N   UNL     1      47.168   5.781  14.461  0.00  0.00    +0.000 N 
ATOM     19  H   UNL     1      47.617   6.328  13.728  0.00  0.00    +0.000 HD
BRANCH  18  23
ATOM     20  C   UNL     1      49.715   4.784  17.666  0.00  0.00    +0.000 A 
ATOM     21  C   UNL     1      49.904   5.991  16.991  0.00  0.00    +0.000 A 
ATOM     22  C   UNL     1      49.046   6.348  15.942  0.00  0.00    +0.000 A 
ATOM     23  C   UNL     1      47.973   5.532  15.567  0.00  0.00    +0.000 A 
ATOM     24  C   UNL     1      47.796   4.325  16.260  0.00  0.00    +0.000 A 
ATOM     25  C   UNL     1      48.659   3.948  17.296  0.00  0.00    +0.000 A 
BRANCH  20  27
ATOM     26  N   UNL     1      51.503   3.307  18.410  0.00  0.00    +0.000 N 
ATOM     27  C   UNL     1      50.653   4.329  18.721  0.00  0.00    +0.000 C 
ATOM     28  O   UNL     1      50.683   4.858  19.827  0.00  0.00    +0.000 OA
ATOM     29  H   UNL     1      52.189   3.064  19.114  0.00  0.00    +0.000 HD
ATOM     30  H   UNL     1      51.682   3.022  17.458  0.00  0.00    +0.000 HD
ENDBRANCH  20  27
ENDBRANCH  18  23
ENDBRANCH  17  18
ENDBRANCH   1  17
TORSDOF 6
ENDMDL
MODEL 8
REMARK VINA RESULT:    -6.682      3.157      4.545
REMARK INTER + INTRA:         -10.161
REMARK INTER:                  -8.892
REMARK INTRA:                  -1.269
REMARK UNBOUND:                -1.135
REMARK  Name = 
REMARK  6 active torsions:
REMARK  status: ('A' for Active; 'I' for Inactive)
REMARK    1  A    between atoms: C_2  and  C_4
REMARK    2  A    between atoms: C_7  and  N_8
REMARK    3  A    between atoms: N_8  and  C_9
REMARK    4  A    between atoms: C_9  and  C_10
REMARK    5  A    between atoms: C_10  and  C_13
REMARK    6  A    between atoms: C_17  and  C_18
REMARK                            x       y       z     vdW  Elec       q    Type
REMARK                         _______ _______ _______ _____ _____    ______ ____
ROOT
ATOM      1  C   UNL     1      48.139   8.188  12.264  0.00  0.00    +0.000 C 
ATOM      2  F   UNL     1      48.220   6.952  11.688  0.00  0.00    +0.000 F 
ATOM      3  F   UNL     1      48.882   9.010  11.462  0.00  0.00    +0.000 F 
ENDROOT
BRANCH   1   4
ATOM      4  C   UNL     1      48.639   8.182  13.696  0.00  0.00    +0.000 A 
ATOM      5  C   UNL     1      49.139   9.350  14.279  0.00  0.00    +0.000 A 
ATOM      6  C   UNL     1      49.550   9.350  15.608  0.00  0.00    +0.000 A 
ATOM      7  C   UNL     1      49.447   8.187  16.372  0.00  0.00    +0.000 A 
ATOM      8  C   UNL     1      48.928   6.997  15.830  0.00  0.00    +0.000 A 
ATOM      9  C   UNL     1      48.549   7.014  14.474  0.00  0.00    +0.000 A 
BRANCH   8  10
ATOM     10  C   UNL     1      48.740   5.792  16.663  0.00  0.00    +0.000 A 
ATOM     11  C   UNL     1      47.838   4.774  16.320  0.00  0.00    +0.000 A 
ATOM     12  C   UNL     1      47.663   3.676  17.160  0.00  0.00    +0.000 A 
ATOM     13  C   UNL     1      48.408   3.610  18.324  0.00  0.00    +0.000 A 
ATOM     14  F   UNL     1      48.239   2.554  19.131  0.00  0.00    +0.000 F 
ATOM     15  N   UNL     1      49.292   4.552  18.700  0.00  0.00    +0.000 NA
ATOM     16  C   UNL     1      49.429   5.609  17.868  0.00  0.00    +0.000 A 
ENDBRANCH   8  10
ENDBRANCH   1   4
BRANCH   1  17
ATOM     17  C   UNL     1      46.666   8.673  12.218  0.00  0.00    +0.000 C 
BRANCH  17  18
ATOM     18  N   UNL     1      45.783   7.903  13.106  0.00  0.00    +0.000 N 
ATOM     19  H   UNL     1      45.998   7.987  14.099  0.00  0.00    +0.000 HD
BRANCH  18  23
ATOM     20  C   UNL     1      44.375   4.187  11.706  0.00  0.00    +0.000 A 
ATOM     21  C   UNL     1      45.196   4.228  12.835  0.00  0.00    +0.000 A 
ATOM     22  C   UNL     1      45.648   5.459  13.327  0.00  0.00    +0.000 A 
ATOM     23  C   UNL     1      45.269   6.667  12.731  0.00  0.00    +0.000 A 
ATOM     24  C   UNL     1      44.440   6.606  11.601  0.00  0.00    +0.000 A 
ATOM     25  C   UNL     1      44.000   5.381  11.087  0.00  0.00    +0.000 A 
BRANCH  20  27
ATOM     26  N   UNL     1      44.730   2.383  10.109  0.00  0.00    +0.000 N 
ATOM     27  C   UNL     1      43.949   2.901  11.102  0.00  0.00    +0.000 C 
ATOM     28  O   UNL     1      42.946   2.310  11.487  0.00  0.00    +0.000 OA
ATOM     29  H   UNL     1      44.468   1.468   9.764  0.00  0.00    +0.000 HD
ATOM     30  H   UNL     1      45.675   2.699   9.942  0.00  0.00    +0.000 HD
ENDBRANCH  20  27
ENDBRANCH  18  23
ENDBRANCH  17  18
ENDBRANCH   1  17
TORSDOF 6
ENDMDL
MODEL 9
REMARK VINA RESULT:    -6.616      3.559      5.723
REMARK INTER + INTRA:         -10.072
REMARK INTER:                  -9.187
REMARK INTRA:                  -0.885
REMARK UNBOUND:                -1.135
REMARK  Name = 
REMARK  6 active torsions:
REMARK  status: ('A' for Active; 'I' for Inactive)
REMARK    1  A    between atoms: C_2  and  C_4
REMARK    2  A    between atoms: C_7  and  N_8
REMARK    3  A    between atoms: N_8  and  C_9
REMARK    4  A    between atoms: C_9  and  C_10
REMARK    5  A    between atoms: C_10  and  C_13
REMARK    6  A    between atoms: C_17  and  C_18
REMARK                            x       y       z     vdW  Elec       q    Type
REMARK                         _______ _______ _______ _____ _____    ______ ____
ROOT
ATOM      1  C   UNL     1      49.068   7.579  15.668  0.00  0.00    +0.000 C 
ATOM      2  F   UNL     1      50.299   8.166  15.588  0.00  0.00    +0.000 F 
ATOM      3  F   UNL     1      48.193   8.606  15.896  0.00  0.00    +0.000 F 
ENDROOT
BRANCH   1   4
ATOM      4  C   UNL     1      49.009   6.526  16.757  0.00  0.00    +0.000 A 
ATOM      5  C   UNL     1      47.975   6.534  17.698  0.00  0.00    +0.000 A 
ATOM      6  C   UNL     1      47.899   5.537  18.664  0.00  0.00    +0.000 A 
ATOM      7  C   UNL     1      48.844   4.511  18.687  0.00  0.00    +0.000 A 
ATOM      8  C   UNL     1      49.886   4.452  17.743  0.00  0.00    +0.000 A 
ATOM      9  C   UNL     1      49.960   5.491  16.796  0.00  0.00    +0.000 A 
BRANCH   8  10
ATOM     10  C   UNL     1      50.834   3.321  17.716  0.00  0.00    +0.000 A 
ATOM     11  C   UNL     1      52.171   3.451  18.119  0.00  0.00    +0.000 A 
ATOM     12  C   UNL     1      53.041   2.365  18.034  0.00  0.00    +0.000 A 
ATOM     13  C   UNL     1      52.550   1.162  17.559  0.00  0.00    +0.000 A 
ATOM     14  F   UNL     1      53.387   0.119  17.476  0.00  0.00    +0.000 F 
ATOM     15  N   UNL     1      51.277   0.977  17.164  0.00  0.00    +0.000 NA
ATOM     16  C   UNL     1      50.463   2.054  17.250  0.00  0.00    +0.000 A 
ENDBRANCH   8  10
ENDBRANCH   1   4
BRANCH   1  17
ATOM     17  C   UNL     1      48.720   6.946  14.295  0.00  0.00    +0.000 C 
BRANCH  17  18
ATOM     18  N   UNL     1      47.288   7.033  13.972  0.00  0.00    +0.000 N 
ATOM     19  H   UNL     1      46.703   7.398  14.723  0.00  0.00    +0.000 HD
BRANCH  18  23
ATOM     20  C   UNL     1      45.157   4.190  11.708  0.00  0.00    +0.000 A 
ATOM     21  C   UNL     1      45.511   5.408  11.122  0.00  0.00    +0.000 A 
ATOM     22  C   UNL     1      46.244   6.350  11.855  0.00  0.00    +0.000 A 
ATOM     23  C   UNL     1      46.664   6.090  13.164  0.00  0.00    +0.000 A 
ATOM     24  C   UNL     1      46.304   4.861  13.734  0.00  0.00    +0.000 A 
ATOM     25  C   UNL     1      45.553   3.920  13.019  0.00  0.00    +0.000 A 
BRANCH  20  27
ATOM     26  N   UNL     1      44.909   2.409  10.065  0.00  0.00    +0.000 N 
ATOM     27  C   UNL     1      44.307   3.205  10.997  0.00  0.00    +0.000 C 
ATOM     28  O   UNL     1      43.111   3.090  11.245  0.00  0.00    +0.000 OA
ATOM     29  H   UNL     1      44.331   1.690   9.649  0.00  0.00    +0.000 HD
ATOM     30  H   UNL     1      45.912   2.299  10.014  0.00  0.00    +0.000 HD
ENDBRANCH  20  27
ENDBRANCH  18  23
ENDBRANCH  17  18
ENDBRANCH   1  17
TORSDOF 6
ENDMDL
