MODEL 1
REMARK VINA RESULT:    -7.755      0.000      0.000
REMARK INTER + INTRA:         -10.241
REMARK INTER:                  -9.568
REMARK INTRA:                  -0.673
REMARK UNBOUND:                -0.673
REMARK  Name = 
REMARK  4 active torsions:
REMARK  status: ('A' for Active; 'I' for Inactive)
REMARK    1  A    between atoms: C_2  and  C_4
REMARK    2  A    between atoms: C_7  and  N_8
REMARK    3  A    between atoms: N_8  and  C_9
REMARK    4  A    between atoms: C_9  and  C_10
REMARK                            x       y       z     vdW  Elec       q    Type
REMARK                         _______ _______ _______ _____ _____    ______ ____
ROOT
ATOM      1  C   UNL     1      46.255   2.149   7.879  0.00  0.00    +0.000 A 
ATOM      2  C   UNL     1      45.269   1.704   8.763  0.00  0.00    +0.000 A 
ATOM      3  C   UNL     1      44.431   2.629   9.402  0.00  0.00    +0.000 A 
ATOM      4  C   UNL     1      44.568   4.003   9.177  0.00  0.00    +0.000 A 
ATOM      5  C   UNL     1      45.513   4.428   8.236  0.00  0.00    +0.000 A 
ATOM      6  C   UNL     1      46.368   3.517   7.608  0.00  0.00    +0.000 A 
ENDROOT
BRANCH   1   8
ATOM      7  N   UNL     1      48.363   1.772   6.711  0.00  0.00    +0.000 N 
ATOM      8  C   UNL     1      47.238   1.223   7.261  0.00  0.00    +0.000 C 
ATOM      9  O   UNL     1      47.070   0.010   7.263  0.00  0.00    +0.000 OA
ATOM     10  H   UNL     1      49.060   1.118   6.376  0.00  0.00    +0.000 HD
ATOM     11  H   UNL     1      48.657   2.718   6.903  0.00  0.00    +0.000 HD
ENDBRANCH   1   8
BRANCH   4  12
ATOM     12  N   UNL     1      43.842   4.978   9.852  0.00  0.00    +0.000 N 
ATOM     13  H   UNL     1      42.945   5.183   9.418  0.00  0.00    +0.000 HD
BRANCH  12  14
ATOM     14  C   UNL     1      43.810   4.988  11.307  0.00  0.00    +0.000 C 
BRANCH  14  15
ATOM     15  C   UNL     1      45.177   5.328  11.849  0.00  0.00    +0.000 A 
ATOM     16  C   UNL     1      45.877   6.453  11.391  0.00  0.00    +0.000 A 
ATOM     17  C   UNL     1      47.105   6.800  11.959  0.00  0.00    +0.000 A 
ATOM     18  C   UNL     1      47.646   6.031  12.988  0.00  0.00    +0.000 A 
ATOM     19  C   UNL     1      46.966   4.906  13.447  0.00  0.00    +0.000 A 
ATOM     20  C   UNL     1      45.740   4.557  12.880  0.00  0.00    +0.000 A 
ENDBRANCH  14  15
ENDBRANCH  12  14
ENDBRANCH   4  12
TORSDOF 4
ENDMDL
MODEL 2
REMARK VINA RESULT:    -7.639      2.715      5.807
REMARK INTER + INTRA:         -10.099
REMARK INTER:                  -9.607
REMARK INTRA:                  -0.491
REMARK UNBOUND:                -0.673
REMARK  Name = 
REMARK  4 active torsions:
REMARK  status: ('A' for Active; 'I' for Inactive)
REMARK    1  A    between atoms: C_2  and  C_4
REMARK    2  A    between atoms: C_7  and  N_8
REMARK    3  A    between atoms: N_8  and  C_9
REMARK    4  A    between atoms: C_9  and  C_10
REMARK                            x       y       z     vdW  Elec       q    Type
REMARK                         _______ _______ _______ _____ _____    ______ ____
ROOT
ATOM      1  C   UNL     1      46.472   4.546  13.300  0.00  0.00    +0.000 A 
ATOM      2  C   UNL     1      46.762   5.735  12.624  0.00  0.00    +0.000 A 
ATOM      3  C   UNL     1      46.226   5.966  11.350  0.00  0.00    +0.000 A 
ATOM      4  C   UNL     1      45.406   5.017  10.729  0.00  0.00    +0.000 A 
ATOM      5  C   UNL     1      45.068   3.864  11.447  0.00  0.00    +0.000 A 
ATOM      6  C   UNL     1      45.612   3.614  12.710  0.00  0.00    +0.000 A 
ENDROOT
BRANCH   1   8
ATOM      7  N   UNL     1      47.129   5.179  15.562  0.00  0.00    +0.000 N 
ATOM      8  C   UNL     1      47.098   4.205  14.602  0.00  0.00    +0.000 C 
ATOM      9  O   UNL     1      47.549   3.089  14.828  0.00  0.00    +0.000 OA
ATOM     10  H   UNL     1      47.478   4.898  16.470  0.00  0.00    +0.000 HD
ATOM     11  H   UNL     1      46.561   6.011  15.511  0.00  0.00    +0.000 HD
ENDBRANCH   1   8
BRANCH   4  12
ATOM     12  N   UNL     1      44.927   5.136   9.429  0.00  0.00    +0.000 N 
ATOM     13  H   UNL     1      45.528   5.695   8.829  0.00  0.00    +0.000 HD
BRANCH  12  14
ATOM     14  C   UNL     1      44.332   3.987   8.763  0.00  0.00    +0.000 C 
BRANCH  14  15
ATOM     15  C   UNL     1      45.409   3.161   8.102  0.00  0.00    +0.000 A 
ATOM     16  C   UNL     1      46.285   3.731   7.168  0.00  0.00    +0.000 A 
ATOM     17  C   UNL     1      47.327   2.975   6.625  0.00  0.00    +0.000 A 
ATOM     18  C   UNL     1      47.505   1.647   7.008  0.00  0.00    +0.000 A 
ATOM     19  C   UNL     1      46.637   1.064   7.927  0.00  0.00    +0.000 A 
ATOM     20  C   UNL     1      45.594   1.817   8.470  0.00  0.00    +0.000 A 
ENDBRANCH  14  15
ENDBRANCH  12  14
ENDBRANCH   4  12
TORSDOF 4
ENDMDL
MODEL 3
REMARK VINA RESULT:    -6.539      3.175      6.305
REMARK INTER + INTRA:          -8.741
REMARK INTER:                  -8.372
REMARK INTRA:                  -0.369
REMARK UNBOUND:                -0.673
REMARK  Name = 
REMARK  4 active torsions:
REMARK  status: ('A' for Active; 'I' for Inactive)
REMARK    1  A    between atoms: C_2  and  C_4
REMARK    2  A    between atoms: C_7  and  N_8
REMARK    3  A    between atoms: N_8  and  C_9
REMARK    4  A    between atoms: C_9  and  C_10
REMARK                            x       y       z     vdW  Elec       q    Type
REMARK                         _______ _______ _______ _____ _____    ______ ____
ROOT
ATOM      1  C   UNL     1      45.085   6.785  12.140  0.00  0.00    +0.000 A 
ATOM      2  C   UNL     1      43.822   6.815  11.541  0.00  0.00    +0.000 A 
ATOM      3  C   UNL     1      43.402   5.745  10.740  0.00  0.00    +0.000 A 
ATOM      4  C   UNL     1      44.230   4.639  10.518  0.00  0.00    +0.000 A 
ATOM      5  C   UNL     1      45.461   4.592  11.182  0.00  0.00    +0.000 A 
ATOM      6  C   UNL     1      45.900   5.663  11.967  0.00  0.00    +0.000 A 
ENDROOT
BRANCH   1   8
ATOM      7  N   UNL     1      46.702   7.710  13.714  0.00  0.00    +0.000 N 
ATOM      8  C   UNL     1      45.622   7.938  12.907  0.00  0.00    +0.000 C 
ATOM      9  O   UNL     1      45.141   9.060  12.807  0.00  0.00    +0.000 OA
ATOM     10  H   UNL     1      47.107   8.526  14.157  0.00  0.00    +0.000 HD
ATOM     11  H   UNL     1      47.273   6.882  13.639  0.00  0.00    +0.000 HD
ENDBRANCH   1   8
BRANCH   4  12
ATOM     12  N   UNL     1      43.918   3.594   9.656  0.00  0.00    +0.000 N 
ATOM     13  H   UNL     1      43.643   3.907   8.729  0.00  0.00    +0.000 HD
BRANCH  12  14
ATOM     14  C   UNL     1      44.724   2.382   9.655  0.00  0.00    +0.000 C 
BRANCH  14  15
ATOM     15  C   UNL     1      45.638   2.374   8.454  0.00  0.00    +0.000 A 
ATOM     16  C   UNL     1      46.364   1.227   8.105  0.00  0.00    +0.000 A 
ATOM     17  C   UNL     1      47.143   1.208   6.946  0.00  0.00    +0.000 A 
ATOM     18  C   UNL     1      47.204   2.332   6.123  0.00  0.00    +0.000 A 
ATOM     19  C   UNL     1      46.496   3.482   6.461  0.00  0.00    +0.000 A 
ATOM     20  C   UNL     1      45.718   3.502   7.619  0.00  0.00    +0.000 A 
ENDBRANCH  14  15
ENDBRANCH  12  14
ENDBRANCH   4  12
TORSDOF 4
ENDMDL
MODEL 4
REMARK VINA RESULT:    -6.451      3.043      6.222
REMARK INTER + INTRA:          -8.633
REMARK INTER:                  -8.102
REMARK INTRA:                  -0.530
REMARK UNBOUND:                -0.673
REMARK  Name = 
REMARK  4 active torsions:
REMARK  status: ('A' for Active; 'I' for Inactive)
REMARK    1  A    between atoms: C_2  and  C_4
REMARK    2  A    between atoms: C_7  and  N_8
REMARK    3  A    between atoms: N_8  and  C_9
REMARK    4  A    between atoms: C_9  and  C_10
REMARK                            x       y       z     vdW  Elec       q    Type
REMARK                         _______ _______ _______ _____ _____    ______ ____
ROOT
ATOM      1  C   UNL     1      47.196   6.323  13.295  0.00  0.00    +0.000 A 
ATOM      2  C   UNL     1      46.481   6.762  12.177  0.00  0.00    +0.000 A 
ATOM      3  C   UNL     1      45.531   5.923  11.579  0.00  0.00    +0.000 A 
ATOM      4  C   UNL     1      45.287   4.639  12.077  0.00  0.00    +0.000 A 
ATOM      5  C   UNL     1      45.959   4.241  13.239  0.00  0.00    +0.000 A 
ATOM      6  C   UNL     1      46.924   5.061  13.832  0.00  0.00    +0.000 A 
ENDROOT
BRANCH   1   8
ATOM      7  N   UNL     1      47.938   8.276  14.554  0.00  0.00    +0.000 N 
ATOM      8  C   UNL     1      48.288   7.128  13.900  0.00  0.00    +0.000 C 
ATOM      9  O   UNL     1      49.459   6.772  13.843  0.00  0.00    +0.000 OA
ATOM     10  H   UNL     1      48.686   8.761  15.035  0.00  0.00    +0.000 HD
ATOM     11  H   UNL     1      46.990   8.474  14.836  0.00  0.00    +0.000 HD
ENDBRANCH   1   8
BRANCH   4  12
ATOM     12  N   UNL     1      44.436   3.719  11.474  0.00  0.00    +0.000 N 
ATOM     13  H   UNL     1      43.722   3.360  12.103  0.00  0.00    +0.000 HD
BRANCH  12  14
ATOM     14  C   UNL     1      43.966   3.942  10.115  0.00  0.00    +0.000 C 
BRANCH  14  15
ATOM     15  C   UNL     1      44.955   3.370   9.129  0.00  0.00    +0.000 A 
ATOM     16  C   UNL     1      45.334   2.022   9.184  0.00  0.00    +0.000 A 
ATOM     17  C   UNL     1      46.189   1.488   8.216  0.00  0.00    +0.000 A 
ATOM     18  C   UNL     1      46.672   2.292   7.185  0.00  0.00    +0.000 A 
ATOM     19  C   UNL     1      46.311   3.636   7.122  0.00  0.00    +0.000 A 
ATOM     20  C   UNL     1      45.459   4.171   8.089  0.00  0.00    +0.000 A 
ENDBRANCH  14  15
ENDBRANCH  12  14
ENDBRANCH   4  12
TORSDOF 4
ENDMDL
MODEL 5
REMARK VINA RESULT:    -5.737      3.883      5.953
REMARK INTER + INTRA:          -7.752
REMARK INTER:                  -7.358
REMARK INTRA:                  -0.394
REMARK UNBOUND:                -0.673
REMARK  Name = 
REMARK  4 active torsions:
REMARK  status: ('A' for Active; 'I' for Inactive)
REMARK    1  A    between atoms: C_2  and  C_4
REMARK    2  A    between atoms: C_7  and  N_8
REMARK    3  A    between atoms: N_8  and  C_9
REMARK    4  A    between atoms: C_9  and  C_10
REMARK                            x       y       z     vdW  Elec       q    Type
REMARK                         _______ _______ _______ _____ _____    ______ ____
ROOT
ATOM      1  C   UNL     1      44.943   4.329  11.843  0.00  0.00    +0.000 A 
ATOM      2  C   UNL     1      45.096   5.656  12.256  0.00  0.00    +0.000 A 
ATOM      3  C   UNL     1      45.943   5.962  13.329  0.00  0.00    +0.000 A 
ATOM      4  C   UNL     1      46.640   4.957  14.010  0.00  0.00    +0.000 A 
ATOM      5  C   UNL     1      46.531   3.643  13.540  0.00  0.00    +0.000 A 
ATOM      6  C   UNL     1      45.674   3.323  12.483  0.00  0.00    +0.000 A 
ENDROOT
BRANCH   1   8
ATOM      7  N   UNL     1      44.064   4.583   9.582  0.00  0.00    +0.000 N 
ATOM      8  C   UNL     1      43.978   3.937  10.785  0.00  0.00    +0.000 C 
ATOM      9  O   UNL     1      43.150   3.053  10.963  0.00  0.00    +0.000 OA
ATOM     10  H   UNL     1      43.458   4.239   8.848  0.00  0.00    +0.000 HD
ATOM     11  H   UNL     1      44.870   5.127   9.313  0.00  0.00    +0.000 HD
ENDBRANCH   1   8
BRANCH   4  12
ATOM     12  N   UNL     1      47.414   5.178  15.144  0.00  0.00    +0.000 N 
ATOM     13  H   UNL     1      47.559   6.165  15.344  0.00  0.00    +0.000 HD
BRANCH  12  14
ATOM     14  C   UNL     1      47.222   4.357  16.330  0.00  0.00    +0.000 C 
BRANCH  14  15
ATOM     15  C   UNL     1      48.554   3.838  16.816  0.00  0.00    +0.000 A 
ATOM     16  C   UNL     1      48.874   2.476  16.728  0.00  0.00    +0.000 A 
ATOM     17  C   UNL     1      50.140   2.022  17.108  0.00  0.00    +0.000 A 
ATOM     18  C   UNL     1      51.097   2.920  17.575  0.00  0.00    +0.000 A 
ATOM     19  C   UNL     1      50.791   4.275  17.676  0.00  0.00    +0.000 A 
ATOM     20  C   UNL     1      49.526   4.730  17.299  0.00  0.00    +0.000 A 
ENDBRANCH  14  15
ENDBRANCH  12  14
ENDBRANCH   4  12
TORSDOF 4
ENDMDL
MODEL 6
REMARK VINA RESULT:    -5.151      5.732      8.068
REMARK INTER + INTRA:          -7.029
REMARK INTER:                  -6.598
REMARK INTRA:                  -0.431
REMARK UNBOUND:                -0.673
REMARK  Name = 
REMARK  4 active torsions:
REMARK  status: ('A' for Active; 'I' for Inactive)
REMARK    1  A    between atoms: C_2  and  C_4
REMARK    2  A    between atoms: C_7  and  N_8
REMARK    3  A    between atoms: N_8  and  C_9
REMARK    4  A    between atoms: C_9  and  C_10
REMARK                            x       y       z     vdW  Elec       q    Type
REMARK                         _______ _______ _______ _____ _____    ______ ____
ROOT
ATOM      1  C   UNL     1      50.805   2.500  17.457  0.00  0.00    +0.000 A 
ATOM      2  C   UNL     1      50.850   3.880  17.675  0.00  0.00    +0.000 A 
ATOM      3  C   UNL     1      49.762   4.682  17.306  0.00  0.00    +0.000 A 
ATOM      4  C   UNL     1      48.624   4.128  16.709  0.00  0.00    +0.000 A 
ATOM      5  C   UNL     1      48.566   2.737  16.562  0.00  0.00    +0.000 A 
ATOM      6  C   UNL     1      49.653   1.928  16.908  0.00  0.00    +0.000 A 
ENDROOT
BRANCH   1   8
ATOM      7  N   UNL     1      51.714   0.318  18.060  0.00  0.00    +0.000 N 
ATOM      8  C   UNL     1      51.971   1.620  17.728  0.00  0.00    +0.000 C 
ATOM      9  O   UNL     1      53.122   2.027  17.635  0.00  0.00    +0.000 OA
ATOM     10  H   UNL     1      52.523  -0.285  18.152  0.00  0.00    +0.000 HD
ATOM     11  H   UNL     1      50.816  -0.115  17.907  0.00  0.00    +0.000 HD
ENDBRANCH   1   8
BRANCH   4  12
ATOM     12  N   UNL     1      47.556   4.876  16.227  0.00  0.00    +0.000 N 
ATOM     13  H   UNL     1      47.739   5.876  16.215  0.00  0.00    +0.000 HD
BRANCH  12  14
ATOM     14  C   UNL     1      46.791   4.402  15.083  0.00  0.00    +0.000 C 
BRANCH  14  15
ATOM     15  C   UNL     1      46.941   5.365  13.930  0.00  0.00    +0.000 A 
ATOM     16  C   UNL     1      47.996   6.287  13.891  0.00  0.00    +0.000 A 
ATOM     17  C   UNL     1      48.168   7.117  12.780  0.00  0.00    +0.000 A 
ATOM     18  C   UNL     1      47.294   7.033  11.699  0.00  0.00    +0.000 A 
ATOM     19  C   UNL     1      46.236   6.128  11.726  0.00  0.00    +0.000 A 
ATOM     20  C   UNL     1      46.061   5.300  12.836  0.00  0.00    +0.000 A 
ENDBRANCH  14  15
ENDBRANCH  12  14
ENDBRANCH   4  12
TORSDOF 4
ENDMDL
MODEL 7
REMARK VINA RESULT:    -5.066      3.050      5.114
REMARK INTER + INTRA:          -6.923
REMARK INTER:                  -6.487
REMARK INTRA:                  -0.436
REMARK UNBOUND:                -0.673
REMARK  Name = 
REMARK  4 active torsions:
REMARK  status: ('A' for Active; 'I' for Inactive)
REMARK    1  A    between atoms: C_2  and  C_4
REMARK    2  A    between atoms: C_7  and  N_8
REMARK    3  A    between atoms: N_8  and  C_9
REMARK    4  A    between atoms: C_9  and  C_10
REMARK                            x       y       z     vdW  Elec       q    Type
REMARK                         _______ _______ _______ _____ _____    ______ ____
ROOT
ATOM      1  C   UNL     1      44.710   4.715  11.453  0.00  0.00    +0.000 A 
ATOM      2  C   UNL     1      45.455   4.100  12.464  0.00  0.00    +0.000 A 
ATOM      3  C   UNL     1      46.220   4.878  13.342  0.00  0.00    +0.000 A 
ATOM      4  C   UNL     1      46.263   6.272  13.223  0.00  0.00    +0.000 A 
ATOM      5  C   UNL     1      45.457   6.877  12.251  0.00  0.00    +0.000 A 
ATOM      6  C   UNL     1      44.705   6.110  11.357  0.00  0.00    +0.000 A 
ENDROOT
BRANCH   1   8
ATOM      7  N   UNL     1      43.987   4.399   9.145  0.00  0.00    +0.000 N 
ATOM      8  C   UNL     1      43.970   3.933  10.431  0.00  0.00    +0.000 C 
ATOM      9  O   UNL     1      43.385   2.894  10.712  0.00  0.00    +0.000 OA
ATOM     10  H   UNL     1      43.554   3.803   8.450  0.00  0.00    +0.000 HD
ATOM     11  H   UNL     1      44.646   5.093   8.827  0.00  0.00    +0.000 HD
ENDBRANCH   1   8
BRANCH   4  12
ATOM     12  N   UNL     1      47.079   7.094  13.992  0.00  0.00    +0.000 N 
ATOM     13  H   UNL     1      46.576   7.582  14.729  0.00  0.00    +0.000 HD
BRANCH  12  14
ATOM     14  C   UNL     1      48.408   6.647  14.381  0.00  0.00    +0.000 C 
BRANCH  14  15
ATOM     15  C   UNL     1      49.452   7.360  13.556  0.00  0.00    +0.000 A 
ATOM     16  C   UNL     1      50.513   8.043  14.167  0.00  0.00    +0.000 A 
ATOM     17  C   UNL     1      51.515   8.629  13.390  0.00  0.00    +0.000 A 
ATOM     18  C   UNL     1      51.470   8.539  12.000  0.00  0.00    +0.000 A 
ATOM     19  C   UNL     1      50.418   7.872  11.379  0.00  0.00    +0.000 A 
ATOM     20  C   UNL     1      49.415   7.286  12.153  0.00  0.00    +0.000 A 
ENDBRANCH  14  15
ENDBRANCH  12  14
ENDBRANCH   4  12
TORSDOF 4
ENDMDL
MODEL 8
REMARK VINA RESULT:    -5.063      2.269      3.417
REMARK INTER + INTRA:          -6.919
REMARK INTER:                  -6.307
REMARK INTRA:                  -0.613
REMARK UNBOUND:                -0.673
REMARK  Name = 
REMARK  4 active torsions:
REMARK  status: ('A' for Active; 'I' for Inactive)
REMARK    1  A    between atoms: C_2  and  C_4
REMARK    2  A    between atoms: C_7  and  N_8
REMARK    3  A    between atoms: N_8  and  C_9
REMARK    4  A    between atoms: C_9  and  C_10
REMARK                            x       y       z     vdW  Elec       q    Type
REMARK                         _______ _______ _______ _____ _____    ______ ____
ROOT
ATOM      1  C   UNL     1      44.926   3.689  10.310  0.00  0.00    +0.000 A 
ATOM      2  C   UNL     1      45.047   3.336  11.658  0.00  0.00    +0.000 A 
ATOM      3  C   UNL     1      45.013   4.327  12.647  0.00  0.00    +0.000 A 
ATOM      4  C   UNL     1      44.869   5.678  12.313  0.00  0.00    +0.000 A 
ATOM      5  C   UNL     1      44.679   6.008  10.966  0.00  0.00    +0.000 A 
ATOM      6  C   UNL     1      44.730   5.030   9.968  0.00  0.00    +0.000 A 
ENDROOT
BRANCH   1   8
ATOM      7  N   UNL     1      44.413   1.499   9.366  0.00  0.00    +0.000 N 
ATOM      8  C   UNL     1      45.064   2.693   9.218  0.00  0.00    +0.000 C 
ATOM      9  O   UNL     1      45.710   2.931   8.205  0.00  0.00    +0.000 OA
ATOM     10  H   UNL     1      44.446   0.872   8.572  0.00  0.00    +0.000 HD
ATOM     11  H   UNL     1      43.684   1.358  10.049  0.00  0.00    +0.000 HD
ENDBRANCH   1   8
BRANCH   4  12
ATOM     12  N   UNL     1      44.931   6.718  13.233  0.00  0.00    +0.000 N 
ATOM     13  H   UNL     1      45.126   6.405  14.180  0.00  0.00    +0.000 HD
BRANCH  12  14
ATOM     14  C   UNL     1      45.584   7.969  12.878  0.00  0.00    +0.000 C 
BRANCH  14  15
ATOM     15  C   UNL     1      47.080   7.773  12.833  0.00  0.00    +0.000 A 
ATOM     16  C   UNL     1      47.796   7.944  11.640  0.00  0.00    +0.000 A 
ATOM     17  C   UNL     1      49.189   7.837  11.630  0.00  0.00    +0.000 A 
ATOM     18  C   UNL     1      49.880   7.561  12.808  0.00  0.00    +0.000 A 
ATOM     19  C   UNL     1      49.183   7.379  13.999  0.00  0.00    +0.000 A 
ATOM     20  C   UNL     1      47.791   7.484  14.011  0.00  0.00    +0.000 A 
ENDBRANCH  14  15
ENDBRANCH  12  14
ENDBRANCH   4  12
TORSDOF 4
ENDMDL
MODEL 9
REMARK VINA RESULT:    -5.037      3.125      4.955
REMARK INTER + INTRA:          -6.888
REMARK INTER:                  -6.551
REMARK INTRA:                  -0.337
REMARK UNBOUND:                -0.673
REMARK  Name = 
REMARK  4 active torsions:
REMARK  status: ('A' for Active; 'I' for Inactive)
REMARK    1  A    between atoms: C_2  and  C_4
REMARK    2  A    between atoms: C_7  and  N_8
REMARK    3  A    between atoms: N_8  and  C_9
REMARK    4  A    between atoms: C_9  and  C_10
REMARK                            x       y       z     vdW  Elec       q    Type
REMARK                         _______ _______ _______ _____ _____    ______ ____
ROOT
ATOM      1  C   UNL     1      44.835   4.078  11.383  0.00  0.00    +0.000 A 
ATOM      2  C   UNL     1      44.942   5.246  10.622  0.00  0.00    +0.000 A 
ATOM      3  C   UNL     1      45.509   6.398  11.183  0.00  0.00    +0.000 A 
ATOM      4  C   UNL     1      45.968   6.407  12.505  0.00  0.00    +0.000 A 
ATOM      5  C   UNL     1      45.919   5.211  13.230  0.00  0.00    +0.000 A 
ATOM      6  C   UNL     1      45.337   4.061  12.688  0.00  0.00    +0.000 A 
ENDROOT
BRANCH   1   8
ATOM      7  N   UNL     1      43.378   2.159  11.760  0.00  0.00    +0.000 N 
ATOM      8  C   UNL     1      44.145   2.865  10.875  0.00  0.00    +0.000 C 
ATOM      9  O   UNL     1      44.230   2.517   9.704  0.00  0.00    +0.000 OA
ATOM     10  H   UNL     1      42.845   1.389  11.372  0.00  0.00    +0.000 HD
ATOM     11  H   UNL     1      43.083   2.537  12.648  0.00  0.00    +0.000 HD
ENDBRANCH   1   8
BRANCH   4  12
ATOM     12  N   UNL     1      46.447   7.540  13.154  0.00  0.00    +0.000 N 
ATOM     13  H   UNL     1      47.144   7.331  13.865  0.00  0.00    +0.000 HD
BRANCH  12  14
ATOM     14  C   UNL     1      46.719   8.754  12.399  0.00  0.00    +0.000 C 
BRANCH  14  15
ATOM     15  C   UNL     1      48.195   8.852  12.098  0.00  0.00    +0.000 A 
ATOM     16  C   UNL     1      48.922   7.732  11.672  0.00  0.00    +0.000 A 
ATOM     17  C   UNL     1      50.268   7.855  11.320  0.00  0.00    +0.000 A 
ATOM     18  C   UNL     1      50.901   9.094  11.388  0.00  0.00    +0.000 A 
ATOM     19  C   UNL     1      50.195  10.215  11.819  0.00  0.00    +0.000 A 
ATOM     20  C   UNL     1      48.850  10.093  12.172  0.00  0.00    +0.000 A 
ENDBRANCH  14  15
ENDBRANCH  12  14
ENDBRANCH   4  12
TORSDOF 4
ENDMDL
