MODEL 1
REMARK VINA RESULT:    -7.125      0.000      0.000
REMARK INTER + INTRA:          -9.217
REMARK INTER:                  -8.792
REMARK INTRA:                  -0.426
REMARK UNBOUND:                -0.426
REMARK  Name = 
REMARK  6 active torsions:
REMARK  status: ('A' for Active; 'I' for Inactive)
REMARK    1  A    between atoms: C_1  and  C_2
REMARK    2  A    between atoms: C_9  and  C_10
REMARK    3  A    between atoms: C_10  and  S_11
REMARK    4  A    between atoms: S_11  and  C_12
REMARK    5  A    between atoms: C_16  and  C_17
REMARK    6  A    between atoms: C_22  and  C_23
REMARK                            x       y       z     vdW  Elec       q    Type
REMARK                         _______ _______ _______ _____ _____    ______ ____
ROOT
ATOM      1  C   UNL     1      47.621   8.410  18.604  0.00  0.00    +0.000 C 
ATOM      2  C   UNL     1      48.654   7.390  19.084  0.00  0.00    +0.000 C 
ATOM      3  C   UNL     1      49.688   7.033  17.994  0.00  0.00    +0.000 C 
ATOM      4  N   UNL     1      49.076   6.193  16.950  0.00  0.00    +0.000 N 
ATOM      5  C   UNL     1      49.107   6.579  15.628  0.00  0.00    +0.000 A 
ATOM      6  C   UNL     1      50.106   7.393  15.084  0.00  0.00    +0.000 A 
ATOM      7  N   UNL     1      50.179   7.777  13.780  0.00  0.00    +0.000 NA
ATOM      8  C   UNL     1      49.194   7.306  12.992  0.00  0.00    +0.000 A 
ATOM      9  C   UNL     1      48.174   6.511  13.485  0.00  0.00    +0.000 A 
ATOM     10  N   UNL     1      48.134   6.154  14.798  0.00  0.00    +0.000 NA
ATOM     11  C   UNL     1      48.370   4.998  17.486  0.00  0.00    +0.000 C 
ATOM     12  C   UNL     1      47.641   4.101  16.491  0.00  0.00    +0.000 C 
ATOM     13  C   UNL     1      47.391   5.419  18.606  0.00  0.00    +0.000 C 
ATOM     14  O   UNL     1      48.025   6.216  19.620  0.00  0.00    +0.000 OA
ENDROOT
BRANCH   9  15
ATOM     15  C   UNL     1      47.087   5.987  12.584  0.00  0.00    +0.000 C 
BRANCH  15  16
ATOM     16  S   UNL     1      45.628   5.369  13.491  0.00  0.00    +0.000 S 
BRANCH  16  17
ATOM     17  C   UNL     1      44.858   4.418  12.207  0.00  0.00    +0.000 A 
ATOM     18  N   UNL     1      43.994   3.476  12.585  0.00  0.00    +0.000 NA
ATOM     19  C   UNL     1      43.481   2.751  11.601  0.00  0.00    +0.000 A 
ATOM     20  N   UNL     1      43.769   2.874  10.307  0.00  0.00    +0.000 NA
ATOM     21  C   UNL     1      44.654   3.852  10.063  0.00  0.00    +0.000 A 
ATOM     22  N   UNL     1      45.232   4.651  10.956  0.00  0.00    +0.000 NA
BRANCH  21  23
ATOM     23  C   UNL     1      45.062   4.054   8.626  0.00  0.00    +0.000 C 
ATOM     24  N   UNL     1      44.386   3.314   7.688  0.00  0.00    +0.000 N 
ATOM     25  O   UNL     1      45.950   4.831   8.286  0.00  0.00    +0.000 OA
ATOM     26  H   UNL     1      43.649   2.672   7.960  0.00  0.00    +0.000 HD
ATOM     27  H   UNL     1      44.638   3.411   6.714  0.00  0.00    +0.000 HD
ENDBRANCH  21  23
ENDBRANCH  16  17
ENDBRANCH  15  16
ENDBRANCH   9  15
TORSDOF 4
ENDMDL
MODEL 2
REMARK VINA RESULT:    -7.110      3.383      4.804
REMARK INTER + INTRA:          -9.199
REMARK INTER:                  -8.706
REMARK INTRA:                  -0.493
REMARK UNBOUND:                -0.426
REMARK  Name = 
REMARK  6 active torsions:
REMARK  status: ('A' for Active; 'I' for Inactive)
REMARK    1  A    between atoms: C_1  and  C_2
REMARK    2  A    between atoms: C_9  and  C_10
REMARK    3  A    between atoms: C_10  and  S_11
REMARK    4  A    between atoms: S_11  and  C_12
REMARK    5  A    between atoms: C_16  and  C_17
REMARK    6  A    between atoms: C_22  and  C_23
REMARK                            x       y       z     vdW  Elec       q    Type
REMARK                         _______ _______ _______ _____ _____    ______ ____
ROOT
ATOM      1  C   UNL     1      50.406   7.760  11.481  0.00  0.00    +0.000 C 
ATOM      2  C   UNL     1      50.110   8.632  12.701  0.00  0.00    +0.000 C 
ATOM      3  C   UNL     1      49.274   7.896  13.770  0.00  0.00    +0.000 C 
ATOM      4  N   UNL     1      47.881   7.732  13.322  0.00  0.00    +0.000 N 
ATOM      5  C   UNL     1      47.303   6.484  13.259  0.00  0.00    +0.000 A 
ATOM      6  C   UNL     1      47.690   5.412  14.071  0.00  0.00    +0.000 A 
ATOM      7  N   UNL     1      47.128   4.172  14.050  0.00  0.00    +0.000 NA
ATOM      8  C   UNL     1      46.124   4.016  13.167  0.00  0.00    +0.000 A 
ATOM      9  C   UNL     1      45.716   5.040  12.330  0.00  0.00    +0.000 A 
ATOM     10  N   UNL     1      46.307   6.265  12.378  0.00  0.00    +0.000 NA
ATOM     11  C   UNL     1      47.248   9.002  12.872  0.00  0.00    +0.000 C 
ATOM     12  C   UNL     1      45.827   8.928  12.321  0.00  0.00    +0.000 C 
ATOM     13  C   UNL     1      48.158   9.712  11.844  0.00  0.00    +0.000 C 
ATOM     14  O   UNL     1      49.503   9.878  12.322  0.00  0.00    +0.000 OA
ENDROOT
BRANCH   9  15
ATOM     15  C   UNL     1      44.584   4.848  11.356  0.00  0.00    +0.000 C 
BRANCH  15  16
ATOM     16  S   UNL     1      44.999   5.354   9.651  0.00  0.00    +0.000 S 
BRANCH  16  17
ATOM     17  C   UNL     1      45.364   3.768   8.947  0.00  0.00    +0.000 A 
ATOM     18  N   UNL     1      44.787   2.706   9.512  0.00  0.00    +0.000 NA
ATOM     19  C   UNL     1      45.128   1.535   8.992  0.00  0.00    +0.000 A 
ATOM     20  N   UNL     1      45.988   1.343   7.994  0.00  0.00    +0.000 NA
ATOM     21  C   UNL     1      46.499   2.488   7.521  0.00  0.00    +0.000 A 
ATOM     22  N   UNL     1      46.235   3.721   7.948  0.00  0.00    +0.000 NA
BRANCH  21  23
ATOM     23  C   UNL     1      47.504   2.372   6.403  0.00  0.00    +0.000 C 
ATOM     24  N   UNL     1      47.314   3.195   5.321  0.00  0.00    +0.000 N 
ATOM     25  O   UNL     1      48.449   1.588   6.433  0.00  0.00    +0.000 OA
ATOM     26  H   UNL     1      46.537   3.846   5.290  0.00  0.00    +0.000 HD
ATOM     27  H   UNL     1      47.959   3.139   4.545  0.00  0.00    +0.000 HD
ENDBRANCH  21  23
ENDBRANCH  16  17
ENDBRANCH  15  16
ENDBRANCH   9  15
TORSDOF 4
ENDMDL
MODEL 3
REMARK VINA RESULT:    -7.088      2.432      7.475
REMARK INTER + INTRA:          -9.171
REMARK INTER:                  -8.593
REMARK INTRA:                  -0.578
REMARK UNBOUND:                -0.426
REMARK  Name = 
REMARK  6 active torsions:
REMARK  status: ('A' for Active; 'I' for Inactive)
REMARK    1  A    between atoms: C_1  and  C_2
REMARK    2  A    between atoms: C_9  and  C_10
REMARK    3  A    between atoms: C_10  and  S_11
REMARK    4  A    between atoms: S_11  and  C_12
REMARK    5  A    between atoms: C_16  and  C_17
REMARK    6  A    between atoms: C_22  and  C_23
REMARK                            x       y       z     vdW  Elec       q    Type
REMARK                         _______ _______ _______ _____ _____    ______ ____
ROOT
ATOM      1  C   UNL     1      45.366   4.413   9.024  0.00  0.00    +0.000 C 
ATOM      2  C   UNL     1      44.116   4.034   9.819  0.00  0.00    +0.000 C 
ATOM      3  C   UNL     1      43.509   5.232  10.580  0.00  0.00    +0.000 C 
ATOM      4  N   UNL     1      44.350   5.600  11.731  0.00  0.00    +0.000 N 
ATOM      5  C   UNL     1      44.843   6.879  11.864  0.00  0.00    +0.000 A 
ATOM      6  C   UNL     1      44.211   8.010  11.334  0.00  0.00    +0.000 A 
ATOM      7  N   UNL     1      44.658   9.289  11.463  0.00  0.00    +0.000 NA
ATOM      8  C   UNL     1      45.797   9.426  12.168  0.00  0.00    +0.000 A 
ATOM      9  C   UNL     1      46.469   8.338  12.698  0.00  0.00    +0.000 A 
ATOM     10  N   UNL     1      45.991   7.073  12.543  0.00  0.00    +0.000 NA
ATOM     11  C   UNL     1      44.668   4.454  12.625  0.00  0.00    +0.000 C 
ATOM     12  C   UNL     1      45.593   4.714  13.810  0.00  0.00    +0.000 C 
ATOM     13  C   UNL     1      45.221   3.273  11.795  0.00  0.00    +0.000 C 
ATOM     14  O   UNL     1      44.365   2.924  10.695  0.00  0.00    +0.000 OA
ENDROOT
BRANCH   9  15
ATOM     15  C   UNL     1      47.736   8.514  13.493  0.00  0.00    +0.000 C 
BRANCH  15  16
ATOM     16  S   UNL     1      48.975   7.210  13.181  0.00  0.00    +0.000 S 
BRANCH  16  17
ATOM     17  C   UNL     1      49.193   6.602  14.833  0.00  0.00    +0.000 A 
ATOM     18  N   UNL     1      50.362   6.855  15.423  0.00  0.00    +0.000 NA
ATOM     19  C   UNL     1      50.506   6.338  16.635  0.00  0.00    +0.000 A 
ATOM     20  N   UNL     1      49.610   5.594  17.280  0.00  0.00    +0.000 NA
ATOM     21  C   UNL     1      48.484   5.411  16.576  0.00  0.00    +0.000 A 
ATOM     22  N   UNL     1      48.214   5.880  15.360  0.00  0.00    +0.000 NA
BRANCH  21  23
ATOM     23  C   UNL     1      47.416   4.559  17.214  0.00  0.00    +0.000 C 
ATOM     24  N   UNL     1      46.828   5.062  18.347  0.00  0.00    +0.000 N 
ATOM     25  O   UNL     1      47.075   3.469  16.764  0.00  0.00    +0.000 OA
ATOM     26  H   UNL     1      47.103   5.963  18.723  0.00  0.00    +0.000 HD
ATOM     27  H   UNL     1      46.116   4.516  18.812  0.00  0.00    +0.000 HD
ENDBRANCH  21  23
ENDBRANCH  16  17
ENDBRANCH  15  16
ENDBRANCH   9  15
TORSDOF 4
ENDMDL
MODEL 4
REMARK VINA RESULT:    -6.910      1.704      2.755
REMARK INTER + INTRA:          -8.951
REMARK INTER:                  -8.533
REMARK INTRA:                  -0.418
REMARK UNBOUND:                -0.426
REMARK  Name = 
REMARK  6 active torsions:
REMARK  status: ('A' for Active; 'I' for Inactive)
REMARK    1  A    between atoms: C_1  and  C_2
REMARK    2  A    between atoms: C_9  and  C_10
REMARK    3  A    between atoms: C_10  and  S_11
REMARK    4  A    between atoms: S_11  and  C_12
REMARK    5  A    between atoms: C_16  and  C_17
REMARK    6  A    between atoms: C_22  and  C_23
REMARK                            x       y       z     vdW  Elec       q    Type
REMARK                         _______ _______ _______ _____ _____    ______ ____
ROOT
ATOM      1  C   UNL     1      51.855   4.907  17.395  0.00  0.00    +0.000 C 
ATOM      2  C   UNL     1      51.006   5.407  18.565  0.00  0.00    +0.000 C 
ATOM      3  C   UNL     1      49.506   5.088  18.391  0.00  0.00    +0.000 C 
ATOM      4  N   UNL     1      48.906   5.944  17.353  0.00  0.00    +0.000 N 
ATOM      5  C   UNL     1      48.260   5.391  16.270  0.00  0.00    +0.000 A 
ATOM      6  C   UNL     1      47.634   4.140  16.300  0.00  0.00    +0.000 A 
ATOM      7  N   UNL     1      46.970   3.573  15.256  0.00  0.00    +0.000 NA
ATOM      8  C   UNL     1      46.936   4.313  14.132  0.00  0.00    +0.000 A 
ATOM      9  C   UNL     1      47.555   5.548  14.046  0.00  0.00    +0.000 A 
ATOM     10  N   UNL     1      48.214   6.079  15.112  0.00  0.00    +0.000 NA
ATOM     11  C   UNL     1      49.164   7.395  17.558  0.00  0.00    +0.000 C 
ATOM     12  C   UNL     1      48.647   8.363  16.499  0.00  0.00    +0.000 C 
ATOM     13  C   UNL     1      50.675   7.638  17.777  0.00  0.00    +0.000 C 
ATOM     14  O   UNL     1      51.223   6.806  18.812  0.00  0.00    +0.000 OA
ENDROOT
BRANCH   9  15
ATOM     15  C   UNL     1      47.496   6.365  12.782  0.00  0.00    +0.000 C 
BRANCH  15  16
ATOM     16  S   UNL     1      45.962   7.341  12.619  0.00  0.00    +0.000 S 
BRANCH  16  17
ATOM     17  C   UNL     1      44.912   6.126  11.867  0.00  0.00    +0.000 A 
ATOM     18  N   UNL     1      43.851   5.724  12.569  0.00  0.00    +0.000 NA
ATOM     19  C   UNL     1      43.122   4.776  11.996  0.00  0.00    +0.000 A 
ATOM     20  N   UNL     1      43.370   4.200  10.822  0.00  0.00    +0.000 NA
ATOM     21  C   UNL     1      44.466   4.690  10.224  0.00  0.00    +0.000 A 
ATOM     22  N   UNL     1      45.274   5.641  10.687  0.00  0.00    +0.000 NA
BRANCH  21  23
ATOM     23  C   UNL     1      44.843   4.083   8.897  0.00  0.00    +0.000 C 
ATOM     24  N   UNL     1      44.273   2.872   8.594  0.00  0.00    +0.000 N 
ATOM     25  O   UNL     1      45.620   4.621   8.113  0.00  0.00    +0.000 OA
ATOM     26  H   UNL     1      43.629   2.422   9.236  0.00  0.00    +0.000 HD
ATOM     27  H   UNL     1      44.510   2.425   7.719  0.00  0.00    +0.000 HD
ENDBRANCH  21  23
ENDBRANCH  16  17
ENDBRANCH  15  16
ENDBRANCH   9  15
TORSDOF 4
ENDMDL
MODEL 5
REMARK VINA RESULT:    -6.002      3.263      4.953
REMARK INTER + INTRA:          -7.832
REMARK INTER:                  -7.479
REMARK INTRA:                  -0.352
REMARK UNBOUND:                -0.426
REMARK  Name = 
REMARK  6 active torsions:
REMARK  status: ('A' for Active; 'I' for Inactive)
REMARK    1  A    between atoms: C_1  and  C_2
REMARK    2  A    between atoms: C_9  and  C_10
REMARK    3  A    between atoms: C_10  and  S_11
REMARK    4  A    between atoms: S_11  and  C_12
REMARK    5  A    between atoms: C_16  and  C_17
REMARK    6  A    between atoms: C_22  and  C_23
REMARK                            x       y       z     vdW  Elec       q    Type
REMARK                         _______ _______ _______ _____ _____    ______ ____
ROOT
ATOM      1  C   UNL     1      52.624   8.829  11.063  0.00  0.00    +0.000 C 
ATOM      2  C   UNL     1      52.442  10.031  11.991  0.00  0.00    +0.000 C 
ATOM      3  C   UNL     1      51.522   9.721  13.192  0.00  0.00    +0.000 C 
ATOM      4  N   UNL     1      50.118   9.612  12.761  0.00  0.00    +0.000 N 
ATOM      5  C   UNL     1      49.388   8.474  13.019  0.00  0.00    +0.000 A 
ATOM      6  C   UNL     1      49.638   7.625  14.103  0.00  0.00    +0.000 A 
ATOM      7  N   UNL     1      48.925   6.504  14.400  0.00  0.00    +0.000 NA
ATOM      8  C   UNL     1      47.907   6.237  13.560  0.00  0.00    +0.000 A 
ATOM      9  C   UNL     1      47.630   7.036  12.464  0.00  0.00    +0.000 A 
ATOM     10  N   UNL     1      48.371   8.146  12.199  0.00  0.00    +0.000 NA
ATOM     11  C   UNL     1      49.649  10.778  11.964  0.00  0.00    +0.000 C 
ATOM     12  C   UNL     1      48.230  10.731  11.407  0.00  0.00    +0.000 C 
ATOM     13  C   UNL     1      50.640  11.065  10.811  0.00  0.00    +0.000 C 
ATOM     14  O   UNL     1      51.996  11.190  11.270  0.00  0.00    +0.000 OA
ENDROOT
BRANCH   9  15
ATOM     15  C   UNL     1      46.480   6.724  11.543  0.00  0.00    +0.000 C 
BRANCH  15  16
ATOM     16  S   UNL     1      44.896   6.479  12.416  0.00  0.00    +0.000 S 
BRANCH  16  17
ATOM     17  C   UNL     1      44.398   4.932  11.704  0.00  0.00    +0.000 A 
ATOM     18  N   UNL     1      43.623   4.143  12.449  0.00  0.00    +0.000 NA
ATOM     19  C   UNL     1      43.318   2.973  11.903  0.00  0.00    +0.000 A 
ATOM     20  N   UNL     1      43.728   2.533  10.716  0.00  0.00    +0.000 NA
ATOM     21  C   UNL     1      44.504   3.418  10.073  0.00  0.00    +0.000 A 
ATOM     22  N   UNL     1      44.875   4.621  10.506  0.00  0.00    +0.000 NA
BRANCH  21  23
ATOM     23  C   UNL     1      45.038   3.000   8.728  0.00  0.00    +0.000 C 
ATOM     24  N   UNL     1      45.638   1.768   8.663  0.00  0.00    +0.000 N 
ATOM     25  O   UNL     1      44.957   3.708   7.727  0.00  0.00    +0.000 OA
ATOM     26  H   UNL     1      45.707   1.177   9.485  0.00  0.00    +0.000 HD
ATOM     27  H   UNL     1      46.021   1.455   7.781  0.00  0.00    +0.000 HD
ENDBRANCH  21  23
ENDBRANCH  16  17
ENDBRANCH  15  16
ENDBRANCH   9  15
TORSDOF 4
ENDMDL
MODEL 6
REMARK VINA RESULT:    -5.652      2.856      8.041
REMARK INTER + INTRA:          -7.399
REMARK INTER:                  -7.016
REMARK INTRA:                  -0.383
REMARK UNBOUND:                -0.426
REMARK  Name = 
REMARK  6 active torsions:
REMARK  status: ('A' for Active; 'I' for Inactive)
REMARK    1  A    between atoms: C_1  and  C_2
REMARK    2  A    between atoms: C_9  and  C_10
REMARK    3  A    between atoms: C_10  and  S_11
REMARK    4  A    between atoms: S_11  and  C_12
REMARK    5  A    between atoms: C_16  and  C_17
REMARK    6  A    between atoms: C_22  and  C_23
REMARK                            x       y       z     vdW  Elec       q    Type
REMARK                         _______ _______ _______ _____ _____    ______ ____
ROOT
ATOM      1  C   UNL     1      44.935   4.652   9.209  0.00  0.00    +0.000 C 
ATOM      2  C   UNL     1      43.731   4.552  10.146  0.00  0.00    +0.000 C 
ATOM      3  C   UNL     1      43.666   5.716  11.157  0.00  0.00    +0.000 C 
ATOM      4  N   UNL     1      44.709   5.573  12.188  0.00  0.00    +0.000 N 
ATOM      5  C   UNL     1      45.624   6.577  12.409  0.00  0.00    +0.000 A 
ATOM      6  C   UNL     1      45.365   7.928  12.156  0.00  0.00    +0.000 A 
ATOM      7  N   UNL     1      46.238   8.948  12.382  0.00  0.00    +0.000 NA
ATOM      8  C   UNL     1      47.427   8.578  12.894  0.00  0.00    +0.000 A 
ATOM      9  C   UNL     1      47.738   7.253  13.146  0.00  0.00    +0.000 A 
ATOM     10  N   UNL     1      46.838   6.261  12.901  0.00  0.00    +0.000 NA
ATOM     11  C   UNL     1      44.712   4.238  12.847  0.00  0.00    +0.000 C 
ATOM     12  C   UNL     1      45.800   3.961  13.880  0.00  0.00    +0.000 C 
ATOM     13  C   UNL     1      44.725   3.120  11.780  0.00  0.00    +0.000 C 
ATOM     14  O   UNL     1      43.681   3.277  10.805  0.00  0.00    +0.000 OA
ENDROOT
BRANCH   9  15
ATOM     15  C   UNL     1      49.070   6.861  13.728  0.00  0.00    +0.000 C 
BRANCH  15  16
ATOM     16  S   UNL     1      49.841   8.179  14.730  0.00  0.00    +0.000 S 
BRANCH  16  17
ATOM     17  C   UNL     1      50.883   7.193  15.773  0.00  0.00    +0.000 A 
ATOM     18  N   UNL     1      52.142   7.602  15.933  0.00  0.00    +0.000 NA
ATOM     19  C   UNL     1      52.903   6.810  16.675  0.00  0.00    +0.000 A 
ATOM     20  N   UNL     1      52.524   5.664  17.237  0.00  0.00    +0.000 NA
ATOM     21  C   UNL     1      51.240   5.366  16.995  0.00  0.00    +0.000 A 
ATOM     22  N   UNL     1      50.373   6.077  16.277  0.00  0.00    +0.000 NA
BRANCH  21  23
ATOM     23  C   UNL     1      50.723   4.072  17.571  0.00  0.00    +0.000 C 
ATOM     24  N   UNL     1      51.375   3.592  18.679  0.00  0.00    +0.000 N 
ATOM     25  O   UNL     1      49.773   3.460  17.092  0.00  0.00    +0.000 OA
ATOM     26  H   UNL     1      52.160   4.094  19.082  0.00  0.00    +0.000 HD
ATOM     27  H   UNL     1      51.068   2.721  19.089  0.00  0.00    +0.000 HD
ENDBRANCH  21  23
ENDBRANCH  16  17
ENDBRANCH  15  16
ENDBRANCH   9  15
TORSDOF 4
ENDMDL
MODEL 7
REMARK VINA RESULT:    -5.362      3.335      5.687
REMARK INTER + INTRA:          -7.042
REMARK INTER:                  -6.605
REMARK INTRA:                  -0.437
REMARK UNBOUND:                -0.426
REMARK  Name = 
REMARK  6 active torsions:
REMARK  status: ('A' for Active; 'I' for Inactive)
REMARK    1  A    between atoms: C_1  and  C_2
REMARK    2  A    between atoms: C_9  and  C_10
REMARK    3  A    between atoms: C_10  and  S_11
REMARK    4  A    between atoms: S_11  and  C_12
REMARK    5  A    between atoms: C_16  and  C_17
REMARK    6  A    between atoms: C_22  and  C_23
REMARK                            x       y       z     vdW  Elec       q    Type
REMARK                         _______ _______ _______ _____ _____    ______ ____
ROOT
ATOM      1  C   UNL     1      53.269   7.275  10.427  0.00  0.00    +0.000 C 
ATOM      2  C   UNL     1      53.804   8.650  10.826  0.00  0.00    +0.000 C 
ATOM      3  C   UNL     1      53.514   8.997  12.301  0.00  0.00    +0.000 C 
ATOM      4  N   UNL     1      52.085   9.296  12.497  0.00  0.00    +0.000 N 
ATOM      5  C   UNL     1      51.338   8.597  13.418  0.00  0.00    +0.000 A 
ATOM      6  C   UNL     1      51.880   8.010  14.567  0.00  0.00    +0.000 A 
ATOM      7  N   UNL     1      51.169   7.330  15.508  0.00  0.00    +0.000 NA
ATOM      8  C   UNL     1      49.846   7.247  15.273  0.00  0.00    +0.000 A 
ATOM      9  C   UNL     1      49.264   7.796  14.144  0.00  0.00    +0.000 A 
ATOM     10  N   UNL     1      50.011   8.465  13.223  0.00  0.00    +0.000 NA
ATOM     11  C   UNL     1      51.557  10.318  11.552  0.00  0.00    +0.000 C 
ATOM     12  C   UNL     1      50.070  10.648  11.623  0.00  0.00    +0.000 C 
ATOM     13  C   UNL     1      51.927   9.937  10.099  0.00  0.00    +0.000 C 
ATOM     14  O   UNL     1      53.331   9.677   9.939  0.00  0.00    +0.000 OA
ENDROOT
BRANCH   9  15
ATOM     15  C   UNL     1      47.780   7.701  13.905  0.00  0.00    +0.000 C 
BRANCH  15  16
ATOM     16  S   UNL     1      47.346   7.343  12.168  0.00  0.00    +0.000 S 
BRANCH  16  17
ATOM     17  C   UNL     1      46.527   5.784  12.379  0.00  0.00    +0.000 A 
ATOM     18  N   UNL     1      47.018   4.962  13.307  0.00  0.00    +0.000 NA
ATOM     19  C   UNL     1      46.412   3.786  13.397  0.00  0.00    +0.000 A 
ATOM     20  N   UNL     1      45.398   3.369  12.643  0.00  0.00    +0.000 NA
ATOM     21  C   UNL     1      45.005   4.286  11.747  0.00  0.00    +0.000 A 
ATOM     22  N   UNL     1      45.521   5.499  11.563  0.00  0.00    +0.000 NA
BRANCH  21  23
ATOM     23  C   UNL     1      43.875   3.897  10.829  0.00  0.00    +0.000 C 
ATOM     24  N   UNL     1      43.885   4.455   9.575  0.00  0.00    +0.000 N 
ATOM     25  O   UNL     1      42.979   3.126  11.162  0.00  0.00    +0.000 OA
ATOM     26  H   UNL     1      44.623   5.091   9.292  0.00  0.00    +0.000 HD
ATOM     27  H   UNL     1      43.137   4.229   8.933  0.00  0.00    +0.000 HD
ENDBRANCH  21  23
ENDBRANCH  16  17
ENDBRANCH  15  16
ENDBRANCH   9  15
TORSDOF 4
ENDMDL
MODEL 8
REMARK VINA RESULT:    -4.975      3.778      7.052
REMARK INTER + INTRA:          -6.564
REMARK INTER:                  -6.059
REMARK INTRA:                  -0.506
REMARK UNBOUND:                -0.426
REMARK  Name = 
REMARK  6 active torsions:
REMARK  status: ('A' for Active; 'I' for Inactive)
REMARK    1  A    between atoms: C_1  and  C_2
REMARK    2  A    between atoms: C_9  and  C_10
REMARK    3  A    between atoms: C_10  and  S_11
REMARK    4  A    between atoms: S_11  and  C_12
REMARK    5  A    between atoms: C_16  and  C_17
REMARK    6  A    between atoms: C_22  and  C_23
REMARK                            x       y       z     vdW  Elec       q    Type
REMARK                         _______ _______ _______ _____ _____    ______ ____
ROOT
ATOM      1  C   UNL     1      53.682   6.319   9.964  0.00  0.00    +0.000 C 
ATOM      2  C   UNL     1      54.433   7.651   9.955  0.00  0.00    +0.000 C 
ATOM      3  C   UNL     1      54.453   8.332  11.340  0.00  0.00    +0.000 C 
ATOM      4  N   UNL     1      53.126   8.875  11.675  0.00  0.00    +0.000 N 
ATOM      5  C   UNL     1      52.481   8.499  12.832  0.00  0.00    +0.000 A 
ATOM      6  C   UNL     1      53.150   8.085  13.989  0.00  0.00    +0.000 A 
ATOM      7  N   UNL     1      52.547   7.727  15.156  0.00  0.00    +0.000 NA
ATOM      8  C   UNL     1      51.203   7.797  15.147  0.00  0.00    +0.000 A 
ATOM      9  C   UNL     1      50.494   8.184  14.023  0.00  0.00    +0.000 A 
ATOM     10  N   UNL     1      51.135   8.531  12.873  0.00  0.00    +0.000 NA
ATOM     11  C   UNL     1      52.557   9.750  10.613  0.00  0.00    +0.000 C 
ATOM     12  C   UNL     1      51.154  10.306  10.830  0.00  0.00    +0.000 C 
ATOM     13  C   UNL     1      52.615   9.029   9.246  0.00  0.00    +0.000 C 
ATOM     14  O   UNL     1      53.928   8.533   8.940  0.00  0.00    +0.000 OA
ENDROOT
BRANCH   9  15
ATOM     15  C   UNL     1      48.990   8.266  14.038  0.00  0.00    +0.000 C 
BRANCH  15  16
ATOM     16  S   UNL     1      48.211   7.582  12.535  0.00  0.00    +0.000 S 
BRANCH  16  17
ATOM     17  C   UNL     1      47.440   6.142  13.226  0.00  0.00    +0.000 A 
ATOM     18  N   UNL     1      46.366   5.667  12.595  0.00  0.00    +0.000 NA
ATOM     19  C   UNL     1      45.787   4.623  13.172  0.00  0.00    +0.000 A 
ATOM     20  N   UNL     1      46.172   4.044  14.308  0.00  0.00    +0.000 NA
ATOM     21  C   UNL     1      47.258   4.621  14.842  0.00  0.00    +0.000 A 
ATOM     22  N   UNL     1      47.933   5.661  14.360  0.00  0.00    +0.000 NA
BRANCH  21  23
ATOM     23  C   UNL     1      47.757   4.049  16.145  0.00  0.00    +0.000 C 
ATOM     24  N   UNL     1      46.847   3.347  16.894  0.00  0.00    +0.000 N 
ATOM     25  O   UNL     1      48.911   4.193  16.539  0.00  0.00    +0.000 OA
ATOM     26  H   UNL     1      45.892   3.222  16.574  0.00  0.00    +0.000 HD
ATOM     27  H   UNL     1      47.138   2.958  17.781  0.00  0.00    +0.000 HD
ENDBRANCH  21  23
ENDBRANCH  16  17
ENDBRANCH  15  16
ENDBRANCH   9  15
TORSDOF 4
ENDMDL
MODEL 9
REMARK VINA RESULT:    -4.689     10.152     11.867
REMARK INTER + INTRA:          -6.211
REMARK INTER:                  -5.881
REMARK INTRA:                  -0.330
REMARK UNBOUND:                -0.426
REMARK  Name = 
REMARK  6 active torsions:
REMARK  status: ('A' for Active; 'I' for Inactive)
REMARK    1  A    between atoms: C_1  and  C_2
REMARK    2  A    between atoms: C_9  and  C_10
REMARK    3  A    between atoms: C_10  and  S_11
REMARK    4  A    between atoms: S_11  and  C_12
REMARK    5  A    between atoms: C_16  and  C_17
REMARK    6  A    between atoms: C_22  and  C_23
REMARK                            x       y       z     vdW  Elec       q    Type
REMARK                         _______ _______ _______ _____ _____    ______ ____
ROOT
ATOM      1  C   UNL     1      45.287  -4.590  18.508  0.00  0.00    +0.000 C 
ATOM      2  C   UNL     1      44.482  -5.770  19.054  0.00  0.00    +0.000 C 
ATOM      3  C   UNL     1      43.348  -6.206  18.102  0.00  0.00    +0.000 C 
ATOM      4  N   UNL     1      42.252  -5.221  18.108  0.00  0.00    +0.000 N 
ATOM      5  C   UNL     1      41.830  -4.630  16.938  0.00  0.00    +0.000 A 
ATOM      6  C   UNL     1      41.941  -5.236  15.682  0.00  0.00    +0.000 A 
ATOM      7  N   UNL     1      41.516  -4.691  14.509  0.00  0.00    +0.000 NA
ATOM      8  C   UNL     1      40.948  -3.475  14.619  0.00  0.00    +0.000 A 
ATOM      9  C   UNL     1      40.830  -2.826  15.836  0.00  0.00    +0.000 A 
ATOM     10  N   UNL     1      41.272  -3.405  16.986  0.00  0.00    +0.000 NA
ATOM     11  C   UNL     1      41.760  -4.888  19.472  0.00  0.00    +0.000 C 
ATOM     12  C   UNL     1      40.675  -3.823  19.593  0.00  0.00    +0.000 C 
ATOM     13  C   UNL     1      42.950  -4.510  20.386  0.00  0.00    +0.000 C 
ATOM     14  O   UNL     1      43.988  -5.503  20.376  0.00  0.00    +0.000 OA
ENDROOT
BRANCH   9  15
ATOM     15  C   UNL     1      40.182  -1.471  15.939  0.00  0.00    +0.000 C 
BRANCH  15  16
ATOM     16  S   UNL     1      38.416  -1.544  16.399  0.00  0.00    +0.000 S 
BRANCH  16  17
ATOM     17  C   UNL     1      38.010   0.180  16.302  0.00  0.00    +0.000 A 
ATOM     18  N   UNL     1      37.239   0.566  15.285  0.00  0.00    +0.000 NA
ATOM     19  C   UNL     1      37.003   1.868  15.217  0.00  0.00    +0.000 A 
ATOM     20  N   UNL     1      37.477   2.794  16.049  0.00  0.00    +0.000 NA
ATOM     21  C   UNL     1      38.241   2.275  17.021  0.00  0.00    +0.000 A 
ATOM     22  N   UNL     1      38.546   0.993  17.203  0.00  0.00    +0.000 NA
BRANCH  21  23
ATOM     23  C   UNL     1      38.845   3.249  18.001  0.00  0.00    +0.000 C 
ATOM     24  N   UNL     1      39.263   4.452  17.490  0.00  0.00    +0.000 N 
ATOM     25  O   UNL     1      38.969   3.002  19.197  0.00  0.00    +0.000 OA
ATOM     26  H   UNL     1      39.162   4.663  16.502  0.00  0.00    +0.000 HD
ATOM     27  H   UNL     1      39.686   5.128  18.111  0.00  0.00    +0.000 HD
ENDBRANCH  21  23
ENDBRANCH  16  17
ENDBRANCH  15  16
ENDBRANCH   9  15
TORSDOF 4
ENDMDL
