MODEL 1
REMARK VINA RESULT:    -7.697      0.000      0.000
REMARK INTER + INTRA:         -11.792
REMARK INTER:                 -10.846
REMARK INTRA:                  -0.946
REMARK UNBOUND:                -0.946
REMARK  Name = 
REMARK  7 active torsions:
REMARK  status: ('A' for Active; 'I' for Inactive)
REMARK    1  A    between atoms: C_2  and  C_3
REMARK    2  A    between atoms: C_7  and  C_8
REMARK    3  A    between atoms: N_10  and  C_11
REMARK    4  A    between atoms: C_11  and  C_12
REMARK    5  A    between atoms: C_15  and  C_16
REMARK    6  A    between atoms: C_16  and  N_17
REMARK    7  A    between atoms: C_18  and  C_20
REMARK                            x       y       z     vdW  Elec       q    Type
REMARK                         _______ _______ _______ _____ _____    ______ ____
ROOT
ATOM      1  C   UNL     1      46.374   4.968  13.908  0.00  0.00    +0.000 A 
ATOM      2  C   UNL     1      46.779   4.423  15.135  0.00  0.00    +0.000 A 
ATOM      3  C   UNL     1      47.810   5.013  15.880  0.00  0.00    +0.000 A 
ATOM      4  C   UNL     1      48.447   6.175  15.425  0.00  0.00    +0.000 A 
ATOM      5  C   UNL     1      48.054   6.709  14.190  0.00  0.00    +0.000 A 
ATOM      6  C   UNL     1      47.023   6.121  13.447  0.00  0.00    +0.000 A 
ENDROOT
BRANCH   1   7
ATOM      7  C   UNL     1      45.276   4.316  13.101  0.00  0.00    +0.000 C 
BRANCH   7  10
ATOM      8  C   UNL     1      44.762   3.718  10.763  0.00  0.00    +0.000 C 
ATOM      9  O   UNL     1      43.548   3.728  10.937  0.00  0.00    +0.000 OA
ATOM     10  N   UNL     1      45.684   3.995  11.754  0.00  0.00    +0.000 N 
ATOM     11  H   UNL     1      46.669   3.928  11.516  0.00  0.00    +0.000 HD
BRANCH   8  16
ATOM     12  C   UNL     1      46.180   1.784   7.986  0.00  0.00    +0.000 A 
ATOM     13  C   UNL     1      46.423   2.722   6.989  0.00  0.00    +0.000 A 
ATOM     14  C   UNL     1      46.103   4.053   7.243  0.00  0.00    +0.000 A 
ATOM     15  C   UNL     1      45.557   4.398   8.476  0.00  0.00    +0.000 A 
ATOM     16  C   UNL     1      45.347   3.394   9.417  0.00  0.00    +0.000 A 
ATOM     17  N   UNL     1      45.645   2.083   9.198  0.00  0.00    +0.000 NA
BRANCH  12  19
ATOM     18  N   UNL     1      46.784  -0.712   7.578  0.00  0.00    +0.000 NA
ATOM     19  C   UNL     1      46.498   0.401   7.772  0.00  0.00    +0.000 C 
ENDBRANCH  12  19
ENDBRANCH   8  16
ENDBRANCH   7  10
ENDBRANCH   1   7
BRANCH   4  20
ATOM     20  C   UNL     1      49.542   6.837  16.228  0.00  0.00    +0.000 C 
BRANCH  20  21
ATOM     21  N   UNL     1      50.535   5.889  16.662  0.00  0.00    +0.000 N 
ATOM     22  C   UNL     1      50.730   5.619  17.997  0.00  0.00    +0.000 C 
ATOM     23  O   UNL     1      50.049   6.139  18.876  0.00  0.00    +0.000 OA
ATOM     24  H   UNL     1      51.273   5.664  16.005  0.00  0.00    +0.000 HD
BRANCH  22  25
ATOM     25  C   UNL     1      51.758   4.620  18.315  0.00  0.00    +0.000 A 
ATOM     26  C   UNL     1      52.905   4.998  19.000  0.00  0.00    +0.000 A 
ATOM     27  S   UNL     1      53.961   3.699  19.334  0.00  0.00    +0.000 S 
ATOM     28  C   UNL     1      52.947   2.596  18.527  0.00  0.00    +0.000 A 
ATOM     29  N   UNL     1      53.285   1.282  18.418  0.00  0.00    +0.000 NA
ATOM     30  C   UNL     1      52.438   0.567  17.754  0.00  0.00    +0.000 A 
ATOM     31  N   UNL     1      51.282   1.045  17.193  0.00  0.00    +0.000 N 
ATOM     32  C   UNL     1      50.887   2.356  17.303  0.00  0.00    +0.000 A 
ATOM     33  O   UNL     1      49.824   2.742  16.828  0.00  0.00    +0.000 OA
ATOM     34  C   UNL     1      51.810   3.207  18.028  0.00  0.00    +0.000 A 
ATOM     35  H   UNL     1      50.655   0.433  16.695  0.00  0.00    +0.000 HD
ENDBRANCH  22  25
ENDBRANCH  20  21
ENDBRANCH   4  20
TORSDOF 7
ENDMDL
MODEL 2
REMARK VINA RESULT:    -7.393      2.698      3.138
REMARK INTER + INTRA:         -11.364
REMARK INTER:                 -10.351
REMARK INTRA:                  -1.012
REMARK UNBOUND:                -0.946
REMARK  Name = 
REMARK  7 active torsions:
REMARK  status: ('A' for Active; 'I' for Inactive)
REMARK    1  A    between atoms: C_2  and  C_3
REMARK    2  A    between atoms: C_7  and  C_8
REMARK    3  A    between atoms: N_10  and  C_11
REMARK    4  A    between atoms: C_11  and  C_12
REMARK    5  A    between atoms: C_15  and  C_16
REMARK    6  A    between atoms: C_16  and  N_17
REMARK    7  A    between atoms: C_18  and  C_20
REMARK                            x       y       z     vdW  Elec       q    Type
REMARK                         _______ _______ _______ _____ _____    ______ ____
ROOT
ATOM      1  C   UNL     1      45.360   6.884  11.926  0.00  0.00    +0.000 A 
ATOM      2  C   UNL     1      46.442   6.230  12.534  0.00  0.00    +0.000 A 
ATOM      3  C   UNL     1      47.330   6.928  13.366  0.00  0.00    +0.000 A 
ATOM      4  C   UNL     1      47.145   8.292  13.624  0.00  0.00    +0.000 A 
ATOM      5  C   UNL     1      46.075   8.949  13.002  0.00  0.00    +0.000 A 
ATOM      6  C   UNL     1      45.186   8.251  12.174  0.00  0.00    +0.000 A 
ENDROOT
BRANCH   1   7
ATOM      7  C   UNL     1      44.419   6.131  11.015  0.00  0.00    +0.000 C 
BRANCH   7  10
ATOM      8  C   UNL     1      44.817   4.100   9.671  0.00  0.00    +0.000 C 
ATOM      9  O   UNL     1      43.970   3.439  10.262  0.00  0.00    +0.000 OA
ATOM     10  N   UNL     1      45.104   5.420   9.963  0.00  0.00    +0.000 N 
ATOM     11  H   UNL     1      45.847   5.870   9.436  0.00  0.00    +0.000 HD
BRANCH   8  16
ATOM     12  C   UNL     1      46.505   1.600   7.583  0.00  0.00    +0.000 A 
ATOM     13  C   UNL     1      47.087   2.332   6.555  0.00  0.00    +0.000 A 
ATOM     14  C   UNL     1      46.913   3.714   6.548  0.00  0.00    +0.000 A 
ATOM     15  C   UNL     1      46.171   4.311   7.563  0.00  0.00    +0.000 A 
ATOM     16  C   UNL     1      45.624   3.501   8.554  0.00  0.00    +0.000 A 
ATOM     17  N   UNL     1      45.771   2.148   8.586  0.00  0.00    +0.000 NA
BRANCH  12  19
ATOM     18  N   UNL     1      46.815  -0.980   7.654  0.00  0.00    +0.000 NA
ATOM     19  C   UNL     1      46.660   0.174   7.634  0.00  0.00    +0.000 C 
ENDBRANCH  12  19
ENDBRANCH   8  16
ENDBRANCH   7  10
ENDBRANCH   1   7
BRANCH   4  20
ATOM     20  C   UNL     1      48.078   9.053  14.538  0.00  0.00    +0.000 C 
BRANCH  20  21
ATOM     21  N   UNL     1      48.274   8.370  15.791  0.00  0.00    +0.000 N 
ATOM     22  C   UNL     1      49.534   8.056  16.245  0.00  0.00    +0.000 C 
ATOM     23  O   UNL     1      50.548   8.372  15.629  0.00  0.00    +0.000 OA
ATOM     24  H   UNL     1      47.479   7.868  16.168  0.00  0.00    +0.000 HD
BRANCH  22  25
ATOM     25  C   UNL     1      49.607   7.377  17.544  0.00  0.00    +0.000 A 
ATOM     26  C   UNL     1      50.125   8.042  18.648  0.00  0.00    +0.000 A 
ATOM     27  S   UNL     1      50.078   7.122  20.085  0.00  0.00    +0.000 S 
ATOM     28  C   UNL     1      49.414   5.783  19.271  0.00  0.00    +0.000 A 
ATOM     29  N   UNL     1      49.145   4.624  19.930  0.00  0.00    +0.000 NA
ATOM     30  C   UNL     1      48.673   3.682  19.182  0.00  0.00    +0.000 A 
ATOM     31  N   UNL     1      48.439   3.797  17.836  0.00  0.00    +0.000 N 
ATOM     32  C   UNL     1      48.667   4.957  17.135  0.00  0.00    +0.000 A 
ATOM     33  O   UNL     1      48.404   5.040  15.941  0.00  0.00    +0.000 OA
ATOM     34  C   UNL     1      49.212   6.043  17.927  0.00  0.00    +0.000 A 
ATOM     35  H   UNL     1      48.057   3.027  17.308  0.00  0.00    +0.000 HD
ENDBRANCH  22  25
ENDBRANCH  20  21
ENDBRANCH   4  20
TORSDOF 7
ENDMDL
MODEL 3
REMARK VINA RESULT:    -7.227      4.155     10.310
REMARK INTER + INTRA:         -11.129
REMARK INTER:                 -10.251
REMARK INTRA:                  -0.879
REMARK UNBOUND:                -0.946
REMARK  Name = 
REMARK  7 active torsions:
REMARK  status: ('A' for Active; 'I' for Inactive)
REMARK    1  A    between atoms: C_2  and  C_3
REMARK    2  A    between atoms: C_7  and  C_8
REMARK    3  A    between atoms: N_10  and  C_11
REMARK    4  A    between atoms: C_11  and  C_12
REMARK    5  A    between atoms: C_15  and  C_16
REMARK    6  A    between atoms: C_16  and  N_17
REMARK    7  A    between atoms: C_18  and  C_20
REMARK                            x       y       z     vdW  Elec       q    Type
REMARK                         _______ _______ _______ _____ _____    ______ ____
ROOT
ATOM      1  C   UNL     1      51.361   2.900  17.752  0.00  0.00    +0.000 A 
ATOM      2  C   UNL     1      50.729   4.099  18.111  0.00  0.00    +0.000 A 
ATOM      3  C   UNL     1      49.376   4.318  17.813  0.00  0.00    +0.000 A 
ATOM      4  C   UNL     1      48.619   3.334  17.163  0.00  0.00    +0.000 A 
ATOM      5  C   UNL     1      49.255   2.144  16.788  0.00  0.00    +0.000 A 
ATOM      6  C   UNL     1      50.605   1.924  17.089  0.00  0.00    +0.000 A 
ENDROOT
BRANCH   1   7
ATOM      7  C   UNL     1      52.823   2.678  18.059  0.00  0.00    +0.000 C 
BRANCH   7  10
ATOM      8  C   UNL     1      54.316   0.748  17.692  0.00  0.00    +0.000 C 
ATOM      9  O   UNL     1      55.143   1.399  17.061  0.00  0.00    +0.000 OA
ATOM     10  N   UNL     1      53.158   1.283  18.221  0.00  0.00    +0.000 N 
ATOM     11  H   UNL     1      52.521   0.653  18.699  0.00  0.00    +0.000 HD
BRANCH   8  16
ATOM     12  C   UNL     1      53.965  -2.582  19.191  0.00  0.00    +0.000 A 
ATOM     13  C   UNL     1      54.826  -3.392  18.459  0.00  0.00    +0.000 A 
ATOM     14  C   UNL     1      55.555  -2.814  17.423  0.00  0.00    +0.000 A 
ATOM     15  C   UNL     1      55.400  -1.457  17.156  0.00  0.00    +0.000 A 
ATOM     16  C   UNL     1      54.515  -0.720  17.940  0.00  0.00    +0.000 A 
ATOM     17  N   UNL     1      53.785  -1.256  18.957  0.00  0.00    +0.000 NA
BRANCH  12  19
ATOM     18  N   UNL     1      52.546  -3.556  21.139  0.00  0.00    +0.000 NA
ATOM     19  C   UNL     1      53.197  -3.131  20.271  0.00  0.00    +0.000 C 
ENDBRANCH  12  19
ENDBRANCH   8  16
ENDBRANCH   7  10
ENDBRANCH   1   7
BRANCH   4  20
ATOM     20  C   UNL     1      47.154   3.545  16.857  0.00  0.00    +0.000 C 
BRANCH  20  21
ATOM     21  N   UNL     1      46.957   4.575  15.870  0.00  0.00    +0.000 N 
ATOM     22  C   UNL     1      47.011   4.296  14.524  0.00  0.00    +0.000 C 
ATOM     23  O   UNL     1      47.191   3.159  14.099  0.00  0.00    +0.000 OA
ATOM     24  H   UNL     1      47.081   5.533  16.177  0.00  0.00    +0.000 HD
BRANCH  22  25
ATOM     25  C   UNL     1      46.775   5.426  13.617  0.00  0.00    +0.000 A 
ATOM     26  C   UNL     1      47.801   6.320  13.339  0.00  0.00    +0.000 A 
ATOM     27  S   UNL     1      47.366   7.534  12.221  0.00  0.00    +0.000 S 
ATOM     28  C   UNL     1      45.775   6.939  12.111  0.00  0.00    +0.000 A 
ATOM     29  N   UNL     1      44.850   7.551  11.323  0.00  0.00    +0.000 NA
ATOM     30  C   UNL     1      43.677   7.011  11.359  0.00  0.00    +0.000 A 
ATOM     31  N   UNL     1      43.347   5.910  12.107  0.00  0.00    +0.000 N 
ATOM     32  C   UNL     1      44.255   5.243  12.893  0.00  0.00    +0.000 A 
ATOM     33  O   UNL     1      43.938   4.235  13.515  0.00  0.00    +0.000 OA
ATOM     34  C   UNL     1      45.586   5.818  12.899  0.00  0.00    +0.000 A 
ATOM     35  H   UNL     1      42.414   5.528  12.084  0.00  0.00    +0.000 HD
ENDBRANCH  22  25
ENDBRANCH  20  21
ENDBRANCH   4  20
TORSDOF 7
ENDMDL
MODEL 4
REMARK VINA RESULT:    -6.838      5.984      7.755
REMARK INTER + INTRA:         -10.581
REMARK INTER:                  -9.690
REMARK INTRA:                  -0.891
REMARK UNBOUND:                -0.946
REMARK  Name = 
REMARK  7 active torsions:
REMARK  status: ('A' for Active; 'I' for Inactive)
REMARK    1  A    between atoms: C_2  and  C_3
REMARK    2  A    between atoms: C_7  and  C_8
REMARK    3  A    between atoms: N_10  and  C_11
REMARK    4  A    between atoms: C_11  and  C_12
REMARK    5  A    between atoms: C_15  and  C_16
REMARK    6  A    between atoms: C_16  and  N_17
REMARK    7  A    between atoms: C_18  and  C_20
REMARK                            x       y       z     vdW  Elec       q    Type
REMARK                         _______ _______ _______ _____ _____    ______ ____
ROOT
ATOM      1  C   UNL     1      49.144   7.044  13.895  0.00  0.00    +0.000 A 
ATOM      2  C   UNL     1      50.180   7.744  14.532  0.00  0.00    +0.000 A 
ATOM      3  C   UNL     1      51.100   8.501  13.792  0.00  0.00    +0.000 A 
ATOM      4  C   UNL     1      50.993   8.592  12.398  0.00  0.00    +0.000 A 
ATOM      5  C   UNL     1      49.969   7.879  11.760  0.00  0.00    +0.000 A 
ATOM      6  C   UNL     1      49.049   7.125  12.500  0.00  0.00    +0.000 A 
ENDROOT
BRANCH   1   7
ATOM      7  C   UNL     1      48.169   6.215  14.696  0.00  0.00    +0.000 C 
BRANCH   7  10
ATOM      8  C   UNL     1      46.692   4.560  13.614  0.00  0.00    +0.000 C 
ATOM      9  O   UNL     1      47.398   3.604  13.919  0.00  0.00    +0.000 OA
ATOM     10  N   UNL     1      46.982   5.868  13.952  0.00  0.00    +0.000 N 
ATOM     11  H   UNL     1      46.350   6.592  13.623  0.00  0.00    +0.000 HD
BRANCH   8  16
ATOM     12  C   UNL     1      44.379   3.391  11.017  0.00  0.00    +0.000 A 
ATOM     13  C   UNL     1      43.158   3.969  11.345  0.00  0.00    +0.000 A 
ATOM     14  C   UNL     1      43.094   4.780  12.475  0.00  0.00    +0.000 A 
ATOM     15  C   UNL     1      44.243   4.985  13.232  0.00  0.00    +0.000 A 
ATOM     16  C   UNL     1      45.424   4.367  12.831  0.00  0.00    +0.000 A 
ATOM     17  N   UNL     1      45.520   3.565  11.734  0.00  0.00    +0.000 NA
BRANCH  12  19
ATOM     18  N   UNL     1      44.576   1.842   8.939  0.00  0.00    +0.000 NA
ATOM     19  C   UNL     1      44.495   2.551   9.860  0.00  0.00    +0.000 C 
ENDBRANCH  12  19
ENDBRANCH   8  16
ENDBRANCH   7  10
ENDBRANCH   1   7
BRANCH   4  20
ATOM     20  C   UNL     1      51.961   9.424  11.589  0.00  0.00    +0.000 C 
BRANCH  20  21
ATOM     21  N   UNL     1      52.137   8.898  10.260  0.00  0.00    +0.000 N 
ATOM     22  C   UNL     1      53.391   8.709   9.726  0.00  0.00    +0.000 C 
ATOM     23  O   UNL     1      54.414   8.941  10.363  0.00  0.00    +0.000 OA
ATOM     24  H   UNL     1      51.343   8.960   9.634  0.00  0.00    +0.000 HD
BRANCH  22  25
ATOM     25  C   UNL     1      53.442   8.149   8.370  0.00  0.00    +0.000 A 
ATOM     26  C   UNL     1      53.341   8.988   7.268  0.00  0.00    +0.000 A 
ATOM     27  S   UNL     1      53.479   8.174   5.774  0.00  0.00    +0.000 S 
ATOM     28  C   UNL     1      53.623   6.664   6.548  0.00  0.00    +0.000 A 
ATOM     29  N   UNL     1      53.749   5.516   5.829  0.00  0.00    +0.000 NA
ATOM     30  C   UNL     1      53.818   4.443   6.545  0.00  0.00    +0.000 A 
ATOM     31  N   UNL     1      53.779   4.415   7.915  0.00  0.00    +0.000 N 
ATOM     32  C   UNL     1      53.683   5.550   8.682  0.00  0.00    +0.000 A 
ATOM     33  O   UNL     1      53.696   5.493   9.907  0.00  0.00    +0.000 OA
ATOM     34  C   UNL     1      53.588   6.784   7.926  0.00  0.00    +0.000 A 
ATOM     35  H   UNL     1      53.849   3.544   8.418  0.00  0.00    +0.000 HD
ENDBRANCH  22  25
ENDBRANCH  20  21
ENDBRANCH   4  20
TORSDOF 7
ENDMDL
MODEL 5
REMARK VINA RESULT:    -6.764      6.013      9.136
REMARK INTER + INTRA:         -10.478
REMARK INTER:                  -9.452
REMARK INTRA:                  -1.026
REMARK UNBOUND:                -0.946
REMARK  Name = 
REMARK  7 active torsions:
REMARK  status: ('A' for Active; 'I' for Inactive)
REMARK    1  A    between atoms: C_2  and  C_3
REMARK    2  A    between atoms: C_7  and  C_8
REMARK    3  A    between atoms: N_10  and  C_11
REMARK    4  A    between atoms: C_11  and  C_12
REMARK    5  A    between atoms: C_15  and  C_16
REMARK    6  A    between atoms: C_16  and  N_17
REMARK    7  A    between atoms: C_18  and  C_20
REMARK                            x       y       z     vdW  Elec       q    Type
REMARK                         _______ _______ _______ _____ _____    ______ ____
ROOT
ATOM      1  C   UNL     1      49.781   9.341  11.447  0.00  0.00    +0.000 A 
ATOM      2  C   UNL     1      48.825  10.315  11.769  0.00  0.00    +0.000 A 
ATOM      3  C   UNL     1      47.564   9.951  12.263  0.00  0.00    +0.000 A 
ATOM      4  C   UNL     1      47.237   8.604  12.466  0.00  0.00    +0.000 A 
ATOM      5  C   UNL     1      48.187   7.630  12.128  0.00  0.00    +0.000 A 
ATOM      6  C   UNL     1      49.447   7.994  11.637  0.00  0.00    +0.000 A 
ENDROOT
BRANCH   1   7
ATOM      7  C   UNL     1      51.130   9.739  10.897  0.00  0.00    +0.000 C 
BRANCH   7  10
ATOM      8  C   UNL     1      53.072   8.232  11.111  0.00  0.00    +0.000 C 
ATOM      9  O   UNL     1      53.518   8.806  12.099  0.00  0.00    +0.000 OA
ATOM     10  N   UNL     1      51.914   8.609  10.459  0.00  0.00    +0.000 N 
ATOM     11  H   UNL     1      51.648   8.088   9.629  0.00  0.00    +0.000 HD
BRANCH   8  16
ATOM     12  C   UNL     1      53.957   5.540   8.780  0.00  0.00    +0.000 A 
ATOM     13  C   UNL     1      55.009   4.871   9.395  0.00  0.00    +0.000 A 
ATOM     14  C   UNL     1      55.448   5.330  10.634  0.00  0.00    +0.000 A 
ATOM     15  C   UNL     1      54.825   6.431  11.212  0.00  0.00    +0.000 A 
ATOM     16  C   UNL     1      53.778   7.041  10.526  0.00  0.00    +0.000 A 
ATOM     17  N   UNL     1      53.328   6.620   9.311  0.00  0.00    +0.000 NA
BRANCH  12  19
ATOM     18  N   UNL     1      53.044   4.773   6.470  0.00  0.00    +0.000 NA
ATOM     19  C   UNL     1      53.466   5.102   7.505  0.00  0.00    +0.000 C 
ENDBRANCH  12  19
ENDBRANCH   8  16
ENDBRANCH   7  10
ENDBRANCH   1   7
BRANCH   4  20
ATOM     20  C   UNL     1      45.892   8.196  13.022  0.00  0.00    +0.000 C 
BRANCH  20  21
ATOM     21  N   UNL     1      45.552   6.845  12.661  0.00  0.00    +0.000 N 
ATOM     22  C   UNL     1      44.581   6.578  11.723  0.00  0.00    +0.000 C 
ATOM     23  O   UNL     1      43.988   7.470  11.125  0.00  0.00    +0.000 OA
ATOM     24  H   UNL     1      45.814   6.116  13.314  0.00  0.00    +0.000 HD
BRANCH  22  25
ATOM     25  C   UNL     1      44.337   5.162  11.425  0.00  0.00    +0.000 A 
ATOM     26  C   UNL     1      43.595   4.385  12.306  0.00  0.00    +0.000 A 
ATOM     27  S   UNL     1      43.362   2.780  11.772  0.00  0.00    +0.000 S 
ATOM     28  C   UNL     1      44.290   3.053  10.372  0.00  0.00    +0.000 A 
ATOM     29  N   UNL     1      44.513   2.056   9.473  0.00  0.00    +0.000 NA
ATOM     30  C   UNL     1      45.259   2.396   8.474  0.00  0.00    +0.000 A 
ATOM     31  N   UNL     1      45.797   3.644   8.290  0.00  0.00    +0.000 N 
ATOM     32  C   UNL     1      45.574   4.688   9.155  0.00  0.00    +0.000 A 
ATOM     33  O   UNL     1      46.032   5.804   8.937  0.00  0.00    +0.000 OA
ATOM     34  C   UNL     1      44.753   4.355  10.303  0.00  0.00    +0.000 A 
ATOM     35  H   UNL     1      46.363   3.851   7.482  0.00  0.00    +0.000 HD
ENDBRANCH  22  25
ENDBRANCH  20  21
ENDBRANCH   4  20
TORSDOF 7
ENDMDL
MODEL 6
REMARK VINA RESULT:    -6.749      1.763      2.446
REMARK INTER + INTRA:         -10.457
REMARK INTER:                  -9.403
REMARK INTRA:                  -1.054
REMARK UNBOUND:                -0.946
REMARK  Name = 
REMARK  7 active torsions:
REMARK  status: ('A' for Active; 'I' for Inactive)
REMARK    1  A    between atoms: C_2  and  C_3
REMARK    2  A    between atoms: C_7  and  C_8
REMARK    3  A    between atoms: N_10  and  C_11
REMARK    4  A    between atoms: C_11  and  C_12
REMARK    5  A    between atoms: C_15  and  C_16
REMARK    6  A    between atoms: C_16  and  N_17
REMARK    7  A    between atoms: C_18  and  C_20
REMARK                            x       y       z     vdW  Elec       q    Type
REMARK                         _______ _______ _______ _____ _____    ______ ____
ROOT
ATOM      1  C   UNL     1      47.824   7.886  13.429  0.00  0.00    +0.000 A 
ATOM      2  C   UNL     1      48.192   6.618  13.903  0.00  0.00    +0.000 A 
ATOM      3  C   UNL     1      48.639   6.444  15.221  0.00  0.00    +0.000 A 
ATOM      4  C   UNL     1      48.709   7.531  16.102  0.00  0.00    +0.000 A 
ATOM      5  C   UNL     1      48.359   8.800  15.623  0.00  0.00    +0.000 A 
ATOM      6  C   UNL     1      47.909   8.974  14.307  0.00  0.00    +0.000 A 
ENDROOT
BRANCH   1   7
ATOM      7  C   UNL     1      47.362   8.070  12.003  0.00  0.00    +0.000 C 
BRANCH   7  10
ATOM      8  C   UNL     1      45.498   6.605  11.319  0.00  0.00    +0.000 C 
ATOM      9  O   UNL     1      44.632   7.382  11.708  0.00  0.00    +0.000 OA
ATOM     10  N   UNL     1      46.853   6.854  11.415  0.00  0.00    +0.000 N 
ATOM     11  H   UNL     1      47.491   6.131  11.094  0.00  0.00    +0.000 HD
BRANCH   8  16
ATOM     12  C   UNL     1      45.297   3.882   8.868  0.00  0.00    +0.000 A 
ATOM     13  C   UNL     1      44.501   2.918   9.475  0.00  0.00    +0.000 A 
ATOM     14  C   UNL     1      44.009   3.177  10.751  0.00  0.00    +0.000 A 
ATOM     15  C   UNL     1      44.326   4.381  11.372  0.00  0.00    +0.000 A 
ATOM     16  C   UNL     1      45.131   5.290  10.691  0.00  0.00    +0.000 A 
ATOM     17  N   UNL     1      45.631   5.066   9.444  0.00  0.00    +0.000 NA
BRANCH  12  19
ATOM     18  N   UNL     1      46.284   3.497   6.494  0.00  0.00    +0.000 NA
ATOM     19  C   UNL     1      45.824   3.663   7.551  0.00  0.00    +0.000 C 
ENDBRANCH  12  19
ENDBRANCH   8  16
ENDBRANCH   7  10
ENDBRANCH   1   7
BRANCH   4  20
ATOM     20  C   UNL     1      49.165   7.356  17.532  0.00  0.00    +0.000 C 
BRANCH  20  21
ATOM     21  N   UNL     1      50.142   6.306  17.658  0.00  0.00    +0.000 N 
ATOM     22  C   UNL     1      50.594   5.892  18.890  0.00  0.00    +0.000 C 
ATOM     23  O   UNL     1      50.164   6.367  19.937  0.00  0.00    +0.000 OA
ATOM     24  H   UNL     1      50.700   6.098  16.837  0.00  0.00    +0.000 HD
BRANCH  22  25
ATOM     25  C   UNL     1      51.576   4.801  18.889  0.00  0.00    +0.000 A 
ATOM     26  C   UNL     1      52.785   4.955  19.555  0.00  0.00    +0.000 A 
ATOM     27  S   UNL     1      53.777   3.567  19.499  0.00  0.00    +0.000 S 
ATOM     28  C   UNL     1      52.649   2.732  18.537  0.00  0.00    +0.000 A 
ATOM     29  N   UNL     1      52.897   1.467  18.103  0.00  0.00    +0.000 NA
ATOM     30  C   UNL     1      51.968   0.967  17.356  0.00  0.00    +0.000 A 
ATOM     31  N   UNL     1      50.811   1.616  17.010  0.00  0.00    +0.000 N 
ATOM     32  C   UNL     1      50.505   2.881  17.449  0.00  0.00    +0.000 A 
ATOM     33  O   UNL     1      49.440   3.415  17.158  0.00  0.00    +0.000 OA
ATOM     34  C   UNL     1      51.523   3.494  18.280  0.00  0.00    +0.000 A 
ATOM     35  H   UNL     1      50.118   1.167  16.432  0.00  0.00    +0.000 HD
ENDBRANCH  22  25
ENDBRANCH  20  21
ENDBRANCH   4  20
TORSDOF 7
ENDMDL
MODEL 7
REMARK VINA RESULT:    -6.516      3.293      9.779
REMARK INTER + INTRA:         -10.129
REMARK INTER:                  -9.187
REMARK INTRA:                  -0.941
REMARK UNBOUND:                -0.946
REMARK  Name = 
REMARK  7 active torsions:
REMARK  status: ('A' for Active; 'I' for Inactive)
REMARK    1  A    between atoms: C_2  and  C_3
REMARK    2  A    between atoms: C_7  and  C_8
REMARK    3  A    between atoms: N_10  and  C_11
REMARK    4  A    between atoms: C_11  and  C_12
REMARK    5  A    between atoms: C_15  and  C_16
REMARK    6  A    between atoms: C_16  and  N_17
REMARK    7  A    between atoms: C_18  and  C_20
REMARK                            x       y       z     vdW  Elec       q    Type
REMARK                         _______ _______ _______ _____ _____    ______ ____
ROOT
ATOM      1  C   UNL     1      50.815   8.169  13.984  0.00  0.00    +0.000 A 
ATOM      2  C   UNL     1      49.618   7.776  14.601  0.00  0.00    +0.000 A 
ATOM      3  C   UNL     1      48.404   7.800  13.898  0.00  0.00    +0.000 A 
ATOM      4  C   UNL     1      48.362   8.199  12.556  0.00  0.00    +0.000 A 
ATOM      5  C   UNL     1      49.556   8.608  11.946  0.00  0.00    +0.000 A 
ATOM      6  C   UNL     1      50.768   8.581  12.646  0.00  0.00    +0.000 A 
ENDROOT
BRANCH   1   7
ATOM      7  C   UNL     1      52.116   8.160  14.752  0.00  0.00    +0.000 C 
BRANCH   7  10
ATOM      8  C   UNL     1      52.209   6.939  16.895  0.00  0.00    +0.000 C 
ATOM      9  O   UNL     1      51.947   7.930  17.569  0.00  0.00    +0.000 OA
ATOM     10  N   UNL     1      52.308   6.951  15.517  0.00  0.00    +0.000 N 
ATOM     11  H   UNL     1      52.562   6.083  15.054  0.00  0.00    +0.000 HD
BRANCH   8  16
ATOM     12  C   UNL     1      51.835   3.385  17.724  0.00  0.00    +0.000 A 
ATOM     13  C   UNL     1      52.810   3.141  18.683  0.00  0.00    +0.000 A 
ATOM     14  C   UNL     1      53.631   4.196  19.074  0.00  0.00    +0.000 A 
ATOM     15  C   UNL     1      53.448   5.449  18.498  0.00  0.00    +0.000 A 
ATOM     16  C   UNL     1      52.446   5.605  17.543  0.00  0.00    +0.000 A 
ATOM     17  N   UNL     1      51.630   4.593  17.136  0.00  0.00    +0.000 NA
BRANCH  12  19
ATOM     18  N   UNL     1      50.272   1.451  16.965  0.00  0.00    +0.000 NA
ATOM     19  C   UNL     1      50.963   2.330  17.292  0.00  0.00    +0.000 C 
ENDBRANCH  12  19
ENDBRANCH   8  16
ENDBRANCH   7  10
ENDBRANCH   1   7
BRANCH   4  20
ATOM     20  C   UNL     1      47.067   8.206  11.778  0.00  0.00    +0.000 C 
BRANCH  20  21
ATOM     21  N   UNL     1      46.515   6.882  11.646  0.00  0.00    +0.000 N 
ATOM     22  C   UNL     1      45.164   6.684  11.481  0.00  0.00    +0.000 C 
ATOM     23  O   UNL     1      44.371   7.617  11.402  0.00  0.00    +0.000 OA
ATOM     24  H   UNL     1      47.086   6.113  11.976  0.00  0.00    +0.000 HD
BRANCH  22  25
ATOM     25  C   UNL     1      44.724   5.291  11.339  0.00  0.00    +0.000 A 
ATOM     26  C   UNL     1      43.995   4.685  12.354  0.00  0.00    +0.000 A 
ATOM     27  S   UNL     1      43.519   3.086  11.994  0.00  0.00    +0.000 S 
ATOM     28  C   UNL     1      44.317   3.129  10.491  0.00  0.00    +0.000 A 
ATOM     29  N   UNL     1      44.324   2.044   9.669  0.00  0.00    +0.000 NA
ATOM     30  C   UNL     1      44.994   2.208   8.577  0.00  0.00    +0.000 A 
ATOM     31  N   UNL     1      45.651   3.360   8.229  0.00  0.00    +0.000 N 
ATOM     32  C   UNL     1      45.646   4.488   9.013  0.00  0.00    +0.000 A 
ATOM     33  O   UNL     1      46.207   5.516   8.650  0.00  0.00    +0.000 OA
ATOM     34  C   UNL     1      44.919   4.352  10.260  0.00  0.00    +0.000 A 
ATOM     35  H   UNL     1      46.148   3.429   7.354  0.00  0.00    +0.000 HD
ENDBRANCH  22  25
ENDBRANCH  20  21
ENDBRANCH   4  20
TORSDOF 7
ENDMDL
MODEL 8
REMARK VINA RESULT:    -6.436      2.140      3.408
REMARK INTER + INTRA:         -10.015
REMARK INTER:                  -8.980
REMARK INTRA:                  -1.035
REMARK UNBOUND:                -0.946
REMARK  Name = 
REMARK  7 active torsions:
REMARK  status: ('A' for Active; 'I' for Inactive)
REMARK    1  A    between atoms: C_2  and  C_3
REMARK    2  A    between atoms: C_7  and  C_8
REMARK    3  A    between atoms: N_10  and  C_11
REMARK    4  A    between atoms: C_11  and  C_12
REMARK    5  A    between atoms: C_15  and  C_16
REMARK    6  A    between atoms: C_16  and  N_17
REMARK    7  A    between atoms: C_18  and  C_20
REMARK                            x       y       z     vdW  Elec       q    Type
REMARK                         _______ _______ _______ _____ _____    ______ ____
ROOT
ATOM      1  C   UNL     1      48.606   6.479  15.673  0.00  0.00    +0.000 A 
ATOM      2  C   UNL     1      49.275   7.385  16.508  0.00  0.00    +0.000 A 
ATOM      3  C   UNL     1      49.661   7.019  17.806  0.00  0.00    +0.000 A 
ATOM      4  C   UNL     1      49.403   5.730  18.292  0.00  0.00    +0.000 A 
ATOM      5  C   UNL     1      48.719   4.831  17.463  0.00  0.00    +0.000 A 
ATOM      6  C   UNL     1      48.336   5.196  16.166  0.00  0.00    +0.000 A 
ENDROOT
BRANCH   1   7
ATOM      7  C   UNL     1      48.175   6.887  14.284  0.00  0.00    +0.000 C 
BRANCH   7  10
ATOM      8  C   UNL     1      46.542   6.293  12.532  0.00  0.00    +0.000 C 
ATOM      9  O   UNL     1      47.089   6.974  11.671  0.00  0.00    +0.000 OA
ATOM     10  N   UNL     1      46.999   6.184  13.831  0.00  0.00    +0.000 N 
ATOM     11  H   UNL     1      46.455   5.620  14.477  0.00  0.00    +0.000 HD
BRANCH   8  16
ATOM     12  C   UNL     1      44.305   3.842  10.966  0.00  0.00    +0.000 A 
ATOM     13  C   UNL     1      43.078   4.033  11.591  0.00  0.00    +0.000 A 
ATOM     14  C   UNL     1      42.984   5.014  12.576  0.00  0.00    +0.000 A 
ATOM     15  C   UNL     1      44.111   5.765  12.897  0.00  0.00    +0.000 A 
ATOM     16  C   UNL     1      45.300   5.507  12.221  0.00  0.00    +0.000 A 
ATOM     17  N   UNL     1      45.426   4.553  11.257  0.00  0.00    +0.000 NA
BRANCH  12  19
ATOM     18  N   UNL     1      44.591   2.022   9.133  0.00  0.00    +0.000 NA
ATOM     19  C   UNL     1      44.449   2.847   9.943  0.00  0.00    +0.000 C 
ENDBRANCH  12  19
ENDBRANCH   8  16
ENDBRANCH   7  10
ENDBRANCH   1   7
BRANCH   4  20
ATOM     20  C   UNL     1      49.835   5.312  19.678  0.00  0.00    +0.000 C 
BRANCH  20  21
ATOM     21  N   UNL     1      50.892   4.335  19.637  0.00  0.00    +0.000 N 
ATOM     22  C   UNL     1      52.206   4.710  19.477  0.00  0.00    +0.000 C 
ATOM     23  O   UNL     1      52.545   5.887  19.399  0.00  0.00    +0.000 OA
ATOM     24  H   UNL     1      50.627   3.381  19.425  0.00  0.00    +0.000 HD
BRANCH  22  25
ATOM     25  C   UNL     1      53.195   3.626  19.470  0.00  0.00    +0.000 A 
ATOM     26  C   UNL     1      54.322   3.708  20.278  0.00  0.00    +0.000 A 
ATOM     27  S   UNL     1      55.332   2.335  20.186  0.00  0.00    +0.000 S 
ATOM     28  C   UNL     1      54.326   1.606  19.022  0.00  0.00    +0.000 A 
ATOM     29  N   UNL     1      54.636   0.394  18.486  0.00  0.00    +0.000 NA
ATOM     30  C   UNL     1      53.801  -0.023  17.593  0.00  0.00    +0.000 A 
ATOM     31  N   UNL     1      52.681   0.658  17.192  0.00  0.00    +0.000 N 
ATOM     32  C   UNL     1      52.313   1.869  17.726  0.00  0.00    +0.000 A 
ATOM     33  O   UNL     1      51.280   2.431  17.377  0.00  0.00    +0.000 OA
ATOM     34  C   UNL     1      53.226   2.390  18.724  0.00  0.00    +0.000 A 
ATOM     35  H   UNL     1      52.060   0.273  16.496  0.00  0.00    +0.000 HD
ENDBRANCH  22  25
ENDBRANCH  20  21
ENDBRANCH   4  20
TORSDOF 7
ENDMDL
MODEL 9
REMARK VINA RESULT:    -6.390      5.848      7.246
REMARK INTER + INTRA:          -9.951
REMARK INTER:                  -9.049
REMARK INTRA:                  -0.902
REMARK UNBOUND:                -0.946
REMARK  Name = 
REMARK  7 active torsions:
REMARK  status: ('A' for Active; 'I' for Inactive)
REMARK    1  A    between atoms: C_2  and  C_3
REMARK    2  A    between atoms: C_7  and  C_8
REMARK    3  A    between atoms: N_10  and  C_11
REMARK    4  A    between atoms: C_11  and  C_12
REMARK    5  A    between atoms: C_15  and  C_16
REMARK    6  A    between atoms: C_16  and  N_17
REMARK    7  A    between atoms: C_18  and  C_20
REMARK                            x       y       z     vdW  Elec       q    Type
REMARK                         _______ _______ _______ _____ _____    ______ ____
ROOT
ATOM      1  C   UNL     1      47.490   8.475  12.054  0.00  0.00    +0.000 A 
ATOM      2  C   UNL     1      48.478   7.487  11.932  0.00  0.00    +0.000 A 
ATOM      3  C   UNL     1      49.792   7.822  11.570  0.00  0.00    +0.000 A 
ATOM      4  C   UNL     1      50.152   9.157  11.342  0.00  0.00    +0.000 A 
ATOM      5  C   UNL     1      49.160  10.141  11.447  0.00  0.00    +0.000 A 
ATOM      6  C   UNL     1      47.850   9.807  11.811  0.00  0.00    +0.000 A 
ENDROOT
BRANCH   1   7
ATOM      7  C   UNL     1      46.074   8.105  12.424  0.00  0.00    +0.000 C 
BRANCH   7  10
ATOM      8  C   UNL     1      45.453   5.717  12.393  0.00  0.00    +0.000 C 
ATOM      9  O   UNL     1      45.692   5.551  13.585  0.00  0.00    +0.000 OA
ATOM     10  N   UNL     1      45.604   6.925  11.739  0.00  0.00    +0.000 N 
ATOM     11  H   UNL     1      45.410   6.950  10.743  0.00  0.00    +0.000 HD
BRANCH   8  16
ATOM     12  C   UNL     1      44.943   3.567   9.464  0.00  0.00    +0.000 A 
ATOM     13  C   UNL     1      44.109   2.550   9.913  0.00  0.00    +0.000 A 
ATOM     14  C   UNL     1      43.697   2.573  11.243  0.00  0.00    +0.000 A 
ATOM     15  C   UNL     1      44.128   3.604  12.071  0.00  0.00    +0.000 A 
ATOM     16  C   UNL     1      44.963   4.582  11.538  0.00  0.00    +0.000 A 
ATOM     17  N   UNL     1      45.387   4.587  10.244  0.00  0.00    +0.000 NA
BRANCH  12  19
ATOM     18  N   UNL     1      45.787   3.609   7.005  0.00  0.00    +0.000 NA
ATOM     19  C   UNL     1      45.389   3.590   8.100  0.00  0.00    +0.000 C 
ENDBRANCH  12  19
ENDBRANCH   8  16
ENDBRANCH   7  10
ENDBRANCH   1   7
BRANCH   4  20
ATOM     20  C   UNL     1      51.568   9.537  10.976  0.00  0.00    +0.000 C 
BRANCH  20  21
ATOM     21  N   UNL     1      52.375   8.380  10.687  0.00  0.00    +0.000 N 
ATOM     22  C   UNL     1      53.121   8.298   9.534  0.00  0.00    +0.000 C 
ATOM     23  O   UNL     1      53.166   9.214   8.718  0.00  0.00    +0.000 OA
ATOM     24  H   UNL     1      52.147   7.527  11.184  0.00  0.00    +0.000 HD
BRANCH  22  25
ATOM     25  C   UNL     1      53.918   7.078   9.361  0.00  0.00    +0.000 A 
ATOM     26  C   UNL     1      54.973   6.809  10.223  0.00  0.00    +0.000 A 
ATOM     27  S   UNL     1      55.749   5.321   9.910  0.00  0.00    +0.000 S 
ATOM     28  C   UNL     1      54.737   5.011   8.578  0.00  0.00    +0.000 A 
ATOM     29  N   UNL     1      54.888   3.885   7.829  0.00  0.00    +0.000 NA
ATOM     30  C   UNL     1      54.072   3.794   6.831  0.00  0.00    +0.000 A 
ATOM     31  N   UNL     1      53.114   4.724   6.519  0.00  0.00    +0.000 N 
ATOM     32  C   UNL     1      52.906   5.860   7.263  0.00  0.00    +0.000 A 
ATOM     33  O   UNL     1      52.011   6.649   6.982  0.00  0.00    +0.000 OA
ATOM     34  C   UNL     1      53.807   6.017   8.388  0.00  0.00    +0.000 A 
ATOM     35  H   UNL     1      52.499   4.590   5.731  0.00  0.00    +0.000 HD
ENDBRANCH  22  25
ENDBRANCH  20  21
ENDBRANCH   4  20
TORSDOF 7
ENDMDL
