MODEL 1
REMARK VINA RESULT:    -8.234      0.000      0.000
REMARK INTER + INTRA:         -11.977
REMARK INTER:                 -11.122
REMARK INTRA:                  -0.856
REMARK UNBOUND:                -0.856
REMARK  Name = 
REMARK  7 active torsions:
REMARK  status: ('A' for Active; 'I' for Inactive)
REMARK    1  A    between atoms: C_1  and  C_2
REMARK    2  A    between atoms: C_6  and  S_7
REMARK    3  A    between atoms: S_7  and  C_8
REMARK    4  A    between atoms: C_8  and  C_9
REMARK    5  A    between atoms: C_12  and  C_13
REMARK    6  A    between atoms: C_13  and  N_14
REMARK    7  A    between atoms: C_15  and  C_17
REMARK                            x       y       z     vdW  Elec       q    Type
REMARK                         _______ _______ _______ _____ _____    ______ ____
ROOT
ATOM      1  C   UNL     1      47.387   8.279  13.473  0.00  0.00    +0.000 C 
ENDROOT
BRANCH   1   5
ATOM      2  C   UNL     1      44.653   5.880  11.212  0.00  0.00    +0.000 A 
ATOM      3  C   UNL     1      44.352   7.220  11.481  0.00  0.00    +0.000 A 
ATOM      4  C   UNL     1      45.244   8.012  12.197  0.00  0.00    +0.000 A 
ATOM      5  C   UNL     1      46.411   7.438  12.687  0.00  0.00    +0.000 A 
ATOM      6  N   UNL     1      46.720   6.133  12.474  0.00  0.00    +0.000 NA
ATOM      7  C   UNL     1      45.844   5.394  11.751  0.00  0.00    +0.000 A 
BRANCH   2   8
ATOM      8  C   UNL     1      43.726   4.957  10.459  0.00  0.00    +0.000 C 
BRANCH   8   9
ATOM      9  S   UNL     1      44.138   3.185  10.665  0.00  0.00    +0.000 S 
BRANCH   9  15
ATOM     10  C   UNL     1      46.806   0.032   7.661  0.00  0.00    +0.000 C 
ATOM     11  C   UNL     1      46.332   1.436   7.881  0.00  0.00    +0.000 A 
ATOM     12  C   UNL     1      46.682   2.460   7.006  0.00  0.00    +0.000 A 
ATOM     13  C   UNL     1      46.210   3.742   7.259  0.00  0.00    +0.000 A 
ATOM     14  C   UNL     1      45.413   3.964   8.376  0.00  0.00    +0.000 A 
ATOM     15  C   UNL     1      45.116   2.892   9.209  0.00  0.00    +0.000 A 
ATOM     16  N   UNL     1      45.559   1.640   8.974  0.00  0.00    +0.000 NA
ENDBRANCH   9  15
ENDBRANCH   8   9
ENDBRANCH   2   8
ENDBRANCH   1   5
BRANCH   1  17
ATOM     17  N   UNL     1      47.671   7.725  14.776  0.00  0.00    +0.000 N 
ATOM     18  C   UNL     1      48.848   7.091  15.071  0.00  0.00    +0.000 C 
ATOM     19  O   UNL     1      49.743   6.957  14.239  0.00  0.00    +0.000 OA
ATOM     20  H   UNL     1      46.871   7.620  15.392  0.00  0.00    +0.000 HD
BRANCH  18  21
ATOM     21  C   UNL     1      49.024   6.643  16.460  0.00  0.00    +0.000 A 
ATOM     22  C   UNL     1      49.574   7.510  17.395  0.00  0.00    +0.000 A 
ATOM     23  S   UNL     1      49.669   6.856  18.967  0.00  0.00    +0.000 S 
ATOM     24  C   UNL     1      49.021   5.371  18.447  0.00  0.00    +0.000 A 
ATOM     25  N   UNL     1      48.856   4.338  19.317  0.00  0.00    +0.000 NA
ATOM     26  C   UNL     1      48.384   3.262  18.784  0.00  0.00    +0.000 A 
ATOM     27  N   UNL     1      48.052   3.127  17.461  0.00  0.00    +0.000 N 
ATOM     28  C   UNL     1      48.150   4.160  16.559  0.00  0.00    +0.000 A 
ATOM     29  O   UNL     1      47.755   4.032  15.405  0.00  0.00    +0.000 OA
ATOM     30  C   UNL     1      48.711   5.383  17.097  0.00  0.00    +0.000 A 
ATOM     31  H   UNL     1      47.666   2.264  17.109  0.00  0.00    +0.000 HD
ENDBRANCH  18  21
ENDBRANCH   1  17
TORSDOF 6
ENDMDL
MODEL 2
REMARK VINA RESULT:    -8.184      1.390      1.746
REMARK INTER + INTRA:         -11.910
REMARK INTER:                 -11.150
REMARK INTRA:                  -0.760
REMARK UNBOUND:                -0.856
REMARK  Name = 
REMARK  7 active torsions:
REMARK  status: ('A' for Active; 'I' for Inactive)
REMARK    1  A    between atoms: C_1  and  C_2
REMARK    2  A    between atoms: C_6  and  S_7
REMARK    3  A    between atoms: S_7  and  C_8
REMARK    4  A    between atoms: C_8  and  C_9
REMARK    5  A    between atoms: C_12  and  C_13
REMARK    6  A    between atoms: C_13  and  N_14
REMARK    7  A    between atoms: C_15  and  C_17
REMARK                            x       y       z     vdW  Elec       q    Type
REMARK                         _______ _______ _______ _____ _____    ______ ____
ROOT
ATOM      1  C   UNL     1      48.396   6.920  13.853  0.00  0.00    +0.000 C 
ENDROOT
BRANCH   1   5
ATOM      2  C   UNL     1      45.064   5.384  11.645  0.00  0.00    +0.000 A 
ATOM      3  C   UNL     1      45.468   4.757  12.829  0.00  0.00    +0.000 A 
ATOM      4  C   UNL     1      46.537   5.262  13.563  0.00  0.00    +0.000 A 
ATOM      5  C   UNL     1      47.229   6.363  13.075  0.00  0.00    +0.000 A 
ATOM      6  N   UNL     1      46.886   6.977  11.913  0.00  0.00    +0.000 NA
ATOM      7  C   UNL     1      45.825   6.478  11.233  0.00  0.00    +0.000 A 
BRANCH   2   8
ATOM      8  C   UNL     1      43.927   4.882  10.788  0.00  0.00    +0.000 C 
BRANCH   8   9
ATOM      9  S   UNL     1      43.921   3.063  10.580  0.00  0.00    +0.000 S 
BRANCH   9  15
ATOM     10  C   UNL     1      46.860   0.128   7.609  0.00  0.00    +0.000 C 
ATOM     11  C   UNL     1      46.369   1.514   7.890  0.00  0.00    +0.000 A 
ATOM     12  C   UNL     1      46.800   2.599   7.133  0.00  0.00    +0.000 A 
ATOM     13  C   UNL     1      46.306   3.861   7.438  0.00  0.00    +0.000 A 
ATOM     14  C   UNL     1      45.407   4.004   8.488  0.00  0.00    +0.000 A 
ATOM     15  C   UNL     1      45.032   2.874   9.205  0.00  0.00    +0.000 A 
ATOM     16  N   UNL     1      45.495   1.640   8.918  0.00  0.00    +0.000 NA
ENDBRANCH   9  15
ENDBRANCH   8   9
ENDBRANCH   2   8
ENDBRANCH   1   5
BRANCH   1  17
ATOM     17  N   UNL     1      48.123   7.013  15.269  0.00  0.00    +0.000 N 
ATOM     18  C   UNL     1      49.053   6.702  16.225  0.00  0.00    +0.000 C 
ATOM     19  O   UNL     1      50.186   6.325  15.934  0.00  0.00    +0.000 OA
ATOM     20  H   UNL     1      47.143   7.093  15.522  0.00  0.00    +0.000 HD
BRANCH  18  21
ATOM     21  C   UNL     1      48.654   6.914  17.624  0.00  0.00    +0.000 A 
ATOM     22  C   UNL     1      48.295   8.187  18.048  0.00  0.00    +0.000 A 
ATOM     23  S   UNL     1      47.817   8.258  19.683  0.00  0.00    +0.000 S 
ATOM     24  C   UNL     1      48.116   6.596  19.898  0.00  0.00    +0.000 A 
ATOM     25  N   UNL     1      47.926   6.004  21.108  0.00  0.00    +0.000 NA
ATOM     26  C   UNL     1      48.220   4.748  21.139  0.00  0.00    +0.000 A 
ATOM     27  N   UNL     1      48.677   4.027  20.067  0.00  0.00    +0.000 N 
ATOM     28  C   UNL     1      48.829   4.570  18.813  0.00  0.00    +0.000 A 
ATOM     29  O   UNL     1      49.150   3.874  17.856  0.00  0.00    +0.000 OA
ATOM     30  C   UNL     1      48.549   5.991  18.731  0.00  0.00    +0.000 A 
ATOM     31  H   UNL     1      48.868   3.040  20.149  0.00  0.00    +0.000 HD
ENDBRANCH  18  21
ENDBRANCH   1  17
TORSDOF 6
ENDMDL
MODEL 3
REMARK VINA RESULT:    -8.098      2.068      3.373
REMARK INTER + INTRA:         -11.794
REMARK INTER:                 -10.868
REMARK INTRA:                  -0.925
REMARK UNBOUND:                -0.856
REMARK  Name = 
REMARK  7 active torsions:
REMARK  status: ('A' for Active; 'I' for Inactive)
REMARK    1  A    between atoms: C_1  and  C_2
REMARK    2  A    between atoms: C_6  and  S_7
REMARK    3  A    between atoms: S_7  and  C_8
REMARK    4  A    between atoms: C_8  and  C_9
REMARK    5  A    between atoms: C_12  and  C_13
REMARK    6  A    between atoms: C_13  and  N_14
REMARK    7  A    between atoms: C_15  and  C_17
REMARK                            x       y       z     vdW  Elec       q    Type
REMARK                         _______ _______ _______ _____ _____    ______ ____
ROOT
ATOM      1  C   UNL     1      47.591   3.975  15.665  0.00  0.00    +0.000 C 
ENDROOT
BRANCH   1   5
ATOM      2  C   UNL     1      45.577   4.887  11.997  0.00  0.00    +0.000 A 
ATOM      3  C   UNL     1      46.089   5.919  12.791  0.00  0.00    +0.000 A 
ATOM      4  C   UNL     1      46.763   5.630  13.973  0.00  0.00    +0.000 A 
ATOM      5  C   UNL     1      46.871   4.307  14.381  0.00  0.00    +0.000 A 
ATOM      6  N   UNL     1      46.357   3.281  13.654  0.00  0.00    +0.000 NA
ATOM      7  C   UNL     1      45.729   3.592  12.494  0.00  0.00    +0.000 A 
BRANCH   2   8
ATOM      8  C   UNL     1      44.819   5.125  10.714  0.00  0.00    +0.000 C 
BRANCH   8   9
ATOM      9  S   UNL     1      44.028   3.616  10.045  0.00  0.00    +0.000 S 
BRANCH   9  15
ATOM     10  C   UNL     1      46.746   0.004   7.669  0.00  0.00    +0.000 C 
ATOM     11  C   UNL     1      46.442   1.466   7.769  0.00  0.00    +0.000 A 
ATOM     12  C   UNL     1      47.092   2.394   6.961  0.00  0.00    +0.000 A 
ATOM     13  C   UNL     1      46.766   3.738   7.096  0.00  0.00    +0.000 A 
ATOM     14  C   UNL     1      45.810   4.114   8.033  0.00  0.00    +0.000 A 
ATOM     15  C   UNL     1      45.214   3.130   8.811  0.00  0.00    +0.000 A 
ATOM     16  N   UNL     1      45.512   1.820   8.687  0.00  0.00    +0.000 NA
ENDBRANCH   9  15
ENDBRANCH   8   9
ENDBRANCH   2   8
ENDBRANCH   1   5
BRANCH   1  17
ATOM     17  N   UNL     1      47.521   5.046  16.632  0.00  0.00    +0.000 N 
ATOM     18  C   UNL     1      48.627   5.726  17.066  0.00  0.00    +0.000 C 
ATOM     19  O   UNL     1      49.756   5.466  16.653  0.00  0.00    +0.000 OA
ATOM     20  H   UNL     1      46.649   5.115  17.148  0.00  0.00    +0.000 HD
BRANCH  18  21
ATOM     21  C   UNL     1      48.392   6.839  17.997  0.00  0.00    +0.000 A 
ATOM     22  C   UNL     1      48.288   6.583  19.357  0.00  0.00    +0.000 A 
ATOM     23  S   UNL     1      48.062   7.983  20.305  0.00  0.00    +0.000 S 
ATOM     24  C   UNL     1      48.048   8.980  18.926  0.00  0.00    +0.000 A 
ATOM     25  N   UNL     1      47.864  10.323  19.038  0.00  0.00    +0.000 NA
ATOM     26  C   UNL     1      47.845  10.954  17.913  0.00  0.00    +0.000 A 
ATOM     27  N   UNL     1      48.003  10.365  16.685  0.00  0.00    +0.000 N 
ATOM     28  C   UNL     1      48.247   9.022  16.528  0.00  0.00    +0.000 A 
ATOM     29  O   UNL     1      48.477   8.545  15.422  0.00  0.00    +0.000 OA
ATOM     30  C   UNL     1      48.241   8.257  17.761  0.00  0.00    +0.000 A 
ATOM     31  H   UNL     1      48.001  10.918  15.841  0.00  0.00    +0.000 HD
ENDBRANCH  18  21
ENDBRANCH   1  17
TORSDOF 6
ENDMDL
MODEL 4
REMARK VINA RESULT:    -7.446      2.333      2.534
REMARK INTER + INTRA:         -10.913
REMARK INTER:                  -9.968
REMARK INTRA:                  -0.946
REMARK UNBOUND:                -0.856
REMARK  Name = 
REMARK  7 active torsions:
REMARK  status: ('A' for Active; 'I' for Inactive)
REMARK    1  A    between atoms: C_1  and  C_2
REMARK    2  A    between atoms: C_6  and  S_7
REMARK    3  A    between atoms: S_7  and  C_8
REMARK    4  A    between atoms: C_8  and  C_9
REMARK    5  A    between atoms: C_12  and  C_13
REMARK    6  A    between atoms: C_13  and  N_14
REMARK    7  A    between atoms: C_15  and  C_17
REMARK                            x       y       z     vdW  Elec       q    Type
REMARK                         _______ _______ _______ _____ _____    ______ ____
ROOT
ATOM      1  C   UNL     1      48.533   7.541  13.715  0.00  0.00    +0.000 C 
ENDROOT
BRANCH   1   5
ATOM      2  C   UNL     1      45.967   4.421  12.293  0.00  0.00    +0.000 A 
ATOM      3  C   UNL     1      46.034   5.640  11.609  0.00  0.00    +0.000 A 
ATOM      4  C   UNL     1      46.880   6.651  12.052  0.00  0.00    +0.000 A 
ATOM      5  C   UNL     1      47.616   6.453  13.214  0.00  0.00    +0.000 A 
ATOM      6  N   UNL     1      47.551   5.296  13.923  0.00  0.00    +0.000 NA
ATOM      7  C   UNL     1      46.738   4.320  13.452  0.00  0.00    +0.000 A 
BRANCH   2   8
ATOM      8  C   UNL     1      45.059   3.288  11.882  0.00  0.00    +0.000 C 
BRANCH   8   9
ATOM      9  S   UNL     1      44.037   3.671  10.412  0.00  0.00    +0.000 S 
BRANCH   9  15
ATOM     10  C   UNL     1      46.677   0.183   7.778  0.00  0.00    +0.000 C 
ATOM     11  C   UNL     1      46.354   1.635   7.939  0.00  0.00    +0.000 A 
ATOM     12  C   UNL     1      46.941   2.599   7.125  0.00  0.00    +0.000 A 
ATOM     13  C   UNL     1      46.600   3.932   7.319  0.00  0.00    +0.000 A 
ATOM     14  C   UNL     1      45.693   4.262   8.319  0.00  0.00    +0.000 A 
ATOM     15  C   UNL     1      45.159   3.245   9.099  0.00  0.00    +0.000 A 
ATOM     16  N   UNL     1      45.472   1.945   8.919  0.00  0.00    +0.000 NA
ENDBRANCH   9  15
ENDBRANCH   8   9
ENDBRANCH   2   8
ENDBRANCH   1   5
BRANCH   1  17
ATOM     17  N   UNL     1      49.726   7.016  14.340  0.00  0.00    +0.000 N 
ATOM     18  C   UNL     1      50.431   7.708  15.288  0.00  0.00    +0.000 C 
ATOM     19  O   UNL     1      50.089   8.825  15.670  0.00  0.00    +0.000 OA
ATOM     20  H   UNL     1      50.147   6.216  13.878  0.00  0.00    +0.000 HD
BRANCH  18  21
ATOM     21  C   UNL     1      51.582   7.016  15.886  0.00  0.00    +0.000 A 
ATOM     22  C   UNL     1      52.869   7.447  15.592  0.00  0.00    +0.000 A 
ATOM     23  S   UNL     1      54.089   6.571  16.398  0.00  0.00    +0.000 S 
ATOM     24  C   UNL     1      52.944   5.551  17.137  0.00  0.00    +0.000 A 
ATOM     25  N   UNL     1      53.337   4.540  17.957  0.00  0.00    +0.000 NA
ATOM     26  C   UNL     1      52.369   3.826  18.424  0.00  0.00    +0.000 A 
ATOM     27  N   UNL     1      51.042   4.037  18.153  0.00  0.00    +0.000 N 
ATOM     28  C   UNL     1      50.597   5.079  17.375  0.00  0.00    +0.000 A 
ATOM     29  O   UNL     1      49.398   5.294  17.230  0.00  0.00    +0.000 OA
ATOM     30  C   UNL     1      51.647   5.892  16.793  0.00  0.00    +0.000 A 
ATOM     31  H   UNL     1      50.330   3.456  18.568  0.00  0.00    +0.000 HD
ENDBRANCH  18  21
ENDBRANCH   1  17
TORSDOF 6
ENDMDL
MODEL 5
REMARK VINA RESULT:    -7.445      2.085      8.154
REMARK INTER + INTRA:         -10.912
REMARK INTER:                  -9.615
REMARK INTRA:                  -1.297
REMARK UNBOUND:                -0.856
REMARK  Name = 
REMARK  7 active torsions:
REMARK  status: ('A' for Active; 'I' for Inactive)
REMARK    1  A    between atoms: C_1  and  C_2
REMARK    2  A    between atoms: C_6  and  S_7
REMARK    3  A    between atoms: S_7  and  C_8
REMARK    4  A    between atoms: C_8  and  C_9
REMARK    5  A    between atoms: C_12  and  C_13
REMARK    6  A    between atoms: C_13  and  N_14
REMARK    7  A    between atoms: C_15  and  C_17
REMARK                            x       y       z     vdW  Elec       q    Type
REMARK                         _______ _______ _______ _____ _____    ______ ____
ROOT
ATOM      1  C   UNL     1      47.769   7.747  12.353  0.00  0.00    +0.000 C 
ENDROOT
BRANCH   1   5
ATOM      2  C   UNL     1      49.417   7.757  16.306  0.00  0.00    +0.000 A 
ATOM      3  C   UNL     1      48.440   8.694  15.953  0.00  0.00    +0.000 A 
ATOM      4  C   UNL     1      47.884   8.684  14.676  0.00  0.00    +0.000 A 
ATOM      5  C   UNL     1      48.354   7.767  13.744  0.00  0.00    +0.000 A 
ATOM      6  N   UNL     1      49.324   6.865  14.042  0.00  0.00    +0.000 NA
ATOM      7  C   UNL     1      49.828   6.882  15.300  0.00  0.00    +0.000 A 
BRANCH   2   8
ATOM      8  C   UNL     1      50.077   7.719  17.663  0.00  0.00    +0.000 C 
BRANCH   8   9
ATOM      9  S   UNL     1      49.023   6.979  18.964  0.00  0.00    +0.000 S 
BRANCH   9  15
ATOM     10  C   UNL     1      50.746   2.446  17.361  0.00  0.00    +0.000 C 
ATOM     11  C   UNL     1      49.548   3.325  17.549  0.00  0.00    +0.000 A 
ATOM     12  C   UNL     1      48.279   2.905  17.166  0.00  0.00    +0.000 A 
ATOM     13  C   UNL     1      47.204   3.762  17.367  0.00  0.00    +0.000 A 
ATOM     14  C   UNL     1      47.429   5.010  17.936  0.00  0.00    +0.000 A 
ATOM     15  C   UNL     1      48.727   5.363  18.282  0.00  0.00    +0.000 A 
ATOM     16  N   UNL     1      49.781   4.540  18.101  0.00  0.00    +0.000 NA
ENDBRANCH   9  15
ENDBRANCH   8   9
ENDBRANCH   2   8
ENDBRANCH   1   5
BRANCH   1  17
ATOM     17  N   UNL     1      47.022   6.540  12.084  0.00  0.00    +0.000 N 
ATOM     18  C   UNL     1      45.659   6.472  12.195  0.00  0.00    +0.000 C 
ATOM     19  O   UNL     1      44.982   7.442  12.530  0.00  0.00    +0.000 OA
ATOM     20  H   UNL     1      47.570   5.686  12.037  0.00  0.00    +0.000 HD
BRANCH  18  21
ATOM     21  C   UNL     1      45.031   5.197  11.819  0.00  0.00    +0.000 A 
ATOM     22  C   UNL     1      44.299   4.489  12.763  0.00  0.00    +0.000 A 
ATOM     23  S   UNL     1      43.599   3.057  12.159  0.00  0.00    +0.000 S 
ATOM     24  C   UNL     1      44.287   3.306  10.622  0.00  0.00    +0.000 A 
ATOM     25  N   UNL     1      44.093   2.408   9.618  0.00  0.00    +0.000 NA
ATOM     26  C   UNL     1      44.696   2.704   8.516  0.00  0.00    +0.000 A 
ATOM     27  N   UNL     1      45.467   3.821   8.323  0.00  0.00    +0.000 N 
ATOM     28  C   UNL     1      45.644   4.781   9.291  0.00  0.00    +0.000 A 
ATOM     29  O   UNL     1      46.262   5.813   9.054  0.00  0.00    +0.000 OA
ATOM     30  C   UNL     1      45.019   4.479  10.564  0.00  0.00    +0.000 A 
ATOM     31  H   UNL     1      45.895   4.007   7.429  0.00  0.00    +0.000 HD
ENDBRANCH  18  21
ENDBRANCH   1  17
TORSDOF 6
ENDMDL
MODEL 6
REMARK VINA RESULT:    -7.404      2.278      3.216
REMARK INTER + INTRA:         -10.857
REMARK INTER:                  -9.877
REMARK INTRA:                  -0.981
REMARK UNBOUND:                -0.856
REMARK  Name = 
REMARK  7 active torsions:
REMARK  status: ('A' for Active; 'I' for Inactive)
REMARK    1  A    between atoms: C_1  and  C_2
REMARK    2  A    between atoms: C_6  and  S_7
REMARK    3  A    between atoms: S_7  and  C_8
REMARK    4  A    between atoms: C_8  and  C_9
REMARK    5  A    between atoms: C_12  and  C_13
REMARK    6  A    between atoms: C_13  and  N_14
REMARK    7  A    between atoms: C_15  and  C_17
REMARK                            x       y       z     vdW  Elec       q    Type
REMARK                         _______ _______ _______ _____ _____    ______ ____
ROOT
ATOM      1  C   UNL     1      47.311   4.205  15.796  0.00  0.00    +0.000 C 
ENDROOT
BRANCH   1   5
ATOM      2  C   UNL     1      45.940   5.551  11.969  0.00  0.00    +0.000 A 
ATOM      3  C   UNL     1      46.945   6.256  12.640  0.00  0.00    +0.000 A 
ATOM      4  C   UNL     1      47.411   5.813  13.875  0.00  0.00    +0.000 A 
ATOM      5  C   UNL     1      46.824   4.695  14.454  0.00  0.00    +0.000 A 
ATOM      6  N   UNL     1      45.824   4.006  13.847  0.00  0.00    +0.000 NA
ATOM      7  C   UNL     1      45.410   4.446  12.634  0.00  0.00    +0.000 A 
BRANCH   2   8
ATOM      8  C   UNL     1      45.373   5.982  10.638  0.00  0.00    +0.000 C 
BRANCH   8   9
ATOM      9  S   UNL     1      44.008   4.914  10.049  0.00  0.00    +0.000 S 
BRANCH   9  15
ATOM     10  C   UNL     1      46.936   3.678   6.051  0.00  0.00    +0.000 C 
ATOM     11  C   UNL     1      46.219   3.181   7.268  0.00  0.00    +0.000 A 
ATOM     12  C   UNL     1      46.228   1.831   7.608  0.00  0.00    +0.000 A 
ATOM     13  C   UNL     1      45.549   1.429   8.751  0.00  0.00    +0.000 A 
ATOM     14  C   UNL     1      44.879   2.379   9.513  0.00  0.00    +0.000 A 
ATOM     15  C   UNL     1      44.907   3.705   9.102  0.00  0.00    +0.000 A 
ATOM     16  N   UNL     1      45.568   4.115   8.000  0.00  0.00    +0.000 NA
ENDBRANCH   9  15
ENDBRANCH   8   9
ENDBRANCH   2   8
ENDBRANCH   1   5
BRANCH   1  17
ATOM     17  N   UNL     1      47.852   5.269  16.611  0.00  0.00    +0.000 N 
ATOM     18  C   UNL     1      49.106   5.219  17.158  0.00  0.00    +0.000 C 
ATOM     19  O   UNL     1      49.855   4.260  16.985  0.00  0.00    +0.000 OA
ATOM     20  H   UNL     1      47.176   5.947  16.952  0.00  0.00    +0.000 HD
BRANCH  18  21
ATOM     21  C   UNL     1      49.546   6.407  17.903  0.00  0.00    +0.000 A 
ATOM     22  C   UNL     1      50.716   7.056  17.529  0.00  0.00    +0.000 A 
ATOM     23  S   UNL     1      51.064   8.439  18.463  0.00  0.00    +0.000 S 
ATOM     24  C   UNL     1      49.687   8.197  19.433  0.00  0.00    +0.000 A 
ATOM     25  N   UNL     1      49.404   9.038  20.465  0.00  0.00    +0.000 NA
ATOM     26  C   UNL     1      48.349   8.720  21.136  0.00  0.00    +0.000 A 
ATOM     27  N   UNL     1      47.545   7.644  20.865  0.00  0.00    +0.000 N 
ATOM     28  C   UNL     1      47.761   6.802  19.800  0.00  0.00    +0.000 A 
ATOM     29  O   UNL     1      46.969   5.905  19.531  0.00  0.00    +0.000 OA
ATOM     30  C   UNL     1      48.958   7.090  19.033  0.00  0.00    +0.000 A 
ATOM     31  H   UNL     1      46.719   7.462  21.415  0.00  0.00    +0.000 HD
ENDBRANCH  18  21
ENDBRANCH   1  17
TORSDOF 6
ENDMDL
MODEL 7
REMARK VINA RESULT:    -7.376      2.376      7.789
REMARK INTER + INTRA:         -10.819
REMARK INTER:                  -9.633
REMARK INTRA:                  -1.186
REMARK UNBOUND:                -0.856
REMARK  Name = 
REMARK  7 active torsions:
REMARK  status: ('A' for Active; 'I' for Inactive)
REMARK    1  A    between atoms: C_1  and  C_2
REMARK    2  A    between atoms: C_6  and  S_7
REMARK    3  A    between atoms: S_7  and  C_8
REMARK    4  A    between atoms: C_8  and  C_9
REMARK    5  A    between atoms: C_12  and  C_13
REMARK    6  A    between atoms: C_13  and  N_14
REMARK    7  A    between atoms: C_15  and  C_17
REMARK                            x       y       z     vdW  Elec       q    Type
REMARK                         _______ _______ _______ _____ _____    ______ ____
ROOT
ATOM      1  C   UNL     1      48.408   8.116  11.908  0.00  0.00    +0.000 C 
ENDROOT
BRANCH   1   5
ATOM      2  C   UNL     1      49.129   7.856  16.122  0.00  0.00    +0.000 A 
ATOM      3  C   UNL     1      48.289   8.854  15.615  0.00  0.00    +0.000 A 
ATOM      4  C   UNL     1      48.034   8.933  14.249  0.00  0.00    +0.000 A 
ATOM      5  C   UNL     1      48.667   8.041  13.393  0.00  0.00    +0.000 A 
ATOM      6  N   UNL     1      49.514   7.080  13.846  0.00  0.00    +0.000 NA
ATOM      7  C   UNL     1      49.723   7.012  15.183  0.00  0.00    +0.000 A 
BRANCH   2   8
ATOM      8  C   UNL     1      49.466   7.721  17.587  0.00  0.00    +0.000 C 
BRANCH   8   9
ATOM      9  S   UNL     1      48.148   6.911  18.565  0.00  0.00    +0.000 S 
BRANCH   9  15
ATOM     10  C   UNL     1      51.078   2.862  17.517  0.00  0.00    +0.000 C 
ATOM     11  C   UNL     1      49.686   3.412  17.556  0.00  0.00    +0.000 A 
ATOM     12  C   UNL     1      48.596   2.645  17.156  0.00  0.00    +0.000 A 
ATOM     13  C   UNL     1      47.328   3.208  17.217  0.00  0.00    +0.000 A 
ATOM     14  C   UNL     1      47.186   4.516  17.666  0.00  0.00    +0.000 A 
ATOM     15  C   UNL     1      48.323   5.222  18.038  0.00  0.00    +0.000 A 
ATOM     16  N   UNL     1      49.561   4.688  17.993  0.00  0.00    +0.000 NA
ENDBRANCH   9  15
ENDBRANCH   8   9
ENDBRANCH   2   8
ENDBRANCH   1   5
BRANCH   1  17
ATOM     17  N   UNL     1      47.655   6.984  11.420  0.00  0.00    +0.000 N 
ATOM     18  C   UNL     1      46.286   6.950  11.415  0.00  0.00    +0.000 C 
ATOM     19  O   UNL     1      45.610   7.890  11.828  0.00  0.00    +0.000 OA
ATOM     20  H   UNL     1      48.184   6.125  11.298  0.00  0.00    +0.000 HD
BRANCH  18  21
ATOM     21  C   UNL     1      45.659   5.761  10.821  0.00  0.00    +0.000 A 
ATOM     22  C   UNL     1      45.793   5.525   9.459  0.00  0.00    +0.000 A 
ATOM     23  S   UNL     1      45.047   4.084   8.934  0.00  0.00    +0.000 S 
ATOM     24  C   UNL     1      44.477   3.745  10.501  0.00  0.00    +0.000 A 
ATOM     25  N   UNL     1      43.724   2.639  10.746  0.00  0.00    +0.000 NA
ATOM     26  C   UNL     1      43.333   2.520  11.970  0.00  0.00    +0.000 A 
ATOM     27  N   UNL     1      43.634   3.402  12.974  0.00  0.00    +0.000 N 
ATOM     28  C   UNL     1      44.437   4.502  12.785  0.00  0.00    +0.000 A 
ATOM     29  O   UNL     1      44.762   5.217  13.726  0.00  0.00    +0.000 OA
ATOM     30  C   UNL     1      44.873   4.705  11.417  0.00  0.00    +0.000 A 
ATOM     31  H   UNL     1      43.316   3.241  13.918  0.00  0.00    +0.000 HD
ENDBRANCH  18  21
ENDBRANCH   1  17
TORSDOF 6
ENDMDL
MODEL 8
REMARK VINA RESULT:    -7.292      4.222      9.187
REMARK INTER + INTRA:         -10.705
REMARK INTER:                  -9.927
REMARK INTRA:                  -0.778
REMARK UNBOUND:                -0.856
REMARK  Name = 
REMARK  7 active torsions:
REMARK  status: ('A' for Active; 'I' for Inactive)
REMARK    1  A    between atoms: C_1  and  C_2
REMARK    2  A    between atoms: C_6  and  S_7
REMARK    3  A    between atoms: S_7  and  C_8
REMARK    4  A    between atoms: C_8  and  C_9
REMARK    5  A    between atoms: C_12  and  C_13
REMARK    6  A    between atoms: C_13  and  N_14
REMARK    7  A    between atoms: C_15  and  C_17
REMARK                            x       y       z     vdW  Elec       q    Type
REMARK                         _______ _______ _______ _____ _____    ______ ____
ROOT
ATOM      1  C   UNL     1      47.209   3.464  16.584  0.00  0.00    +0.000 C 
ENDROOT
BRANCH   1   5
ATOM      2  C   UNL     1      51.308   4.203  17.578  0.00  0.00    +0.000 A 
ATOM      3  C   UNL     1      50.418   5.273  17.435  0.00  0.00    +0.000 A 
ATOM      4  C   UNL     1      49.080   5.040  17.133  0.00  0.00    +0.000 A 
ATOM      5  C   UNL     1      48.654   3.735  16.921  0.00  0.00    +0.000 A 
ATOM      6  N   UNL     1      49.497   2.674  17.018  0.00  0.00    +0.000 NA
ATOM      7  C   UNL     1      50.788   2.931  17.339  0.00  0.00    +0.000 A 
BRANCH   2   8
ATOM      8  C   UNL     1      52.775   4.381  17.886  0.00  0.00    +0.000 C 
BRANCH   8   9
ATOM      9  S   UNL     1      53.359   3.335  19.270  0.00  0.00    +0.000 S 
BRANCH   9  15
ATOM     10  C   UNL     1      54.197  -1.681  18.805  0.00  0.00    +0.000 C 
ATOM     11  C   UNL     1      54.426  -0.324  18.218  0.00  0.00    +0.000 A 
ATOM     12  C   UNL     1      55.179  -0.157  17.060  0.00  0.00    +0.000 A 
ATOM     13  C   UNL     1      55.355   1.127  16.559  0.00  0.00    +0.000 A 
ATOM     14  C   UNL     1      54.781   2.202  17.229  0.00  0.00    +0.000 A 
ATOM     15  C   UNL     1      54.051   1.956  18.385  0.00  0.00    +0.000 A 
ATOM     16  N   UNL     1      53.864   0.715  18.881  0.00  0.00    +0.000 NA
ENDBRANCH   9  15
ENDBRANCH   8   9
ENDBRANCH   2   8
ENDBRANCH   1   5
BRANCH   1  17
ATOM     17  N   UNL     1      46.672   4.415  15.638  0.00  0.00    +0.000 N 
ATOM     18  C   UNL     1      46.805   4.269  14.284  0.00  0.00    +0.000 C 
ATOM     19  O   UNL     1      47.390   3.309  13.786  0.00  0.00    +0.000 OA
ATOM     20  H   UNL     1      46.398   5.313  16.027  0.00  0.00    +0.000 HD
BRANCH  18  21
ATOM     21  C   UNL     1      46.145   5.279  13.445  0.00  0.00    +0.000 A 
ATOM     22  C   UNL     1      46.806   6.464  13.152  0.00  0.00    +0.000 A 
ATOM     23  S   UNL     1      45.925   7.510  12.133  0.00  0.00    +0.000 S 
ATOM     24  C   UNL     1      44.606   6.436  12.081  0.00  0.00    +0.000 A 
ATOM     25  N   UNL     1      43.481   6.746  11.382  0.00  0.00    +0.000 NA
ATOM     26  C   UNL     1      42.548   5.858  11.454  0.00  0.00    +0.000 A 
ATOM     27  N   UNL     1      42.640   4.683  12.153  0.00  0.00    +0.000 N 
ATOM     28  C   UNL     1      43.777   4.303  12.826  0.00  0.00    +0.000 A 
ATOM     29  O   UNL     1      43.858   3.203  13.362  0.00  0.00    +0.000 OA
ATOM     30  C   UNL     1      44.845   5.284  12.811  0.00  0.00    +0.000 A 
ATOM     31  H   UNL     1      41.882   4.017  12.151  0.00  0.00    +0.000 HD
ENDBRANCH  18  21
ENDBRANCH   1  17
TORSDOF 6
ENDMDL
MODEL 9
REMARK VINA RESULT:    -6.973      2.805      3.892
REMARK INTER + INTRA:         -10.274
REMARK INTER:                  -9.223
REMARK INTRA:                  -1.051
REMARK UNBOUND:                -0.856
REMARK  Name = 
REMARK  7 active torsions:
REMARK  status: ('A' for Active; 'I' for Inactive)
REMARK    1  A    between atoms: C_1  and  C_2
REMARK    2  A    between atoms: C_6  and  S_7
REMARK    3  A    between atoms: S_7  and  C_8
REMARK    4  A    between atoms: C_8  and  C_9
REMARK    5  A    between atoms: C_12  and  C_13
REMARK    6  A    between atoms: C_13  and  N_14
REMARK    7  A    between atoms: C_15  and  C_17
REMARK                            x       y       z     vdW  Elec       q    Type
REMARK                         _______ _______ _______ _____ _____    ______ ____
ROOT
ATOM      1  C   UNL     1      47.608   8.033  13.662  0.00  0.00    +0.000 C 
ENDROOT
BRANCH   1   5
ATOM      2  C   UNL     1      45.610   4.532  12.217  0.00  0.00    +0.000 A 
ATOM      3  C   UNL     1      45.404   5.765  11.589  0.00  0.00    +0.000 A 
ATOM      4  C   UNL     1      46.065   6.904  12.039  0.00  0.00    +0.000 A 
ATOM      5  C   UNL     1      46.889   6.808  13.154  0.00  0.00    +0.000 A 
ATOM      6  N   UNL     1      47.087   5.634  13.809  0.00  0.00    +0.000 NA
ATOM      7  C   UNL     1      46.449   4.538  13.331  0.00  0.00    +0.000 A 
BRANCH   2   8
ATOM      8  C   UNL     1      44.913   3.261  11.796  0.00  0.00    +0.000 C 
BRANCH   8   9
ATOM      9  S   UNL     1      43.897   3.454  10.286  0.00  0.00    +0.000 S 
BRANCH   9  15
ATOM     10  C   UNL     1      46.769   0.117   7.698  0.00  0.00    +0.000 C 
ATOM     11  C   UNL     1      46.396   1.555   7.882  0.00  0.00    +0.000 A 
ATOM     12  C   UNL     1      46.995   2.558   7.126  0.00  0.00    +0.000 A 
ATOM     13  C   UNL     1      46.606   3.875   7.338  0.00  0.00    +0.000 A 
ATOM     14  C   UNL     1      45.640   4.151   8.299  0.00  0.00    +0.000 A 
ATOM     15  C   UNL     1      45.096   3.097   9.022  0.00  0.00    +0.000 A 
ATOM     16  N   UNL     1      45.456   1.812   8.823  0.00  0.00    +0.000 NA
ENDBRANCH   9  15
ENDBRANCH   8   9
ENDBRANCH   2   8
ENDBRANCH   1   5
BRANCH   1  17
ATOM     17  N   UNL     1      48.981   7.760  14.023  0.00  0.00    +0.000 N 
ATOM     18  C   UNL     1      49.470   7.968  15.284  0.00  0.00    +0.000 C 
ATOM     19  O   UNL     1      48.766   8.401  16.194  0.00  0.00    +0.000 OA
ATOM     20  H   UNL     1      49.621   7.629  13.246  0.00  0.00    +0.000 HD
BRANCH  18  21
ATOM     21  C   UNL     1      50.867   7.576  15.521  0.00  0.00    +0.000 A 
ATOM     22  C   UNL     1      51.162   6.669  16.531  0.00  0.00    +0.000 A 
ATOM     23  S   UNL     1      52.819   6.285  16.648  0.00  0.00    +0.000 S 
ATOM     24  C   UNL     1      53.211   7.352  15.381  0.00  0.00    +0.000 A 
ATOM     25  N   UNL     1      54.501   7.520  14.986  0.00  0.00    +0.000 NA
ATOM     26  C   UNL     1      54.660   8.381  14.037  0.00  0.00    +0.000 A 
ATOM     27  N   UNL     1      53.644   9.082  13.441  0.00  0.00    +0.000 N 
ATOM     28  C   UNL     1      52.321   8.903  13.771  0.00  0.00    +0.000 A 
ATOM     29  O   UNL     1      51.431   9.477  13.153  0.00  0.00    +0.000 OA
ATOM     30  C   UNL     1      52.089   7.973  14.859  0.00  0.00    +0.000 A 
ATOM     31  H   UNL     1      53.830   9.726  12.688  0.00  0.00    +0.000 HD
ENDBRANCH  18  21
ENDBRANCH   1  17
TORSDOF 6
ENDMDL
