MODEL 1
REMARK VINA RESULT:    -8.094      0.000      0.000
REMARK INTER + INTRA:         -13.397
REMARK INTER:                 -12.588
REMARK INTRA:                  -0.809
REMARK UNBOUND:                -0.809
REMARK  Name = 
REMARK  10 active torsions:
REMARK  status: ('A' for Active; 'I' for Inactive)
REMARK    1  A    between atoms: N_1  and  C_2
REMARK    2  A    between atoms: C_2  and  C_3
REMARK    3  A    between atoms: C_3  and  N_4
REMARK    4  A    between atoms: C_3  and  C_20
REMARK    5  A    between atoms: N_4  and  C_5
REMARK    6  A    between atoms: C_5  and  C_6
REMARK    7  A    between atoms: C_9  and  C_10
REMARK    8  A    between atoms: C_10  and  N_11
REMARK    9  A    between atoms: N_11  and  C_12
REMARK   10  A    between atoms: C_12  and  C_13
REMARK                            x       y       z     vdW  Elec       q    Type
REMARK                         _______ _______ _______ _____ _____    ______ ____
ROOT
ATOM      1  N   UNL     1      48.291   4.693  15.705  0.00  0.00    +0.000 NA
ATOM      2  H   UNL     1      49.224   4.392  15.420  0.00  0.00    +0.000 HD
ENDROOT
BRANCH   1   3
ATOM      3  C   UNL     1      48.354   5.141  17.109  0.00  0.00    +0.000 C 
BRANCH   3   4
ATOM      4  C   UNL     1      49.767   4.854  17.603  0.00  0.00    +0.000 A 
ATOM      5  C   UNL     1      50.609   5.779  18.203  0.00  0.00    +0.000 A 
ATOM      6  S   UNL     1      52.129   5.135  18.642  0.00  0.00    +0.000 S 
ATOM      7  C   UNL     1      51.719   3.599  18.033  0.00  0.00    +0.000 A 
ATOM      8  N   UNL     1      52.590   2.556  18.100  0.00  0.00    +0.000 NA
ATOM      9  C   UNL     1      52.139   1.456  17.598  0.00  0.00    +0.000 A 
ATOM     10  N   UNL     1      50.897   1.302  17.033  0.00  0.00    +0.000 N 
ATOM     11  C   UNL     1      49.981   2.326  16.936  0.00  0.00    +0.000 A 
ATOM     12  O   UNL     1      48.878   2.152  16.424  0.00  0.00    +0.000 OA
ATOM     13  C   UNL     1      50.441   3.583  17.501  0.00  0.00    +0.000 A 
ATOM     14  H   UNL     1      50.610   0.411  16.656  0.00  0.00    +0.000 HD
ENDBRANCH   3   4
BRANCH   3  15
ATOM     15  C   UNL     1      47.277   4.455  18.012  0.00  0.00    +0.000 C 
BRANCH  15  16
ATOM     16  N   UNL     1      46.537   3.357  17.378  0.00  0.00    +0.000 NA
ATOM     17  H   UNL     1      45.548   3.599  17.341  0.00  0.00    +0.000 HD
ATOM     18  H   UNL     1      46.614   2.520  17.960  0.00  0.00    +0.000 HD
ENDBRANCH  15  16
ENDBRANCH   3  15
ENDBRANCH   1   3
BRANCH   1  19
ATOM     19  C   UNL     1      47.850   5.731  14.779  0.00  0.00    +0.000 C 
BRANCH  19  20
ATOM     20  C   UNL     1      46.984   5.149  13.688  0.00  0.00    +0.000 A 
ATOM     21  C   UNL     1      46.720   3.772  13.655  0.00  0.00    +0.000 A 
ATOM     22  C   UNL     1      45.873   3.235  12.687  0.00  0.00    +0.000 A 
ATOM     23  C   UNL     1      45.260   4.064  11.738  0.00  0.00    +0.000 A 
ATOM     24  C   UNL     1      45.532   5.438  11.763  0.00  0.00    +0.000 A 
ATOM     25  C   UNL     1      46.386   5.976  12.728  0.00  0.00    +0.000 A 
BRANCH  23  26
ATOM     26  C   UNL     1      44.303   3.482  10.724  0.00  0.00    +0.000 C 
BRANCH  26  27
ATOM     27  N   UNL     1      45.020   2.583   9.821  0.00  0.00    +0.000 NA
ATOM     28  H   UNL     1      44.514   1.698   9.795  0.00  0.00    +0.000 HD
BRANCH  27  29
ATOM     29  C   UNL     1      45.083   3.124   8.469  0.00  0.00    +0.000 C 
BRANCH  29  30
ATOM     30  C   UNL     1      46.272   2.563   7.783  0.00  0.00    +0.000 A 
ATOM     31  C   UNL     1      46.776   1.284   7.680  0.00  0.00    +0.000 A 
ATOM     32  N   UNL     1      47.927   1.270   6.932  0.00  0.00    +0.000 NA
ATOM     33  C   UNL     1      48.126   2.517   6.577  0.00  0.00    +0.000 A 
ATOM     34  N   UNL     1      47.144   3.334   7.051  0.00  0.00    +0.000 N 
ATOM     35  H   UNL     1      47.072   4.336   6.939  0.00  0.00    +0.000 HD
ENDBRANCH  29  30
ENDBRANCH  27  29
ENDBRANCH  26  27
ENDBRANCH  23  26
ENDBRANCH  19  20
ENDBRANCH   1  19
TORSDOF 10
ENDMDL
MODEL 2
REMARK VINA RESULT:    -7.685      2.188      3.207
REMARK INTER + INTRA:         -12.761
REMARK INTER:                 -11.408
REMARK INTRA:                  -1.353
REMARK UNBOUND:                -0.809
REMARK  Name = 
REMARK  10 active torsions:
REMARK  status: ('A' for Active; 'I' for Inactive)
REMARK    1  A    between atoms: N_1  and  C_2
REMARK    2  A    between atoms: C_2  and  C_3
REMARK    3  A    between atoms: C_3  and  N_4
REMARK    4  A    between atoms: C_3  and  C_20
REMARK    5  A    between atoms: N_4  and  C_5
REMARK    6  A    between atoms: C_5  and  C_6
REMARK    7  A    between atoms: C_9  and  C_10
REMARK    8  A    between atoms: C_10  and  N_11
REMARK    9  A    between atoms: N_11  and  C_12
REMARK   10  A    between atoms: C_12  and  C_13
REMARK                            x       y       z     vdW  Elec       q    Type
REMARK                         _______ _______ _______ _____ _____    ______ ____
ROOT
ATOM      1  N   UNL     1      47.174   7.461  14.306  0.00  0.00    +0.000 NA
ATOM      2  H   UNL     1      46.508   6.787  14.686  0.00  0.00    +0.000 HD
ENDROOT
BRANCH   1   3
ATOM      3  C   UNL     1      48.473   6.784  14.130  0.00  0.00    +0.000 C 
BRANCH   3   4
ATOM      4  C   UNL     1      48.926   6.328  15.511  0.00  0.00    +0.000 A 
ATOM      5  C   UNL     1      49.937   6.916  16.257  0.00  0.00    +0.000 A 
ATOM      6  S   UNL     1      50.197   6.163  17.768  0.00  0.00    +0.000 S 
ATOM      7  C   UNL     1      48.973   5.018  17.474  0.00  0.00    +0.000 A 
ATOM      8  N   UNL     1      48.665   4.061  18.390  0.00  0.00    +0.000 NA
ATOM      9  C   UNL     1      47.716   3.265  18.026  0.00  0.00    +0.000 A 
ATOM     10  N   UNL     1      47.049   3.335  16.829  0.00  0.00    +0.000 N 
ATOM     11  C   UNL     1      47.325   4.280  15.866  0.00  0.00    +0.000 A 
ATOM     12  O   UNL     1      46.707   4.314  14.804  0.00  0.00    +0.000 OA
ATOM     13  C   UNL     1      48.380   5.208  16.238  0.00  0.00    +0.000 A 
ATOM     14  H   UNL     1      46.317   2.676  16.608  0.00  0.00    +0.000 HD
ENDBRANCH   3   4
BRANCH   3  15
ATOM     15  C   UNL     1      49.542   7.694  13.442  0.00  0.00    +0.000 C 
BRANCH  15  16
ATOM     16  N   UNL     1      50.145   7.139  12.223  0.00  0.00    +0.000 NA
ATOM     17  H   UNL     1      49.813   6.185  12.093  0.00  0.00    +0.000 HD
ATOM     18  H   UNL     1      51.159   7.086  12.344  0.00  0.00    +0.000 HD
ENDBRANCH  15  16
ENDBRANCH   3  15
ENDBRANCH   1   3
BRANCH   1  19
ATOM     19  C   UNL     1      46.619   7.994  13.066  0.00  0.00    +0.000 C 
BRANCH  19  20
ATOM     20  C   UNL     1      45.884   6.922  12.298  0.00  0.00    +0.000 A 
ATOM     21  C   UNL     1      46.344   6.517  11.036  0.00  0.00    +0.000 A 
ATOM     22  C   UNL     1      45.707   5.487  10.346  0.00  0.00    +0.000 A 
ATOM     23  C   UNL     1      44.604   4.828  10.908  0.00  0.00    +0.000 A 
ATOM     24  C   UNL     1      44.138   5.239  12.164  0.00  0.00    +0.000 A 
ATOM     25  C   UNL     1      44.771   6.276  12.852  0.00  0.00    +0.000 A 
BRANCH  23  26
ATOM     26  C   UNL     1      43.952   3.678  10.178  0.00  0.00    +0.000 C 
BRANCH  26  27
ATOM     27  N   UNL     1      44.818   2.501  10.229  0.00  0.00    +0.000 NA
ATOM     28  H   UNL     1      44.520   1.928  11.019  0.00  0.00    +0.000 HD
BRANCH  27  29
ATOM     29  C   UNL     1      44.712   1.707   9.011  0.00  0.00    +0.000 C 
BRANCH  29  30
ATOM     30  C   UNL     1      45.902   1.963   8.166  0.00  0.00    +0.000 A 
ATOM     31  C   UNL     1      46.430   3.113   7.618  0.00  0.00    +0.000 A 
ATOM     32  N   UNL     1      47.560   2.835   6.890  0.00  0.00    +0.000 NA
ATOM     33  C   UNL     1      47.728   1.537   6.990  0.00  0.00    +0.000 A 
ATOM     34  N   UNL     1      46.762   0.968   7.765  0.00  0.00    +0.000 N 
ATOM     35  H   UNL     1      46.649  -0.013   7.983  0.00  0.00    +0.000 HD
ENDBRANCH  29  30
ENDBRANCH  27  29
ENDBRANCH  26  27
ENDBRANCH  23  26
ENDBRANCH  19  20
ENDBRANCH   1  19
TORSDOF 10
ENDMDL
MODEL 3
REMARK VINA RESULT:    -7.582      2.280      3.019
REMARK INTER + INTRA:         -12.601
REMARK INTER:                 -11.517
REMARK INTRA:                  -1.084
REMARK UNBOUND:                -0.809
REMARK  Name = 
REMARK  10 active torsions:
REMARK  status: ('A' for Active; 'I' for Inactive)
REMARK    1  A    between atoms: N_1  and  C_2
REMARK    2  A    between atoms: C_2  and  C_3
REMARK    3  A    between atoms: C_3  and  N_4
REMARK    4  A    between atoms: C_3  and  C_20
REMARK    5  A    between atoms: N_4  and  C_5
REMARK    6  A    between atoms: C_5  and  C_6
REMARK    7  A    between atoms: C_9  and  C_10
REMARK    8  A    between atoms: C_10  and  N_11
REMARK    9  A    between atoms: N_11  and  C_12
REMARK   10  A    between atoms: C_12  and  C_13
REMARK                            x       y       z     vdW  Elec       q    Type
REMARK                         _______ _______ _______ _____ _____    ______ ____
ROOT
ATOM      1  N   UNL     1      48.137   4.878  14.964  0.00  0.00    +0.000 NA
ATOM      2  H   UNL     1      49.148   5.006  14.906  0.00  0.00    +0.000 HD
ENDROOT
BRANCH   1   3
ATOM      3  C   UNL     1      47.769   4.716  16.383  0.00  0.00    +0.000 C 
BRANCH   3   4
ATOM      4  C   UNL     1      48.785   5.508  17.198  0.00  0.00    +0.000 A 
ATOM      5  C   UNL     1      50.098   5.752  16.823  0.00  0.00    +0.000 A 
ATOM      6  S   UNL     1      50.973   6.675  17.963  0.00  0.00    +0.000 S 
ATOM      7  C   UNL     1      49.629   6.771  19.004  0.00  0.00    +0.000 A 
ATOM      8  N   UNL     1      49.697   7.444  20.184  0.00  0.00    +0.000 NA
ATOM      9  C   UNL     1      48.600   7.429  20.865  0.00  0.00    +0.000 A 
ATOM     10  N   UNL     1      47.443   6.802  20.476  0.00  0.00    +0.000 N 
ATOM     11  C   UNL     1      47.324   6.105  19.294  0.00  0.00    +0.000 A 
ATOM     12  O   UNL     1      46.272   5.555  18.977  0.00  0.00    +0.000 OA
ATOM     13  C   UNL     1      48.532   6.104  18.487  0.00  0.00    +0.000 A 
ATOM     14  H   UNL     1      46.621   6.829  21.061  0.00  0.00    +0.000 HD
ENDBRANCH   3   4
BRANCH   3  15
ATOM     15  C   UNL     1      47.714   3.218  16.827  0.00  0.00    +0.000 C 
BRANCH  15  16
ATOM     16  N   UNL     1      46.580   2.863  17.691  0.00  0.00    +0.000 NA
ATOM     17  H   UNL     1      45.729   2.844  17.131  0.00  0.00    +0.000 HD
ATOM     18  H   UNL     1      46.454   3.592  18.396  0.00  0.00    +0.000 HD
ENDBRANCH  15  16
ENDBRANCH   3  15
ENDBRANCH   1   3
BRANCH   1  19
ATOM     19  C   UNL     1      47.500   6.023  14.321  0.00  0.00    +0.000 C 
BRANCH  19  20
ATOM     20  C   UNL     1      46.654   5.583  13.151  0.00  0.00    +0.000 A 
ATOM     21  C   UNL     1      45.955   4.367  13.203  0.00  0.00    +0.000 A 
ATOM     22  C   UNL     1      45.124   3.982  12.152  0.00  0.00    +0.000 A 
ATOM     23  C   UNL     1      44.962   4.809  11.032  0.00  0.00    +0.000 A 
ATOM     24  C   UNL     1      45.667   6.018  10.975  0.00  0.00    +0.000 A 
ATOM     25  C   UNL     1      46.506   6.402  12.024  0.00  0.00    +0.000 A 
BRANCH  23  26
ATOM     26  C   UNL     1      44.019   4.409   9.921  0.00  0.00    +0.000 C 
BRANCH  26  27
ATOM     27  N   UNL     1      44.568   3.269   9.189  0.00  0.00    +0.000 NA
ATOM     28  H   UNL     1      43.790   2.668   8.918  0.00  0.00    +0.000 HD
BRANCH  27  29
ATOM     29  C   UNL     1      45.269   3.695   7.984  0.00  0.00    +0.000 C 
BRANCH  29  30
ATOM     30  C   UNL     1      46.273   2.666   7.624  0.00  0.00    +0.000 A 
ATOM     31  C   UNL     1      47.429   2.709   6.873  0.00  0.00    +0.000 A 
ATOM     32  N   UNL     1      48.024   1.474   6.820  0.00  0.00    +0.000 NA
ATOM     33  C   UNL     1      47.251   0.684   7.528  0.00  0.00    +0.000 A 
ATOM     34  N   UNL     1      46.190   1.361   8.048  0.00  0.00    +0.000 N 
ATOM     35  H   UNL     1      45.438   0.985   8.611  0.00  0.00    +0.000 HD
ENDBRANCH  29  30
ENDBRANCH  27  29
ENDBRANCH  26  27
ENDBRANCH  23  26
ENDBRANCH  19  20
ENDBRANCH   1  19
TORSDOF 10
ENDMDL
MODEL 4
REMARK VINA RESULT:    -7.272      2.628      3.441
REMARK INTER + INTRA:         -12.119
REMARK INTER:                 -11.181
REMARK INTRA:                  -0.938
REMARK UNBOUND:                -0.809
REMARK  Name = 
REMARK  10 active torsions:
REMARK  status: ('A' for Active; 'I' for Inactive)
REMARK    1  A    between atoms: N_1  and  C_2
REMARK    2  A    between atoms: C_2  and  C_3
REMARK    3  A    between atoms: C_3  and  N_4
REMARK    4  A    between atoms: C_3  and  C_20
REMARK    5  A    between atoms: N_4  and  C_5
REMARK    6  A    between atoms: C_5  and  C_6
REMARK    7  A    between atoms: C_9  and  C_10
REMARK    8  A    between atoms: C_10  and  N_11
REMARK    9  A    between atoms: N_11  and  C_12
REMARK   10  A    between atoms: C_12  and  C_13
REMARK                            x       y       z     vdW  Elec       q    Type
REMARK                         _______ _______ _______ _____ _____    ______ ____
ROOT
ATOM      1  N   UNL     1      47.887   6.044  15.018  0.00  0.00    +0.000 NA
ATOM      2  H   UNL     1      48.010   5.040  14.882  0.00  0.00    +0.000 HD
ENDROOT
BRANCH   1   3
ATOM      3  C   UNL     1      49.105   6.582  15.652  0.00  0.00    +0.000 C 
BRANCH   3   4
ATOM      4  C   UNL     1      48.664   7.302  16.920  0.00  0.00    +0.000 A 
ATOM      5  C   UNL     1      48.577   8.678  17.072  0.00  0.00    +0.000 A 
ATOM      6  S   UNL     1      48.048   9.163  18.622  0.00  0.00    +0.000 S 
ATOM      7  C   UNL     1      47.926   7.549  19.149  0.00  0.00    +0.000 A 
ATOM      8  N   UNL     1      47.511   7.246  20.408  0.00  0.00    +0.000 NA
ATOM      9  C   UNL     1      47.470   5.981  20.662  0.00  0.00    +0.000 A 
ATOM     10  N   UNL     1      47.808   4.991  19.774  0.00  0.00    +0.000 N 
ATOM     11  C   UNL     1      48.239   5.244  18.491  0.00  0.00    +0.000 A 
ATOM     12  O   UNL     1      48.534   4.332  17.722  0.00  0.00    +0.000 OA
ATOM     13  C   UNL     1      48.289   6.657  18.155  0.00  0.00    +0.000 A 
ATOM     14  H   UNL     1      47.755   4.019  20.042  0.00  0.00    +0.000 HD
ENDBRANCH   3   4
BRANCH   3  15
ATOM     15  C   UNL     1      49.915   7.526  14.703  0.00  0.00    +0.000 C 
BRANCH  15  16
ATOM     16  N   UNL     1      51.375   7.412  14.806  0.00  0.00    +0.000 NA
ATOM     17  H   UNL     1      51.707   6.751  14.106  0.00  0.00    +0.000 HD
ATOM     18  H   UNL     1      51.619   7.022  15.719  0.00  0.00    +0.000 HD
ENDBRANCH  15  16
ENDBRANCH   3  15
ENDBRANCH   1   3
BRANCH   1  19
ATOM     19  C   UNL     1      47.588   6.642  13.721  0.00  0.00    +0.000 C 
BRANCH  19  20
ATOM     20  C   UNL     1      46.738   5.718  12.883  0.00  0.00    +0.000 A 
ATOM     21  C   UNL     1      46.476   4.411  13.318  0.00  0.00    +0.000 A 
ATOM     22  C   UNL     1      45.644   3.571  12.580  0.00  0.00    +0.000 A 
ATOM     23  C   UNL     1      45.043   4.024  11.397  0.00  0.00    +0.000 A 
ATOM     24  C   UNL     1      45.313   5.326  10.956  0.00  0.00    +0.000 A 
ATOM     25  C   UNL     1      46.153   6.165  11.691  0.00  0.00    +0.000 A 
BRANCH  23  26
ATOM     26  C   UNL     1      44.101   3.125  10.631  0.00  0.00    +0.000 C 
BRANCH  26  27
ATOM     27  N   UNL     1      44.855   2.307   9.683  0.00  0.00    +0.000 NA
ATOM     28  H   UNL     1      44.344   1.434   9.548  0.00  0.00    +0.000 HD
BRANCH  27  29
ATOM     29  C   UNL     1      44.989   2.971   8.392  0.00  0.00    +0.000 C 
BRANCH  29  30
ATOM     30  C   UNL     1      46.229   2.496   7.734  0.00  0.00    +0.000 A 
ATOM     31  C   UNL     1      46.818   1.254   7.633  0.00  0.00    +0.000 A 
ATOM     32  N   UNL     1      47.987   1.322   6.917  0.00  0.00    +0.000 NA
ATOM     33  C   UNL     1      48.115   2.584   6.580  0.00  0.00    +0.000 A 
ATOM     34  N   UNL     1      47.070   3.330   7.035  0.00  0.00    +0.000 N 
ATOM     35  H   UNL     1      46.936   4.327   6.931  0.00  0.00    +0.000 HD
ENDBRANCH  29  30
ENDBRANCH  27  29
ENDBRANCH  26  27
ENDBRANCH  23  26
ENDBRANCH  19  20
ENDBRANCH   1  19
TORSDOF 10
ENDMDL
MODEL 5
REMARK VINA RESULT:    -7.071      2.909      4.274
REMARK INTER + INTRA:         -11.807
REMARK INTER:                 -10.348
REMARK INTRA:                  -1.459
REMARK UNBOUND:                -0.809
REMARK  Name = 
REMARK  10 active torsions:
REMARK  status: ('A' for Active; 'I' for Inactive)
REMARK    1  A    between atoms: N_1  and  C_2
REMARK    2  A    between atoms: C_2  and  C_3
REMARK    3  A    between atoms: C_3  and  N_4
REMARK    4  A    between atoms: C_3  and  C_20
REMARK    5  A    between atoms: N_4  and  C_5
REMARK    6  A    between atoms: C_5  and  C_6
REMARK    7  A    between atoms: C_9  and  C_10
REMARK    8  A    between atoms: C_10  and  N_11
REMARK    9  A    between atoms: N_11  and  C_12
REMARK   10  A    between atoms: C_12  and  C_13
REMARK                            x       y       z     vdW  Elec       q    Type
REMARK                         _______ _______ _______ _____ _____    ______ ____
ROOT
ATOM      1  N   UNL     1      49.386   6.627  13.967  0.00  0.00    +0.000 NA
ATOM      2  H   UNL     1      49.953   6.065  13.332  0.00  0.00    +0.000 HD
ENDROOT
BRANCH   1   3
ATOM      3  C   UNL     1      50.286   7.481  14.764  0.00  0.00    +0.000 C 
BRANCH   3   4
ATOM      4  C   UNL     1      49.454   8.064  15.899  0.00  0.00    +0.000 A 
ATOM      5  C   UNL     1      49.168   9.411  16.074  0.00  0.00    +0.000 A 
ATOM      6  S   UNL     1      48.207   9.732  17.449  0.00  0.00    +0.000 S 
ATOM      7  C   UNL     1      48.148   8.082  17.865  0.00  0.00    +0.000 A 
ATOM      8  N   UNL     1      47.464   7.654  18.961  0.00  0.00    +0.000 NA
ATOM      9  C   UNL     1      47.510   6.377  19.147  0.00  0.00    +0.000 A 
ATOM     10  N   UNL     1      48.179   5.490  18.342  0.00  0.00    +0.000 N 
ATOM     11  C   UNL     1      48.890   5.872  17.226  0.00  0.00    +0.000 A 
ATOM     12  O   UNL     1      49.477   5.050  16.527  0.00  0.00    +0.000 OA
ATOM     13  C   UNL     1      48.856   7.302  16.968  0.00  0.00    +0.000 A 
ATOM     14  H   UNL     1      48.176   4.502  18.550  0.00  0.00    +0.000 HD
ENDBRANCH   3   4
BRANCH   3  15
ATOM     15  C   UNL     1      50.967   8.602  13.912  0.00  0.00    +0.000 C 
BRANCH  15  16
ATOM     16  N   UNL     1      52.108   8.162  13.099  0.00  0.00    +0.000 NA
ATOM     17  H   UNL     1      52.969   8.517  13.513  0.00  0.00    +0.000 HD
ATOM     18  H   UNL     1      52.036   8.577  12.167  0.00  0.00    +0.000 HD
ENDBRANCH  15  16
ENDBRANCH   3  15
ENDBRANCH   1   3
BRANCH   1  19
ATOM     19  C   UNL     1      48.422   7.376  13.168  0.00  0.00    +0.000 C 
BRANCH  19  20
ATOM     20  C   UNL     1      47.104   6.645  13.084  0.00  0.00    +0.000 A 
ATOM     21  C   UNL     1      46.951   5.393  13.699  0.00  0.00    +0.000 A 
ATOM     22  C   UNL     1      45.721   4.738  13.677  0.00  0.00    +0.000 A 
ATOM     23  C   UNL     1      44.612   5.325  13.053  0.00  0.00    +0.000 A 
ATOM     24  C   UNL     1      44.767   6.570  12.429  0.00  0.00    +0.000 A 
ATOM     25  C   UNL     1      46.001   7.224  12.444  0.00  0.00    +0.000 A 
BRANCH  23  26
ATOM     26  C   UNL     1      43.270   4.633  13.079  0.00  0.00    +0.000 C 
BRANCH  26  27
ATOM     27  N   UNL     1      42.881   4.249  11.723  0.00  0.00    +0.000 NA
ATOM     28  H   UNL     1      43.263   4.942  11.080  0.00  0.00    +0.000 HD
BRANCH  27  29
ATOM     29  C   UNL     1      43.414   2.939  11.365  0.00  0.00    +0.000 C 
BRANCH  29  30
ATOM     30  C   UNL     1      44.211   3.069  10.123  0.00  0.00    +0.000 A 
ATOM     31  C   UNL     1      44.395   4.105   9.232  0.00  0.00    +0.000 A 
ATOM     32  N   UNL     1      45.234   3.733   8.212  0.00  0.00    +0.000 NA
ATOM     33  C   UNL     1      45.565   2.489   8.471  0.00  0.00    +0.000 A 
ATOM     34  N   UNL     1      44.987   2.049   9.623  0.00  0.00    +0.000 N 
ATOM     35  H   UNL     1      45.062   1.128  10.035  0.00  0.00    +0.000 HD
ENDBRANCH  29  30
ENDBRANCH  27  29
ENDBRANCH  26  27
ENDBRANCH  23  26
ENDBRANCH  19  20
ENDBRANCH   1  19
TORSDOF 10
ENDMDL
MODEL 6
REMARK VINA RESULT:    -6.950      2.010      2.575
REMARK INTER + INTRA:         -11.619
REMARK INTER:                 -10.478
REMARK INTRA:                  -1.141
REMARK UNBOUND:                -0.809
REMARK  Name = 
REMARK  10 active torsions:
REMARK  status: ('A' for Active; 'I' for Inactive)
REMARK    1  A    between atoms: N_1  and  C_2
REMARK    2  A    between atoms: C_2  and  C_3
REMARK    3  A    between atoms: C_3  and  N_4
REMARK    4  A    between atoms: C_3  and  C_20
REMARK    5  A    between atoms: N_4  and  C_5
REMARK    6  A    between atoms: C_5  and  C_6
REMARK    7  A    between atoms: C_9  and  C_10
REMARK    8  A    between atoms: C_10  and  N_11
REMARK    9  A    between atoms: N_11  and  C_12
REMARK   10  A    between atoms: C_12  and  C_13
REMARK                            x       y       z     vdW  Elec       q    Type
REMARK                         _______ _______ _______ _____ _____    ______ ____
ROOT
ATOM      1  N   UNL     1      48.169   7.141  15.720  0.00  0.00    +0.000 NA
ATOM      2  H   UNL     1      47.335   6.556  15.789  0.00  0.00    +0.000 HD
ENDROOT
BRANCH   1   3
ATOM      3  C   UNL     1      49.086   6.777  16.816  0.00  0.00    +0.000 C 
BRANCH   3   4
ATOM      4  C   UNL     1      48.987   5.266  16.993  0.00  0.00    +0.000 A 
ATOM      5  C   UNL     1      47.814   4.528  16.941  0.00  0.00    +0.000 A 
ATOM      6  S   UNL     1      48.049   2.853  17.178  0.00  0.00    +0.000 S 
ATOM      7  C   UNL     1      49.728   3.058  17.370  0.00  0.00    +0.000 A 
ATOM      8  N   UNL     1      50.547   1.996  17.600  0.00  0.00    +0.000 NA
ATOM      9  C   UNL     1      51.794   2.307  17.724  0.00  0.00    +0.000 A 
ATOM     10  N   UNL     1      52.297   3.581  17.642  0.00  0.00    +0.000 N 
ATOM     11  C   UNL     1      51.511   4.689  17.417  0.00  0.00    +0.000 A 
ATOM     12  O   UNL     1      51.996   5.816  17.350  0.00  0.00    +0.000 OA
ATOM     13  C   UNL     1      50.099   4.386  17.258  0.00  0.00    +0.000 A 
ATOM     14  H   UNL     1      53.286   3.752  17.753  0.00  0.00    +0.000 HD
ENDBRANCH   3   4
BRANCH   3  15
ATOM     15  C   UNL     1      48.772   7.536  18.146  0.00  0.00    +0.000 C 
BRANCH  15  16
ATOM     16  N   UNL     1      49.869   7.569  19.122  0.00  0.00    +0.000 NA
ATOM     17  H   UNL     1      49.559   8.066  19.955  0.00  0.00    +0.000 HD
ATOM     18  H   UNL     1      50.649   8.103  18.732  0.00  0.00    +0.000 HD
ENDBRANCH  15  16
ENDBRANCH   3  15
ENDBRANCH   1   3
BRANCH   1  19
ATOM     19  C   UNL     1      48.741   6.954  14.391  0.00  0.00    +0.000 C 
BRANCH  19  20
ATOM     20  C   UNL     1      47.692   6.488  13.411  0.00  0.00    +0.000 A 
ATOM     21  C   UNL     1      47.421   7.239  12.257  0.00  0.00    +0.000 A 
ATOM     22  C   UNL     1      46.497   6.786  11.317  0.00  0.00    +0.000 A 
ATOM     23  C   UNL     1      45.832   5.565  11.502  0.00  0.00    +0.000 A 
ATOM     24  C   UNL     1      46.094   4.821  12.660  0.00  0.00    +0.000 A 
ATOM     25  C   UNL     1      47.015   5.277  13.605  0.00  0.00    +0.000 A 
BRANCH  23  26
ATOM     26  C   UNL     1      44.871   5.056  10.454  0.00  0.00    +0.000 C 
BRANCH  26  27
ATOM     27  N   UNL     1      45.519   5.055   9.143  0.00  0.00    +0.000 NA
ATOM     28  H   UNL     1      46.503   4.823   9.281  0.00  0.00    +0.000 HD
BRANCH  27  29
ATOM     29  C   UNL     1      44.926   4.062   8.255  0.00  0.00    +0.000 C 
BRANCH  29  30
ATOM     30  C   UNL     1      45.988   3.137   7.793  0.00  0.00    +0.000 A 
ATOM     31  C   UNL     1      46.239   1.804   8.038  0.00  0.00    +0.000 A 
ATOM     32  N   UNL     1      47.368   1.388   7.379  0.00  0.00    +0.000 NA
ATOM     33  C   UNL     1      47.804   2.446   6.736  0.00  0.00    +0.000 A 
ATOM     34  N   UNL     1      46.995   3.523   6.941  0.00  0.00    +0.000 N 
ATOM     35  H   UNL     1      47.117   4.459   6.579  0.00  0.00    +0.000 HD
ENDBRANCH  29  30
ENDBRANCH  27  29
ENDBRANCH  26  27
ENDBRANCH  23  26
ENDBRANCH  19  20
ENDBRANCH   1  19
TORSDOF 10
ENDMDL
MODEL 7
REMARK VINA RESULT:    -6.758      3.314      8.654
REMARK INTER + INTRA:         -11.320
REMARK INTER:                 -10.707
REMARK INTRA:                  -0.613
REMARK UNBOUND:                -0.809
REMARK  Name = 
REMARK  10 active torsions:
REMARK  status: ('A' for Active; 'I' for Inactive)
REMARK    1  A    between atoms: N_1  and  C_2
REMARK    2  A    between atoms: C_2  and  C_3
REMARK    3  A    between atoms: C_3  and  N_4
REMARK    4  A    between atoms: C_3  and  C_20
REMARK    5  A    between atoms: N_4  and  C_5
REMARK    6  A    between atoms: C_5  and  C_6
REMARK    7  A    between atoms: C_9  and  C_10
REMARK    8  A    between atoms: C_10  and  N_11
REMARK    9  A    between atoms: N_11  and  C_12
REMARK   10  A    between atoms: C_12  and  C_13
REMARK                            x       y       z     vdW  Elec       q    Type
REMARK                         _______ _______ _______ _____ _____    ______ ____
ROOT
ATOM      1  N   UNL     1      46.510   6.608  11.569  0.00  0.00    +0.000 NA
ATOM      2  H   UNL     1      46.915   5.723  11.875  0.00  0.00    +0.000 HD
ENDROOT
BRANCH   1   3
ATOM      3  C   UNL     1      45.072   6.600  11.896  0.00  0.00    +0.000 C 
BRANCH   3   4
ATOM      4  C   UNL     1      44.576   5.175  11.682  0.00  0.00    +0.000 A 
ATOM      5  C   UNL     1      43.882   4.419  12.615  0.00  0.00    +0.000 A 
ATOM      6  S   UNL     1      43.471   2.857  12.060  0.00  0.00    +0.000 S 
ATOM      7  C   UNL     1      44.217   3.133  10.555  0.00  0.00    +0.000 A 
ATOM      8  N   UNL     1      44.223   2.180   9.584  0.00  0.00    +0.000 NA
ATOM      9  C   UNL     1      44.826   2.533   8.499  0.00  0.00    +0.000 A 
ATOM     10  N   UNL     1      45.427   3.751   8.296  0.00  0.00    +0.000 N 
ATOM     11  C   UNL     1      45.453   4.746   9.247  0.00  0.00    +0.000 A 
ATOM     12  O   UNL     1      46.001   5.825   9.030  0.00  0.00    +0.000 OA
ATOM     13  C   UNL     1      44.774   4.398  10.483  0.00  0.00    +0.000 A 
ATOM     14  H   UNL     1      45.885   3.959   7.421  0.00  0.00    +0.000 HD
ENDBRANCH   3   4
BRANCH   3  15
ATOM     15  C   UNL     1      44.253   7.629  11.050  0.00  0.00    +0.000 C 
BRANCH  15  16
ATOM     16  N   UNL     1      42.798   7.426  11.056  0.00  0.00    +0.000 NA
ATOM     17  H   UNL     1      42.601   6.432  10.954  0.00  0.00    +0.000 HD
ATOM     18  H   UNL     1      42.390   7.893  10.243  0.00  0.00    +0.000 HD
ENDBRANCH  15  16
ENDBRANCH   3  15
ENDBRANCH   1   3
BRANCH   1  19
ATOM     19  C   UNL     1      47.250   7.689  12.212  0.00  0.00    +0.000 C 
BRANCH  19  20
ATOM     20  C   UNL     1      47.794   7.251  13.550  0.00  0.00    +0.000 A 
ATOM     21  C   UNL     1      48.460   8.168  14.377  0.00  0.00    +0.000 A 
ATOM     22  C   UNL     1      48.912   7.787  15.639  0.00  0.00    +0.000 A 
ATOM     23  C   UNL     1      48.697   6.484  16.109  0.00  0.00    +0.000 A 
ATOM     24  C   UNL     1      48.042   5.564  15.280  0.00  0.00    +0.000 A 
ATOM     25  C   UNL     1      47.595   5.943  14.012  0.00  0.00    +0.000 A 
BRANCH  23  26
ATOM     26  C   UNL     1      49.144   6.094  17.498  0.00  0.00    +0.000 C 
BRANCH  26  27
ATOM     27  N   UNL     1      48.107   5.294  18.148  0.00  0.00    +0.000 NA
ATOM     28  H   UNL     1      47.494   4.926  17.421  0.00  0.00    +0.000 HD
BRANCH  27  29
ATOM     29  C   UNL     1      48.680   4.174  18.885  0.00  0.00    +0.000 C 
BRANCH  29  30
ATOM     30  C   UNL     1      49.208   3.183  17.918  0.00  0.00    +0.000 A 
ATOM     31  C   UNL     1      48.661   2.575  16.809  0.00  0.00    +0.000 A 
ATOM     32  N   UNL     1      49.556   1.707  16.234  0.00  0.00    +0.000 NA
ATOM     33  C   UNL     1      50.637   1.782  16.974  0.00  0.00    +0.000 A 
ATOM     34  N   UNL     1      50.483   2.672  17.994  0.00  0.00    +0.000 N 
ATOM     35  H   UNL     1      51.153   2.901  18.716  0.00  0.00    +0.000 HD
ENDBRANCH  29  30
ENDBRANCH  27  29
ENDBRANCH  26  27
ENDBRANCH  23  26
ENDBRANCH  19  20
ENDBRANCH   1  19
TORSDOF 10
ENDMDL
MODEL 8
REMARK VINA RESULT:    -6.725      1.697      2.186
REMARK INTER + INTRA:         -11.268
REMARK INTER:                 -10.516
REMARK INTRA:                  -0.752
REMARK UNBOUND:                -0.809
REMARK  Name = 
REMARK  10 active torsions:
REMARK  status: ('A' for Active; 'I' for Inactive)
REMARK    1  A    between atoms: N_1  and  C_2
REMARK    2  A    between atoms: C_2  and  C_3
REMARK    3  A    between atoms: C_3  and  N_4
REMARK    4  A    between atoms: C_3  and  C_20
REMARK    5  A    between atoms: N_4  and  C_5
REMARK    6  A    between atoms: C_5  and  C_6
REMARK    7  A    between atoms: C_9  and  C_10
REMARK    8  A    between atoms: C_10  and  N_11
REMARK    9  A    between atoms: N_11  and  C_12
REMARK   10  A    between atoms: C_12  and  C_13
REMARK                            x       y       z     vdW  Elec       q    Type
REMARK                         _______ _______ _______ _____ _____    ______ ____
ROOT
ATOM      1  N   UNL     1      48.253   4.843  15.792  0.00  0.00    +0.000 NA
ATOM      2  H   UNL     1      48.003   5.808  15.571  0.00  0.00    +0.000 HD
ENDROOT
BRANCH   1   3
ATOM      3  C   UNL     1      48.590   4.767  17.226  0.00  0.00    +0.000 C 
BRANCH   3   4
ATOM      4  C   UNL     1      49.763   3.802  17.355  0.00  0.00    +0.000 A 
ATOM      5  C   UNL     1      49.689   2.425  17.203  0.00  0.00    +0.000 A 
ATOM      6  S   UNL     1      51.188   1.633  17.410  0.00  0.00    +0.000 S 
ATOM      7  C   UNL     1      51.987   3.104  17.722  0.00  0.00    +0.000 A 
ATOM      8  N   UNL     1      53.323   3.141  17.977  0.00  0.00    +0.000 NA
ATOM      9  C   UNL     1      53.787   4.326  18.194  0.00  0.00    +0.000 A 
ATOM     10  N   UNL     1      53.039   5.476  18.182  0.00  0.00    +0.000 N 
ATOM     11  C   UNL     1      51.684   5.492  17.934  0.00  0.00    +0.000 A 
ATOM     12  O   UNL     1      51.045   6.542  17.931  0.00  0.00    +0.000 OA
ATOM     13  C   UNL     1      51.119   4.180  17.671  0.00  0.00    +0.000 A 
ATOM     14  H   UNL     1      53.468   6.372  18.364  0.00  0.00    +0.000 HD
ENDBRANCH   3   4
BRANCH   3  15
ATOM     15  C   UNL     1      47.378   4.324  18.110  0.00  0.00    +0.000 C 
BRANCH  15  16
ATOM     16  N   UNL     1      46.595   5.422  18.692  0.00  0.00    +0.000 NA
ATOM     17  H   UNL     1      46.582   5.320  19.706  0.00  0.00    +0.000 HD
ATOM     18  H   UNL     1      45.626   5.348  18.375  0.00  0.00    +0.000 HD
ENDBRANCH  15  16
ENDBRANCH   3  15
ENDBRANCH   1   3
BRANCH   1  19
ATOM     19  C   UNL     1      47.136   3.987  15.407  0.00  0.00    +0.000 C 
BRANCH  19  20
ATOM     20  C   UNL     1      46.657   4.319  14.014  0.00  0.00    +0.000 A 
ATOM     21  C   UNL     1      45.947   3.367  13.267  0.00  0.00    +0.000 A 
ATOM     22  C   UNL     1      45.449   3.684  12.004  0.00  0.00    +0.000 A 
ATOM     23  C   UNL     1      45.637   4.965  11.466  0.00  0.00    +0.000 A 
ATOM     24  C   UNL     1      46.355   5.913  12.207  0.00  0.00    +0.000 A 
ATOM     25  C   UNL     1      46.860   5.593  13.469  0.00  0.00    +0.000 A 
BRANCH  23  26
ATOM     26  C   UNL     1      45.049   5.318  10.120  0.00  0.00    +0.000 C 
BRANCH  26  27
ATOM     27  N   UNL     1      44.565   4.108   9.456  0.00  0.00    +0.000 NA
ATOM     28  H   UNL     1      43.546   4.152   9.431  0.00  0.00    +0.000 HD
BRANCH  27  29
ATOM     29  C   UNL     1      45.060   4.015   8.088  0.00  0.00    +0.000 C 
BRANCH  29  30
ATOM     30  C   UNL     1      45.792   2.736   7.929  0.00  0.00    +0.000 A 
ATOM     31  C   UNL     1      45.611   1.481   8.468  0.00  0.00    +0.000 A 
ATOM     32  N   UNL     1      46.570   0.609   8.016  0.00  0.00    +0.000 NA
ATOM     33  C   UNL     1      47.327   1.314   7.209  0.00  0.00    +0.000 A 
ATOM     34  N   UNL     1      46.888   2.600   7.110  0.00  0.00    +0.000 N 
ATOM     35  H   UNL     1      47.303   3.351   6.573  0.00  0.00    +0.000 HD
ENDBRANCH  29  30
ENDBRANCH  27  29
ENDBRANCH  26  27
ENDBRANCH  23  26
ENDBRANCH  19  20
ENDBRANCH   1  19
TORSDOF 10
ENDMDL
MODEL 9
REMARK VINA RESULT:    -6.367      1.803      2.206
REMARK INTER + INTRA:         -10.711
REMARK INTER:                  -9.818
REMARK INTRA:                  -0.893
REMARK UNBOUND:                -0.809
REMARK  Name = 
REMARK  10 active torsions:
REMARK  status: ('A' for Active; 'I' for Inactive)
REMARK    1  A    between atoms: N_1  and  C_2
REMARK    2  A    between atoms: C_2  and  C_3
REMARK    3  A    between atoms: C_3  and  N_4
REMARK    4  A    between atoms: C_3  and  C_20
REMARK    5  A    between atoms: N_4  and  C_5
REMARK    6  A    between atoms: C_5  and  C_6
REMARK    7  A    between atoms: C_9  and  C_10
REMARK    8  A    between atoms: C_10  and  N_11
REMARK    9  A    between atoms: N_11  and  C_12
REMARK   10  A    between atoms: C_12  and  C_13
REMARK                            x       y       z     vdW  Elec       q    Type
REMARK                         _______ _______ _______ _____ _____    ______ ____
ROOT
ATOM      1  N   UNL     1      49.448   6.522  15.134  0.00  0.00    +0.000 NA
ATOM      2  H   UNL     1      50.107   5.824  14.788  0.00  0.00    +0.000 HD
ENDROOT
BRANCH   1   3
ATOM      3  C   UNL     1      50.173   7.442  16.032  0.00  0.00    +0.000 C 
BRANCH   3   4
ATOM      4  C   UNL     1      51.460   6.737  16.443  0.00  0.00    +0.000 A 
ATOM      5  C   UNL     1      52.741   7.232  16.251  0.00  0.00    +0.000 A 
ATOM      6  S   UNL     1      53.969   6.194  16.827  0.00  0.00    +0.000 S 
ATOM      7  C   UNL     1      52.830   5.039  17.345  0.00  0.00    +0.000 A 
ATOM      8  N   UNL     1      53.219   3.883  17.947  0.00  0.00    +0.000 NA
ATOM      9  C   UNL     1      52.243   3.107  18.282  0.00  0.00    +0.000 A 
ATOM     10  N   UNL     1      50.915   3.379  18.070  0.00  0.00    +0.000 N 
ATOM     11  C   UNL     1      50.470   4.531  17.460  0.00  0.00    +0.000 A 
ATOM     12  O   UNL     1      49.271   4.741  17.286  0.00  0.00    +0.000 OA
ATOM     13  C   UNL     1      51.533   5.443  17.076  0.00  0.00    +0.000 A 
ATOM     14  H   UNL     1      50.203   2.723  18.356  0.00  0.00    +0.000 HD
ENDBRANCH   3   4
BRANCH   3  15
ATOM     15  C   UNL     1      49.325   7.867  17.276  0.00  0.00    +0.000 C 
BRANCH  15  16
ATOM     16  N   UNL     1      47.985   7.272  17.352  0.00  0.00    +0.000 NA
ATOM     17  H   UNL     1      47.792   7.009  18.317  0.00  0.00    +0.000 HD
ATOM     18  H   UNL     1      47.968   6.411  16.802  0.00  0.00    +0.000 HD
ENDBRANCH  15  16
ENDBRANCH   3  15
ENDBRANCH   1   3
BRANCH   1  19
ATOM     19  C   UNL     1      48.845   7.184  13.982  0.00  0.00    +0.000 C 
BRANCH  19  20
ATOM     20  C   UNL     1      47.740   6.342  13.392  0.00  0.00    +0.000 A 
ATOM     21  C   UNL     1      47.185   5.287  14.133  0.00  0.00    +0.000 A 
ATOM     22  C   UNL     1      46.124   4.542  13.620  0.00  0.00    +0.000 A 
ATOM     23  C   UNL     1      45.585   4.843  12.361  0.00  0.00    +0.000 A 
ATOM     24  C   UNL     1      46.146   5.889  11.617  0.00  0.00    +0.000 A 
ATOM     25  C   UNL     1      47.213   6.631  12.127  0.00  0.00    +0.000 A 
BRANCH  23  26
ATOM     26  C   UNL     1      44.402   4.065  11.835  0.00  0.00    +0.000 C 
BRANCH  26  27
ATOM     27  N   UNL     1      44.861   2.838  11.187  0.00  0.00    +0.000 NA
ATOM     28  H   UNL     1      44.608   2.054  11.789  0.00  0.00    +0.000 HD
BRANCH  27  29
ATOM     29  C   UNL     1      44.229   2.651   9.887  0.00  0.00    +0.000 C 
BRANCH  29  30
ATOM     30  C   UNL     1      45.271   2.706   8.834  0.00  0.00    +0.000 A 
ATOM     31  C   UNL     1      46.094   1.748   8.282  0.00  0.00    +0.000 A 
ATOM     32  N   UNL     1      46.913   2.297   7.327  0.00  0.00    +0.000 NA
ATOM     33  C   UNL     1      46.598   3.570   7.289  0.00  0.00    +0.000 A 
ATOM     34  N   UNL     1      45.600   3.863   8.169  0.00  0.00    +0.000 N 
ATOM     35  H   UNL     1      45.188   4.769   8.351  0.00  0.00    +0.000 HD
ENDBRANCH  29  30
ENDBRANCH  27  29
ENDBRANCH  26  27
ENDBRANCH  23  26
ENDBRANCH  19  20
ENDBRANCH   1  19
TORSDOF 10
ENDMDL
