MODEL 1
REMARK VINA RESULT:    -9.059      0.000      0.000
REMARK INTER + INTRA:         -11.922
REMARK INTER:                 -11.178
REMARK INTRA:                  -0.745
REMARK UNBOUND:                -0.745
REMARK  Name = 
REMARK  4 active torsions:
REMARK  status: ('A' for Active; 'I' for Inactive)
REMARK    1  A    between atoms: C_2  and  C_4
REMARK    2  A    between atoms: N_8  and  C_9
REMARK    3  A    between atoms: C_9  and  C_10
REMARK    4  A    between atoms: C_14  and  C_15
REMARK                            x       y       z     vdW  Elec       q    Type
REMARK                         _______ _______ _______ _____ _____    ______ ____
ROOT
ATOM      1  C   UNL     1      46.358   2.239   7.647  0.00  0.00    +0.000 A 
ATOM      2  C   UNL     1      45.659   1.776   8.757  0.00  0.00    +0.000 A 
ATOM      3  C   UNL     1      44.805   2.647   9.434  0.00  0.00    +0.000 A 
ATOM      4  C   UNL     1      44.678   3.964   9.009  0.00  0.00    +0.000 A 
ATOM      5  N   UNL     1      43.801   4.861   9.579  0.00  0.00    +0.000 N 
ATOM      6  N   UNL     1      45.360   4.426   7.941  0.00  0.00    +0.000 NA
ATOM      7  C   UNL     1      46.188   3.567   7.289  0.00  0.00    +0.000 A 
ATOM      8  H   UNL     1      43.966   5.772   9.160  0.00  0.00    +0.000 HD
ENDROOT
BRANCH   1  10
ATOM      9  N   UNL     1      48.306   1.980   6.220  0.00  0.00    +0.000 N 
ATOM     10  C   UNL     1      47.262   1.375   6.863  0.00  0.00    +0.000 C 
ATOM     11  O   UNL     1      47.102   0.160   6.811  0.00  0.00    +0.000 OA
ATOM     12  H   UNL     1      48.970   1.371   5.761  0.00  0.00    +0.000 HD
ATOM     13  H   UNL     1      48.611   2.918   6.441  0.00  0.00    +0.000 HD
ENDBRANCH   1  10
BRANCH   5  14
ATOM     14  C   UNL     1      43.486   4.856  10.992  0.00  0.00    +0.000 C 
BRANCH  14  15
ATOM     15  C   UNL     1      44.680   5.168  11.854  0.00  0.00    +0.000 A 
ATOM     16  C   UNL     1      44.958   4.435  13.008  0.00  0.00    +0.000 A 
ATOM     17  C   UNL     1      46.011   4.839  13.809  0.00  0.00    +0.000 A 
ATOM     18  N   UNL     1      46.795   5.907  13.543  0.00  0.00    +0.000 NA
ATOM     19  C   UNL     1      46.548   6.610  12.409  0.00  0.00    +0.000 A 
ATOM     20  C   UNL     1      45.502   6.262  11.552  0.00  0.00    +0.000 A 
BRANCH  19  21
ATOM     21  C   UNL     1      47.402   7.791  12.172  0.00  0.00    +0.000 A 
ATOM     22  C   UNL     1      48.756   7.671  11.804  0.00  0.00    +0.000 A 
ATOM     23  C   UNL     1      49.541   8.797  11.538  0.00  0.00    +0.000 A 
ATOM     24  C   UNL     1      48.992  10.071  11.644  0.00  0.00    +0.000 A 
ATOM     25  C   UNL     1      47.662  10.220  12.023  0.00  0.00    +0.000 A 
ATOM     26  C   UNL     1      46.879   9.093  12.287  0.00  0.00    +0.000 A 
ENDBRANCH  19  21
ENDBRANCH  14  15
ENDBRANCH   5  14
TORSDOF 4
ENDMDL
MODEL 2
REMARK VINA RESULT:    -8.178      3.066      6.774
REMARK INTER + INTRA:         -10.835
REMARK INTER:                 -10.373
REMARK INTRA:                  -0.463
REMARK UNBOUND:                -0.745
REMARK  Name = 
REMARK  4 active torsions:
REMARK  status: ('A' for Active; 'I' for Inactive)
REMARK    1  A    between atoms: C_2  and  C_4
REMARK    2  A    between atoms: N_8  and  C_9
REMARK    3  A    between atoms: C_9  and  C_10
REMARK    4  A    between atoms: C_14  and  C_15
REMARK                            x       y       z     vdW  Elec       q    Type
REMARK                         _______ _______ _______ _____ _____    ______ ____
ROOT
ATOM      1  C   UNL     1      48.138   6.971  13.554  0.00  0.00    +0.000 A 
ATOM      2  C   UNL     1      47.359   5.827  13.419  0.00  0.00    +0.000 A 
ATOM      3  C   UNL     1      46.225   5.868  12.609  0.00  0.00    +0.000 A 
ATOM      4  C   UNL     1      45.874   7.049  11.965  0.00  0.00    +0.000 A 
ATOM      5  N   UNL     1      44.813   7.148  11.091  0.00  0.00    +0.000 N 
ATOM      6  N   UNL     1      46.616   8.167  12.097  0.00  0.00    +0.000 NA
ATOM      7  C   UNL     1      47.721   8.113  12.890  0.00  0.00    +0.000 A 
ATOM      8  H   UNL     1      44.708   8.124  10.833  0.00  0.00    +0.000 HD
ENDROOT
BRANCH   1  10
ATOM      9  N   UNL     1      50.457   7.631  13.841  0.00  0.00    +0.000 N 
ATOM     10  C   UNL     1      49.366   7.003  14.373  0.00  0.00    +0.000 C 
ATOM     11  O   UNL     1      49.400   6.512  15.495  0.00  0.00    +0.000 OA
ATOM     12  H   UNL     1      51.263   7.727  14.444  0.00  0.00    +0.000 HD
ATOM     13  H   UNL     1      50.394   8.254  13.047  0.00  0.00    +0.000 HD
ENDBRANCH   1  10
BRANCH   5  14
ATOM     14  C   UNL     1      43.588   6.397  11.264  0.00  0.00    +0.000 C 
BRANCH  14  15
ATOM     15  C   UNL     1      43.734   4.949  10.879  0.00  0.00    +0.000 A 
ATOM     16  C   UNL     1      43.153   3.932  11.636  0.00  0.00    +0.000 A 
ATOM     17  C   UNL     1      43.411   2.618  11.285  0.00  0.00    +0.000 A 
ATOM     18  N   UNL     1      44.195   2.256  10.246  0.00  0.00    +0.000 NA
ATOM     19  C   UNL     1      44.742   3.239   9.489  0.00  0.00    +0.000 A 
ATOM     20  C   UNL     1      44.527   4.587   9.783  0.00  0.00    +0.000 A 
BRANCH  19  21
ATOM     21  C   UNL     1      45.622   2.803   8.386  0.00  0.00    +0.000 A 
ATOM     22  C   UNL     1      46.161   1.503   8.330  0.00  0.00    +0.000 A 
ATOM     23  C   UNL     1      46.956   1.089   7.257  0.00  0.00    +0.000 A 
ATOM     24  C   UNL     1      47.238   1.970   6.218  0.00  0.00    +0.000 A 
ATOM     25  C   UNL     1      46.734   3.266   6.256  0.00  0.00    +0.000 A 
ATOM     26  C   UNL     1      45.939   3.677   7.329  0.00  0.00    +0.000 A 
ENDBRANCH  19  21
ENDBRANCH  14  15
ENDBRANCH   5  14
TORSDOF 4
ENDMDL
MODEL 3
REMARK VINA RESULT:    -8.076      3.056      6.759
REMARK INTER + INTRA:         -10.709
REMARK INTER:                  -9.868
REMARK INTRA:                  -0.841
REMARK UNBOUND:                -0.745
REMARK  Name = 
REMARK  4 active torsions:
REMARK  status: ('A' for Active; 'I' for Inactive)
REMARK    1  A    between atoms: C_2  and  C_4
REMARK    2  A    between atoms: N_8  and  C_9
REMARK    3  A    between atoms: C_9  and  C_10
REMARK    4  A    between atoms: C_14  and  C_15
REMARK                            x       y       z     vdW  Elec       q    Type
REMARK                         _______ _______ _______ _____ _____    ______ ____
ROOT
ATOM      1  C   UNL     1      49.010   7.494  12.573  0.00  0.00    +0.000 A 
ATOM      2  C   UNL     1      48.091   8.031  11.677  0.00  0.00    +0.000 A 
ATOM      3  C   UNL     1      46.744   7.690  11.799  0.00  0.00    +0.000 A 
ATOM      4  C   UNL     1      46.338   6.808  12.794  0.00  0.00    +0.000 A 
ATOM      5  N   UNL     1      45.019   6.482  13.024  0.00  0.00    +0.000 N 
ATOM      6  N   UNL     1      47.222   6.273  13.660  0.00  0.00    +0.000 NA
ATOM      7  C   UNL     1      48.533   6.614  13.531  0.00  0.00    +0.000 A 
ATOM      8  H   UNL     1      44.994   5.753  13.730  0.00  0.00    +0.000 HD
ENDROOT
BRANCH   1  10
ATOM      9  N   UNL     1      51.120   7.527  11.373  0.00  0.00    +0.000 N 
ATOM     10  C   UNL     1      50.448   7.823  12.526  0.00  0.00    +0.000 C 
ATOM     11  O   UNL     1      51.012   8.365  13.470  0.00  0.00    +0.000 OA
ATOM     12  H   UNL     1      52.081   7.838  11.317  0.00  0.00    +0.000 HD
ATOM     13  H   UNL     1      50.648   7.320  10.504  0.00  0.00    +0.000 HD
ENDBRANCH   1  10
BRANCH   5  14
ATOM     14  C   UNL     1      44.045   6.373  11.959  0.00  0.00    +0.000 C 
BRANCH  14  15
ATOM     15  C   UNL     1      43.969   4.985  11.381  0.00  0.00    +0.000 A 
ATOM     16  C   UNL     1      43.229   3.977  11.999  0.00  0.00    +0.000 A 
ATOM     17  C   UNL     1      43.284   2.699  11.472  0.00  0.00    +0.000 A 
ATOM     18  N   UNL     1      44.014   2.362  10.387  0.00  0.00    +0.000 NA
ATOM     19  C   UNL     1      44.717   3.341   9.764  0.00  0.00    +0.000 A 
ATOM     20  C   UNL     1      44.710   4.654  10.239  0.00  0.00    +0.000 A 
BRANCH  19  21
ATOM     21  C   UNL     1      45.531   2.926   8.604  0.00  0.00    +0.000 A 
ATOM     22  C   UNL     1      45.910   3.833   7.595  0.00  0.00    +0.000 A 
ATOM     23  C   UNL     1      46.720   3.437   6.526  0.00  0.00    +0.000 A 
ATOM     24  C   UNL     1      47.161   2.121   6.437  0.00  0.00    +0.000 A 
ATOM     25  C   UNL     1      46.787   1.199   7.409  0.00  0.00    +0.000 A 
ATOM     26  C   UNL     1      45.979   1.598   8.477  0.00  0.00    +0.000 A 
ENDBRANCH  19  21
ENDBRANCH  14  15
ENDBRANCH   5  14
TORSDOF 4
ENDMDL
MODEL 4
REMARK VINA RESULT:    -7.579      1.742      2.439
REMARK INTER + INTRA:         -10.096
REMARK INTER:                  -9.842
REMARK INTRA:                  -0.254
REMARK UNBOUND:                -0.745
REMARK  Name = 
REMARK  4 active torsions:
REMARK  status: ('A' for Active; 'I' for Inactive)
REMARK    1  A    between atoms: C_2  and  C_4
REMARK    2  A    between atoms: N_8  and  C_9
REMARK    3  A    between atoms: C_9  and  C_10
REMARK    4  A    between atoms: C_14  and  C_15
REMARK                            x       y       z     vdW  Elec       q    Type
REMARK                         _______ _______ _______ _____ _____    ______ ____
ROOT
ATOM      1  C   UNL     1      46.520   2.640   7.170  0.00  0.00    +0.000 A 
ATOM      2  C   UNL     1      45.980   3.824   7.663  0.00  0.00    +0.000 A 
ATOM      3  C   UNL     1      45.262   3.797   8.858  0.00  0.00    +0.000 A 
ATOM      4  C   UNL     1      45.078   2.595   9.531  0.00  0.00    +0.000 A 
ATOM      5  N   UNL     1      44.446   2.500  10.752  0.00  0.00    +0.000 N 
ATOM      6  N   UNL     1      45.587   1.440   9.056  0.00  0.00    +0.000 NA
ATOM      7  C   UNL     1      46.286   1.479   7.889  0.00  0.00    +0.000 A 
ATOM      8  H   UNL     1      44.352   1.515  10.982  0.00  0.00    +0.000 HD
ENDROOT
BRANCH   1  10
ATOM      9  N   UNL     1      48.642   2.296   6.042  0.00  0.00    +0.000 N 
ATOM     10  C   UNL     1      47.312   2.588   5.925  0.00  0.00    +0.000 C 
ATOM     11  O   UNL     1      46.795   2.771   4.829  0.00  0.00    +0.000 OA
ATOM     12  H   UNL     1      49.156   2.174   5.179  0.00  0.00    +0.000 HD
ATOM     13  H   UNL     1      49.042   1.898   6.880  0.00  0.00    +0.000 HD
ENDBRANCH   1  10
BRANCH   5  14
ATOM     14  C   UNL     1      43.336   3.351  11.125  0.00  0.00    +0.000 C 
BRANCH  14  15
ATOM     15  C   UNL     1      43.767   4.754  11.459  0.00  0.00    +0.000 A 
ATOM     16  C   UNL     1      42.942   5.850  11.203  0.00  0.00    +0.000 A 
ATOM     17  C   UNL     1      43.439   7.120  11.440  0.00  0.00    +0.000 A 
ATOM     18  N   UNL     1      44.682   7.368  11.907  0.00  0.00    +0.000 NA
ATOM     19  C   UNL     1      45.481   6.307  12.183  0.00  0.00    +0.000 A 
ATOM     20  C   UNL     1      45.049   4.997  11.969  0.00  0.00    +0.000 A 
BRANCH  19  21
ATOM     21  C   UNL     1      46.845   6.620  12.657  0.00  0.00    +0.000 A 
ATOM     22  C   UNL     1      47.761   7.345  11.870  0.00  0.00    +0.000 A 
ATOM     23  C   UNL     1      49.032   7.673  12.349  0.00  0.00    +0.000 A 
ATOM     24  C   UNL     1      49.421   7.276  13.624  0.00  0.00    +0.000 A 
ATOM     25  C   UNL     1      48.543   6.543  14.416  0.00  0.00    +0.000 A 
ATOM     26  C   UNL     1      47.272   6.217  13.936  0.00  0.00    +0.000 A 
ENDBRANCH  19  21
ENDBRANCH  14  15
ENDBRANCH   5  14
TORSDOF 4
ENDMDL
MODEL 5
REMARK VINA RESULT:    -7.405      3.947      7.878
REMARK INTER + INTRA:          -9.881
REMARK INTER:                  -9.390
REMARK INTRA:                  -0.492
REMARK UNBOUND:                -0.745
REMARK  Name = 
REMARK  4 active torsions:
REMARK  status: ('A' for Active; 'I' for Inactive)
REMARK    1  A    between atoms: C_2  and  C_4
REMARK    2  A    between atoms: N_8  and  C_9
REMARK    3  A    between atoms: C_9  and  C_10
REMARK    4  A    between atoms: C_14  and  C_15
REMARK                            x       y       z     vdW  Elec       q    Type
REMARK                         _______ _______ _______ _____ _____    ______ ____
ROOT
ATOM      1  C   UNL     1      49.290   4.192  17.162  0.00  0.00    +0.000 A 
ATOM      2  C   UNL     1      48.947   5.438  16.649  0.00  0.00    +0.000 A 
ATOM      3  C   UNL     1      47.866   5.539  15.774  0.00  0.00    +0.000 A 
ATOM      4  C   UNL     1      47.158   4.399  15.409  0.00  0.00    +0.000 A 
ATOM      5  N   UNL     1      46.036   4.429  14.611  0.00  0.00    +0.000 N 
ATOM      6  N   UNL     1      47.490   3.185  15.892  0.00  0.00    +0.000 NA
ATOM      7  C   UNL     1      48.546   3.099  16.745  0.00  0.00    +0.000 A 
ATOM      8  H   UNL     1      45.765   3.470  14.414  0.00  0.00    +0.000 HD
ENDROOT
BRANCH   1  10
ATOM      9  N   UNL     1      50.132   4.175  19.439  0.00  0.00    +0.000 N 
ATOM     10  C   UNL     1      50.405   4.004  18.110  0.00  0.00    +0.000 C 
ATOM     11  O   UNL     1      51.524   3.681  17.728  0.00  0.00    +0.000 OA
ATOM     12  H   UNL     1      50.878   3.956  20.086  0.00  0.00    +0.000 HD
ATOM     13  H   UNL     1      49.189   4.190  19.804  0.00  0.00    +0.000 HD
ENDBRANCH   1  10
BRANCH   5  14
ATOM     14  C   UNL     1      45.873   5.374  13.527  0.00  0.00    +0.000 C 
BRANCH  14  15
ATOM     15  C   UNL     1      45.051   4.822  12.393  0.00  0.00    +0.000 A 
ATOM     16  C   UNL     1      43.670   4.659  12.507  0.00  0.00    +0.000 A 
ATOM     17  C   UNL     1      42.990   4.052  11.466  0.00  0.00    +0.000 A 
ATOM     18  N   UNL     1      43.582   3.604  10.337  0.00  0.00    +0.000 NA
ATOM     19  C   UNL     1      44.920   3.782  10.208  0.00  0.00    +0.000 A 
ATOM     20  C   UNL     1      45.673   4.386  11.217  0.00  0.00    +0.000 A 
BRANCH  19  21
ATOM     21  C   UNL     1      45.537   3.246   8.977  0.00  0.00    +0.000 A 
ATOM     22  C   UNL     1      45.963   4.085   7.930  0.00  0.00    +0.000 A 
ATOM     23  C   UNL     1      46.586   3.568   6.790  0.00  0.00    +0.000 A 
ATOM     24  C   UNL     1      46.788   2.197   6.667  0.00  0.00    +0.000 A 
ATOM     25  C   UNL     1      46.361   1.343   7.679  0.00  0.00    +0.000 A 
ATOM     26  C   UNL     1      45.739   1.862   8.818  0.00  0.00    +0.000 A 
ENDBRANCH  19  21
ENDBRANCH  14  15
ENDBRANCH   5  14
TORSDOF 4
ENDMDL
MODEL 6
REMARK VINA RESULT:    -6.848      3.268      6.988
REMARK INTER + INTRA:          -9.194
REMARK INTER:                  -8.472
REMARK INTRA:                  -0.722
REMARK UNBOUND:                -0.745
REMARK  Name = 
REMARK  4 active torsions:
REMARK  status: ('A' for Active; 'I' for Inactive)
REMARK    1  A    between atoms: C_2  and  C_4
REMARK    2  A    between atoms: N_8  and  C_9
REMARK    3  A    between atoms: C_9  and  C_10
REMARK    4  A    between atoms: C_14  and  C_15
REMARK                            x       y       z     vdW  Elec       q    Type
REMARK                         _______ _______ _______ _____ _____    ______ ____
ROOT
ATOM      1  C   UNL     1      50.092   8.525  12.510  0.00  0.00    +0.000 A 
ATOM      2  C   UNL     1      49.561   7.287  12.859  0.00  0.00    +0.000 A 
ATOM      3  C   UNL     1      48.196   7.060  12.687  0.00  0.00    +0.000 A 
ATOM      4  C   UNL     1      47.381   8.071  12.191  0.00  0.00    +0.000 A 
ATOM      5  N   UNL     1      46.040   7.899  11.923  0.00  0.00    +0.000 N 
ATOM      6  N   UNL     1      47.883   9.278  11.860  0.00  0.00    +0.000 NA
ATOM      7  C   UNL     1      49.217   9.487  12.032  0.00  0.00    +0.000 A 
ATOM      8  H   UNL     1      45.653   8.802  11.666  0.00  0.00    +0.000 HD
ENDROOT
BRANCH   1  10
ATOM      9  N   UNL     1      52.325   8.579  11.558  0.00  0.00    +0.000 N 
ATOM     10  C   UNL     1      51.529   8.836  12.640  0.00  0.00    +0.000 C 
ATOM     11  O   UNL     1      51.988   9.331  13.663  0.00  0.00    +0.000 OA
ATOM     12  H   UNL     1      53.289   8.878  11.624  0.00  0.00    +0.000 HD
ATOM     13  H   UNL     1      51.952   8.414  10.633  0.00  0.00    +0.000 HD
ENDBRANCH   1  10
BRANCH   5  14
ATOM     14  C   UNL     1      45.189   7.043  12.721  0.00  0.00    +0.000 C 
BRANCH  14  15
ATOM     15  C   UNL     1      44.564   5.933  11.917  0.00  0.00    +0.000 A 
ATOM     16  C   UNL     1      43.313   5.411  12.246  0.00  0.00    +0.000 A 
ATOM     17  C   UNL     1      42.843   4.325  11.529  0.00  0.00    +0.000 A 
ATOM     18  N   UNL     1      43.523   3.733  10.523  0.00  0.00    +0.000 NA
ATOM     19  C   UNL     1      44.728   4.251  10.181  0.00  0.00    +0.000 A 
ATOM     20  C   UNL     1      45.268   5.346  10.859  0.00  0.00    +0.000 A 
BRANCH  19  21
ATOM     21  C   UNL     1      45.457   3.555   9.101  0.00  0.00    +0.000 A 
ATOM     22  C   UNL     1      45.647   2.160   9.108  0.00  0.00    +0.000 A 
ATOM     23  C   UNL     1      46.299   1.508   8.057  0.00  0.00    +0.000 A 
ATOM     24  C   UNL     1      46.785   2.239   6.978  0.00  0.00    +0.000 A 
ATOM     25  C   UNL     1      46.628   3.621   6.953  0.00  0.00    +0.000 A 
ATOM     26  C   UNL     1      45.975   4.270   8.004  0.00  0.00    +0.000 A 
ENDBRANCH  19  21
ENDBRANCH  14  15
ENDBRANCH   5  14
TORSDOF 4
ENDMDL
MODEL 7
REMARK VINA RESULT:    -6.755      3.593      7.704
REMARK INTER + INTRA:          -9.080
REMARK INTER:                  -8.548
REMARK INTRA:                  -0.531
REMARK UNBOUND:                -0.745
REMARK  Name = 
REMARK  4 active torsions:
REMARK  status: ('A' for Active; 'I' for Inactive)
REMARK    1  A    between atoms: C_2  and  C_4
REMARK    2  A    between atoms: N_8  and  C_9
REMARK    3  A    between atoms: C_9  and  C_10
REMARK    4  A    between atoms: C_14  and  C_15
REMARK                            x       y       z     vdW  Elec       q    Type
REMARK                         _______ _______ _______ _____ _____    ______ ____
ROOT
ATOM      1  C   UNL     1      49.989   7.211  15.252  0.00  0.00    +0.000 A 
ATOM      2  C   UNL     1      49.657   8.161  14.292  0.00  0.00    +0.000 A 
ATOM      3  C   UNL     1      48.449   8.039  13.605  0.00  0.00    +0.000 A 
ATOM      4  C   UNL     1      47.604   6.968  13.871  0.00  0.00    +0.000 A 
ATOM      5  N   UNL     1      46.364   6.820  13.290  0.00  0.00    +0.000 N 
ATOM      6  N   UNL     1      47.922   6.036  14.792  0.00  0.00    +0.000 NA
ATOM      7  C   UNL     1      49.103   6.166  15.455  0.00  0.00    +0.000 A 
ATOM      8  H   UNL     1      45.990   5.918  13.569  0.00  0.00    +0.000 HD
ENDROOT
BRANCH   1  10
ATOM      9  N   UNL     1      52.413   7.123  15.360  0.00  0.00    +0.000 N 
ATOM     10  C   UNL     1      51.237   7.282  16.038  0.00  0.00    +0.000 C 
ATOM     11  O   UNL     1      51.223   7.501  17.244  0.00  0.00    +0.000 OA
ATOM     12  H   UNL     1      53.263   7.263  15.890  0.00  0.00    +0.000 HD
ATOM     13  H   UNL     1      52.476   7.194  14.354  0.00  0.00    +0.000 HD
ENDBRANCH   1  10
BRANCH   5  14
ATOM     14  C   UNL     1      46.085   7.233  11.931  0.00  0.00    +0.000 C 
BRANCH  14  15
ATOM     15  C   UNL     1      45.271   6.220  11.171  0.00  0.00    +0.000 A 
ATOM     16  C   UNL     1      43.922   6.007  11.456  0.00  0.00    +0.000 A 
ATOM     17  C   UNL     1      43.259   4.990  10.791  0.00  0.00    +0.000 A 
ATOM     18  N   UNL     1      43.840   4.185   9.875  0.00  0.00    +0.000 NA
ATOM     19  C   UNL     1      45.144   4.402   9.573  0.00  0.00    +0.000 A 
ATOM     20  C   UNL     1      45.878   5.409  10.204  0.00  0.00    +0.000 A 
BRANCH  19  21
ATOM     21  C   UNL     1      45.753   3.478   8.594  0.00  0.00    +0.000 A 
ATOM     22  C   UNL     1      45.794   2.087   8.808  0.00  0.00    +0.000 A 
ATOM     23  C   UNL     1      46.332   1.219   7.852  0.00  0.00    +0.000 A 
ATOM     24  C   UNL     1      46.850   1.725   6.665  0.00  0.00    +0.000 A 
ATOM     25  C   UNL     1      46.839   3.097   6.435  0.00  0.00    +0.000 A 
ATOM     26  C   UNL     1      46.300   3.962   7.391  0.00  0.00    +0.000 A 
ENDBRANCH  19  21
ENDBRANCH  14  15
ENDBRANCH   5  14
TORSDOF 4
ENDMDL
MODEL 8
REMARK VINA RESULT:    -6.552      2.734      7.035
REMARK INTER + INTRA:          -8.828
REMARK INTER:                  -8.395
REMARK INTRA:                  -0.434
REMARK UNBOUND:                -0.745
REMARK  Name = 
REMARK  4 active torsions:
REMARK  status: ('A' for Active; 'I' for Inactive)
REMARK    1  A    between atoms: C_2  and  C_4
REMARK    2  A    between atoms: N_8  and  C_9
REMARK    3  A    between atoms: C_9  and  C_10
REMARK    4  A    between atoms: C_14  and  C_15
REMARK                            x       y       z     vdW  Elec       q    Type
REMARK                         _______ _______ _______ _____ _____    ______ ____
ROOT
ATOM      1  C   UNL     1      47.861   7.901  12.869  0.00  0.00    +0.000 A 
ATOM      2  C   UNL     1      46.479   7.783  12.986  0.00  0.00    +0.000 A 
ATOM      3  C   UNL     1      45.923   6.529  13.234  0.00  0.00    +0.000 A 
ATOM      4  C   UNL     1      46.745   5.413  13.342  0.00  0.00    +0.000 A 
ATOM      5  N   UNL     1      46.277   4.157  13.660  0.00  0.00    +0.000 N 
ATOM      6  N   UNL     1      48.083   5.514  13.219  0.00  0.00    +0.000 NA
ATOM      7  C   UNL     1      48.614   6.743  12.977  0.00  0.00    +0.000 A 
ATOM      8  H   UNL     1      47.050   3.503  13.580  0.00  0.00    +0.000 HD
ENDROOT
BRANCH   1  10
ATOM      9  N   UNL     1      48.502  10.110  13.645  0.00  0.00    +0.000 N 
ATOM     10  C   UNL     1      48.529   9.195  12.630  0.00  0.00    +0.000 C 
ATOM     11  O   UNL     1      49.109   9.431  11.576  0.00  0.00    +0.000 OA
ATOM     12  H   UNL     1      49.038  10.956  13.506  0.00  0.00    +0.000 HD
ATOM     13  H   UNL     1      48.262   9.863  14.595  0.00  0.00    +0.000 HD
ENDBRANCH   1  10
BRANCH   5  14
ATOM     14  C   UNL     1      44.984   3.672  13.224  0.00  0.00    +0.000 C 
BRANCH  14  15
ATOM     15  C   UNL     1      44.712   3.968  11.773  0.00  0.00    +0.000 A 
ATOM     16  C   UNL     1      43.652   4.787  11.383  0.00  0.00    +0.000 A 
ATOM     17  C   UNL     1      43.395   4.936  10.032  0.00  0.00    +0.000 A 
ATOM     18  N   UNL     1      44.111   4.334   9.058  0.00  0.00    +0.000 NA
ATOM     19  C   UNL     1      45.159   3.556   9.427  0.00  0.00    +0.000 A 
ATOM     20  C   UNL     1      45.478   3.359  10.772  0.00  0.00    +0.000 A 
BRANCH  19  21
ATOM     21  C   UNL     1      45.894   2.886   8.335  0.00  0.00    +0.000 A 
ATOM     22  C   UNL     1      46.120   1.496   8.330  0.00  0.00    +0.000 A 
ATOM     23  C   UNL     1      46.778   0.868   7.268  0.00  0.00    +0.000 A 
ATOM     24  C   UNL     1      47.234   1.619   6.190  0.00  0.00    +0.000 A 
ATOM     25  C   UNL     1      47.041   2.997   6.176  0.00  0.00    +0.000 A 
ATOM     26  C   UNL     1      46.382   3.622   7.239  0.00  0.00    +0.000 A 
ENDBRANCH  19  21
ENDBRANCH  14  15
ENDBRANCH   5  14
TORSDOF 4
ENDMDL
MODEL 9
REMARK VINA RESULT:    -6.521      4.892      8.095
REMARK INTER + INTRA:          -8.791
REMARK INTER:                  -8.085
REMARK INTRA:                  -0.706
REMARK UNBOUND:                -0.745
REMARK  Name = 
REMARK  4 active torsions:
REMARK  status: ('A' for Active; 'I' for Inactive)
REMARK    1  A    between atoms: C_2  and  C_4
REMARK    2  A    between atoms: N_8  and  C_9
REMARK    3  A    between atoms: C_9  and  C_10
REMARK    4  A    between atoms: C_14  and  C_15
REMARK                            x       y       z     vdW  Elec       q    Type
REMARK                         _______ _______ _______ _____ _____    ______ ____
ROOT
ATOM      1  C   UNL     1      51.136   2.482  17.464  0.00  0.00    +0.000 A 
ATOM      2  C   UNL     1      51.479   3.828  17.541  0.00  0.00    +0.000 A 
ATOM      3  C   UNL     1      50.527   4.792  17.213  0.00  0.00    +0.000 A 
ATOM      4  C   UNL     1      49.259   4.403  16.795  0.00  0.00    +0.000 A 
ATOM      5  N   UNL     1      48.244   5.295  16.526  0.00  0.00    +0.000 N 
ATOM      6  N   UNL     1      48.920   3.101  16.706  0.00  0.00    +0.000 NA
ATOM      7  C   UNL     1      49.858   2.170  17.029  0.00  0.00    +0.000 A 
ATOM      8  H   UNL     1      47.459   4.773  16.149  0.00  0.00    +0.000 HD
ENDROOT
BRANCH   1  10
ATOM      9  N   UNL     1      51.543   0.189  18.147  0.00  0.00    +0.000 N 
ATOM     10  C   UNL     1      52.078   1.402  17.816  0.00  0.00    +0.000 C 
ATOM     11  O   UNL     1      53.291   1.576  17.788  0.00  0.00    +0.000 OA
ATOM     12  H   UNL     1      52.197  -0.568  18.299  0.00  0.00    +0.000 HD
ATOM     13  H   UNL     1      50.585  -0.060  17.940  0.00  0.00    +0.000 HD
ENDBRANCH   1  10
BRANCH   5  14
ATOM     14  C   UNL     1      48.484   6.598  15.943  0.00  0.00    +0.000 C 
BRANCH  14  15
ATOM     15  C   UNL     1      48.150   6.648  14.476  0.00  0.00    +0.000 A 
ATOM     16  C   UNL     1      48.722   7.599  13.630  0.00  0.00    +0.000 A 
ATOM     17  C   UNL     1      48.294   7.656  12.316  0.00  0.00    +0.000 A 
ATOM     18  N   UNL     1      47.351   6.842  11.794  0.00  0.00    +0.000 NA
ATOM     19  C   UNL     1      46.809   5.898  12.602  0.00  0.00    +0.000 A 
ATOM     20  C   UNL     1      47.190   5.781  13.940  0.00  0.00    +0.000 A 
BRANCH  19  21
ATOM     21  C   UNL     1      45.755   5.051  12.005  0.00  0.00    +0.000 A 
ATOM     22  C   UNL     1      45.239   3.922  12.670  0.00  0.00    +0.000 A 
ATOM     23  C   UNL     1      44.210   3.157  12.114  0.00  0.00    +0.000 A 
ATOM     24  C   UNL     1      43.679   3.498  10.874  0.00  0.00    +0.000 A 
ATOM     25  C   UNL     1      44.182   4.598  10.187  0.00  0.00    +0.000 A 
ATOM     26  C   UNL     1      45.210   5.363  10.745  0.00  0.00    +0.000 A 
ENDBRANCH  19  21
ENDBRANCH  14  15
ENDBRANCH   5  14
TORSDOF 4
ENDMDL
