MODEL 1
REMARK VINA RESULT:    -6.958      0.000      0.000
REMARK INTER + INTRA:         -10.144
REMARK INTER:                  -9.398
REMARK INTRA:                  -0.745
REMARK UNBOUND:                -0.745
REMARK  Name = 
REMARK  10 active torsions:
REMARK  status: ('A' for Active; 'I' for Inactive)
REMARK    1  A    between atoms: C_1  and  C_2
REMARK    2  A    between atoms: C_8  and  C_9
REMARK    3  A    between atoms: C_9  and  C_10
REMARK    4  A    between atoms: C_9  and  C_11
REMARK    5  A    between atoms: C_9  and  C_12
REMARK    6  A    between atoms: C_12  and  O_13
REMARK    7  A    between atoms: O_13  and  C_14
REMARK    8  A    between atoms: C_17  and  N_18
REMARK    9  A    between atoms: N_18  and  S_19
REMARK   10  A    between atoms: S_19  and  C_20
REMARK                            x       y       z     vdW  Elec       q    Type
REMARK                         _______ _______ _______ _____ _____    ______ ____
ROOT
ATOM      1  C   UNL     1      44.473   5.286  12.444  0.00  0.00    +0.000 C 
ATOM      2  C   UNL     1      44.913   6.758  12.576  0.00  0.00    +0.000 C 
ATOM      3  C   UNL     1      42.971   5.175  12.796  0.00  0.00    +0.000 C 
ENDROOT
BRANCH   1  11
ATOM      4  C   UNL     1      46.710   2.557   5.365  0.00  0.00    +0.000 C 
ATOM      5  C   UNL     1      46.669   3.252   6.699  0.00  0.00    +0.000 C 
ATOM      6  O   UNL     1      47.679   3.730   7.203  0.00  0.00    +0.000 OA
ATOM      7  N   UNL     1      45.409   3.281   7.256  0.00  0.00    +0.000 N 
ATOM      8  C   UNL     1      45.152   3.835   8.512  0.00  0.00    +0.000 A 
ATOM      9  C   UNL     1      45.746   5.006   8.968  0.00  0.00    +0.000 A 
ATOM     10  N   UNL     1      45.517   5.512  10.206  0.00  0.00    +0.000 NA
ATOM     11  C   UNL     1      44.695   4.794  11.010  0.00  0.00    +0.000 A 
ATOM     12  C   UNL     1      44.102   3.625  10.530  0.00  0.00    +0.000 A 
ATOM     13  N   UNL     1      44.277   3.147   9.272  0.00  0.00    +0.000 NA
ATOM     14  H   UNL     1      44.756   2.553   7.002  0.00  0.00    +0.000 HD
ENDBRANCH   1  11
BRANCH   1  15
ATOM     15  C   UNL     1      45.288   4.424  13.440  0.00  0.00    +0.000 C 
BRANCH  15  16
ATOM     16  O   UNL     1      46.694   4.731  13.389  0.00  0.00    +0.000 OA
BRANCH  16  17
ATOM     17  C   UNL     1      47.267   4.723  14.648  0.00  0.00    +0.000 A 
ATOM     18  C   UNL     1      48.002   5.839  15.025  0.00  0.00    +0.000 A 
ATOM     19  C   UNL     1      48.592   5.848  16.294  0.00  0.00    +0.000 A 
ATOM     20  C   UNL     1      48.413   4.753  17.134  0.00  0.00    +0.000 A 
ATOM     21  C   UNL     1      47.669   3.683  16.659  0.00  0.00    +0.000 A 
ATOM     22  N   UNL     1      47.091   3.646  15.443  0.00  0.00    +0.000 NA
BRANCH  20  23
ATOM     23  N   UNL     1      49.041   4.685  18.414  0.00  0.00    +0.000 N 
ATOM     24  H   UNL     1      49.153   3.748  18.805  0.00  0.00    +0.000 HD
BRANCH  23  25
ATOM     25  S   UNL     1      48.451   5.724  19.614  0.00  0.00    +0.000 S 
ATOM     26  C   UNL     1      48.717   4.773  21.096  0.00  0.00    +0.000 C 
ATOM     27  O   UNL     1      49.261   6.917  19.661  0.00  0.00    +0.000 OA
ATOM     28  O   UNL     1      47.022   5.791  19.385  0.00  0.00    +0.000 OA
ENDBRANCH  23  25
ENDBRANCH  20  23
ENDBRANCH  16  17
ENDBRANCH  15  16
ENDBRANCH   1  15
TORSDOF 6
ENDMDL
MODEL 2
REMARK VINA RESULT:    -6.923      1.635      1.852
REMARK INTER + INTRA:         -10.097
REMARK INTER:                  -9.493
REMARK INTRA:                  -0.604
REMARK UNBOUND:                -0.745
REMARK  Name = 
REMARK  10 active torsions:
REMARK  status: ('A' for Active; 'I' for Inactive)
REMARK    1  A    between atoms: C_1  and  C_2
REMARK    2  A    between atoms: C_8  and  C_9
REMARK    3  A    between atoms: C_9  and  C_10
REMARK    4  A    between atoms: C_9  and  C_11
REMARK    5  A    between atoms: C_9  and  C_12
REMARK    6  A    between atoms: C_12  and  O_13
REMARK    7  A    between atoms: O_13  and  C_14
REMARK    8  A    between atoms: C_17  and  N_18
REMARK    9  A    between atoms: N_18  and  S_19
REMARK   10  A    between atoms: S_19  and  C_20
REMARK                            x       y       z     vdW  Elec       q    Type
REMARK                         _______ _______ _______ _____ _____    ______ ____
ROOT
ATOM      1  C   UNL     1      43.794   4.635  12.216  0.00  0.00    +0.000 C 
ATOM      2  C   UNL     1      42.534   5.516  12.113  0.00  0.00    +0.000 C 
ATOM      3  C   UNL     1      43.473   3.394  13.083  0.00  0.00    +0.000 C 
ENDROOT
BRANCH   1  11
ATOM      4  C   UNL     1      47.144   2.509   5.373  0.00  0.00    +0.000 C 
ATOM      5  C   UNL     1      46.804   3.213   6.658  0.00  0.00    +0.000 C 
ATOM      6  O   UNL     1      47.557   4.047   7.150  0.00  0.00    +0.000 OA
ATOM      7  N   UNL     1      45.594   2.821   7.188  0.00  0.00    +0.000 N 
ATOM      8  C   UNL     1      45.106   3.313   8.400  0.00  0.00    +0.000 A 
ATOM      9  C   UNL     1      45.226   4.642   8.790  0.00  0.00    +0.000 A 
ATOM     10  N   UNL     1      44.781   5.098   9.988  0.00  0.00    +0.000 NA
ATOM     11  C   UNL     1      44.236   4.178  10.822  0.00  0.00    +0.000 A 
ATOM     12  C   UNL     1      44.116   2.850  10.406  0.00  0.00    +0.000 A 
ATOM     13  N   UNL     1      44.501   2.400   9.186  0.00  0.00    +0.000 NA
ATOM     14  H   UNL     1      45.253   1.895   6.969  0.00  0.00    +0.000 HD
ENDBRANCH   1  11
BRANCH   1  15
ATOM     15  C   UNL     1      44.925   5.445  12.898  0.00  0.00    +0.000 C 
BRANCH  15  16
ATOM     16  O   UNL     1      46.178   4.736  12.881  0.00  0.00    +0.000 OA
BRANCH  16  17
ATOM     17  C   UNL     1      46.893   4.929  14.049  0.00  0.00    +0.000 A 
ATOM     18  C   UNL     1      47.720   6.042  14.119  0.00  0.00    +0.000 A 
ATOM     19  C   UNL     1      48.454   6.253  15.291  0.00  0.00    +0.000 A 
ATOM     20  C   UNL     1      48.320   5.355  16.346  0.00  0.00    +0.000 A 
ATOM     21  C   UNL     1      47.475   4.268  16.173  0.00  0.00    +0.000 A 
ATOM     22  N   UNL     1      46.758   4.040  15.056  0.00  0.00    +0.000 NA
BRANCH  20  23
ATOM     23  N   UNL     1      49.089   5.489  17.541  0.00  0.00    +0.000 N 
ATOM     24  H   UNL     1      49.137   6.431  17.935  0.00  0.00    +0.000 HD
BRANCH  23  25
ATOM     25  S   UNL     1      50.638   4.805  17.538  0.00  0.00    +0.000 S 
ATOM     26  C   UNL     1      51.045   4.793  19.271  0.00  0.00    +0.000 C 
ATOM     27  O   UNL     1      50.566   3.448  17.055  0.00  0.00    +0.000 OA
ATOM     28  O   UNL     1      51.483   5.790  16.895  0.00  0.00    +0.000 OA
ENDBRANCH  23  25
ENDBRANCH  20  23
ENDBRANCH  16  17
ENDBRANCH  15  16
ENDBRANCH   1  15
TORSDOF 6
ENDMDL
MODEL 3
REMARK VINA RESULT:    -6.762      3.327      4.186
REMARK INTER + INTRA:          -9.879
REMARK INTER:                  -8.978
REMARK INTRA:                  -0.902
REMARK UNBOUND:                -0.745
REMARK  Name = 
REMARK  10 active torsions:
REMARK  status: ('A' for Active; 'I' for Inactive)
REMARK    1  A    between atoms: C_1  and  C_2
REMARK    2  A    between atoms: C_8  and  C_9
REMARK    3  A    between atoms: C_9  and  C_10
REMARK    4  A    between atoms: C_9  and  C_11
REMARK    5  A    between atoms: C_9  and  C_12
REMARK    6  A    between atoms: C_12  and  O_13
REMARK    7  A    between atoms: O_13  and  C_14
REMARK    8  A    between atoms: C_17  and  N_18
REMARK    9  A    between atoms: N_18  and  S_19
REMARK   10  A    between atoms: S_19  and  C_20
REMARK                            x       y       z     vdW  Elec       q    Type
REMARK                         _______ _______ _______ _____ _____    ______ ____
ROOT
ATOM      1  C   UNL     1      43.558   4.986  12.159  0.00  0.00    +0.000 C 
ATOM      2  C   UNL     1      42.209   5.642  11.805  0.00  0.00    +0.000 C 
ATOM      3  C   UNL     1      43.337   3.958  13.294  0.00  0.00    +0.000 C 
ENDROOT
BRANCH   1  11
ATOM      4  C   UNL     1      47.266   2.182   5.759  0.00  0.00    +0.000 C 
ATOM      5  C   UNL     1      46.616   3.082   6.775  0.00  0.00    +0.000 C 
ATOM      6  O   UNL     1      46.731   4.302   6.715  0.00  0.00    +0.000 OA
ATOM      7  N   UNL     1      45.908   2.394   7.735  0.00  0.00    +0.000 N 
ATOM      8  C   UNL     1      45.265   3.030   8.798  0.00  0.00    +0.000 A 
ATOM      9  C   UNL     1      44.573   4.229   8.669  0.00  0.00    +0.000 A 
ATOM     10  N   UNL     1      43.986   4.855   9.719  0.00  0.00    +0.000 NA
ATOM     11  C   UNL     1      44.136   4.270  10.934  0.00  0.00    +0.000 A 
ATOM     12  C   UNL     1      44.827   3.061  11.041  0.00  0.00    +0.000 A 
ATOM     13  N   UNL     1      45.362   2.398   9.986  0.00  0.00    +0.000 NA
ATOM     14  H   UNL     1      46.187   1.447   7.948  0.00  0.00    +0.000 HD
ENDBRANCH   1  11
BRANCH   1  15
ATOM     15  C   UNL     1      44.538   6.079  12.654  0.00  0.00    +0.000 C 
BRANCH  15  16
ATOM     16  O   UNL     1      45.589   5.527  13.470  0.00  0.00    +0.000 OA
BRANCH  16  17
ATOM     17  C   UNL     1      46.815   6.098  13.183  0.00  0.00    +0.000 A 
ATOM     18  C   UNL     1      46.967   6.702  11.943  0.00  0.00    +0.000 A 
ATOM     19  C   UNL     1      48.202   7.283  11.633  0.00  0.00    +0.000 A 
ATOM     20  C   UNL     1      49.224   7.248  12.576  0.00  0.00    +0.000 A 
ATOM     21  C   UNL     1      48.975   6.611  13.783  0.00  0.00    +0.000 A 
ATOM     22  N   UNL     1      47.797   6.043  14.107  0.00  0.00    +0.000 NA
BRANCH  20  23
ATOM     23  N   UNL     1      50.520   7.772  12.290  0.00  0.00    +0.000 N 
ATOM     24  H   UNL     1      51.277   7.087  12.245  0.00  0.00    +0.000 HD
BRANCH  23  25
ATOM     25  S   UNL     1      51.028   9.105  13.204  0.00  0.00    +0.000 S 
ATOM     26  C   UNL     1      52.295   9.807  12.169  0.00  0.00    +0.000 C 
ATOM     27  O   UNL     1      49.941  10.045  13.331  0.00  0.00    +0.000 OA
ATOM     28  O   UNL     1      51.675   8.538  14.368  0.00  0.00    +0.000 OA
ENDBRANCH  23  25
ENDBRANCH  20  23
ENDBRANCH  16  17
ENDBRANCH  15  16
ENDBRANCH   1  15
TORSDOF 6
ENDMDL
MODEL 4
REMARK VINA RESULT:    -6.428      4.176      9.126
REMARK INTER + INTRA:          -9.428
REMARK INTER:                  -8.964
REMARK INTRA:                  -0.464
REMARK UNBOUND:                -0.745
REMARK  Name = 
REMARK  10 active torsions:
REMARK  status: ('A' for Active; 'I' for Inactive)
REMARK    1  A    between atoms: C_1  and  C_2
REMARK    2  A    between atoms: C_8  and  C_9
REMARK    3  A    between atoms: C_9  and  C_10
REMARK    4  A    between atoms: C_9  and  C_11
REMARK    5  A    between atoms: C_9  and  C_12
REMARK    6  A    between atoms: C_12  and  O_13
REMARK    7  A    between atoms: O_13  and  C_14
REMARK    8  A    between atoms: C_17  and  N_18
REMARK    9  A    between atoms: N_18  and  S_19
REMARK   10  A    between atoms: S_19  and  C_20
REMARK                            x       y       z     vdW  Elec       q    Type
REMARK                         _______ _______ _______ _____ _____    ______ ____
ROOT
ATOM      1  C   UNL     1      49.309   4.848  18.013  0.00  0.00    +0.000 C 
ATOM      2  C   UNL     1      48.699   4.732  19.423  0.00  0.00    +0.000 C 
ATOM      3  C   UNL     1      50.068   6.192  17.901  0.00  0.00    +0.000 C 
ENDROOT
BRANCH   1  11
ATOM      4  C   UNL     1      54.471  -1.143  17.855  0.00  0.00    +0.000 C 
ATOM      5  C   UNL     1      53.744   0.129  18.194  0.00  0.00    +0.000 C 
ATOM      6  O   UNL     1      54.006   0.765  19.210  0.00  0.00    +0.000 OA
ATOM      7  N   UNL     1      52.791   0.475  17.262  0.00  0.00    +0.000 N 
ATOM      8  C   UNL     1      51.967   1.593  17.403  0.00  0.00    +0.000 A 
ATOM      9  C   UNL     1      52.414   2.816  17.892  0.00  0.00    +0.000 A 
ATOM     10  N   UNL     1      51.593   3.883  18.060  0.00  0.00    +0.000 NA
ATOM     11  C   UNL     1      50.284   3.693  17.761  0.00  0.00    +0.000 A 
ATOM     12  C   UNL     1      49.858   2.461  17.262  0.00  0.00    +0.000 A 
ATOM     13  N   UNL     1      50.684   1.410  17.032  0.00  0.00    +0.000 NA
ATOM     14  H   UNL     1      52.369  -0.262  16.713  0.00  0.00    +0.000 HD
ENDBRANCH   1  11
BRANCH   1  15
ATOM     15  C   UNL     1      48.169   4.826  16.965  0.00  0.00    +0.000 C 
BRANCH  15  16
ATOM     16  O   UNL     1      48.571   5.435  15.723  0.00  0.00    +0.000 OA
BRANCH  16  17
ATOM     17  C   UNL     1      47.666   5.178  14.709  0.00  0.00    +0.000 A 
ATOM     18  C   UNL     1      47.298   3.857  14.497  0.00  0.00    +0.000 A 
ATOM     19  C   UNL     1      46.386   3.576  13.474  0.00  0.00    +0.000 A 
ATOM     20  C   UNL     1      45.871   4.625  12.717  0.00  0.00    +0.000 A 
ATOM     21  C   UNL     1      46.310   5.910  13.001  0.00  0.00    +0.000 A 
ATOM     22  N   UNL     1      47.187   6.208  13.979  0.00  0.00    +0.000 NA
BRANCH  20  23
ATOM     23  N   UNL     1      44.984   4.390  11.624  0.00  0.00    +0.000 N 
ATOM     24  H   UNL     1      44.966   5.114  10.903  0.00  0.00    +0.000 HD
BRANCH  23  25
ATOM     25  S   UNL     1      43.396   3.943  12.007  0.00  0.00    +0.000 S 
ATOM     26  C   UNL     1      42.485   5.418  11.600  0.00  0.00    +0.000 C 
ATOM     27  O   UNL     1      42.975   2.868  11.142  0.00  0.00    +0.000 OA
ATOM     28  O   UNL     1      43.382   3.801  13.448  0.00  0.00    +0.000 OA
ENDBRANCH  23  25
ENDBRANCH  20  23
ENDBRANCH  16  17
ENDBRANCH  15  16
ENDBRANCH   1  15
TORSDOF 6
ENDMDL
MODEL 5
REMARK VINA RESULT:    -6.330      3.901      8.272
REMARK INTER + INTRA:          -9.296
REMARK INTER:                  -8.826
REMARK INTRA:                  -0.470
REMARK UNBOUND:                -0.745
REMARK  Name = 
REMARK  10 active torsions:
REMARK  status: ('A' for Active; 'I' for Inactive)
REMARK    1  A    between atoms: C_1  and  C_2
REMARK    2  A    between atoms: C_8  and  C_9
REMARK    3  A    between atoms: C_9  and  C_10
REMARK    4  A    between atoms: C_9  and  C_11
REMARK    5  A    between atoms: C_9  and  C_12
REMARK    6  A    between atoms: C_12  and  O_13
REMARK    7  A    between atoms: O_13  and  C_14
REMARK    8  A    between atoms: C_17  and  N_18
REMARK    9  A    between atoms: N_18  and  S_19
REMARK   10  A    between atoms: S_19  and  C_20
REMARK                            x       y       z     vdW  Elec       q    Type
REMARK                         _______ _______ _______ _____ _____    ______ ____
ROOT
ATOM      1  C   UNL     1      48.926   8.707  15.927  0.00  0.00    +0.000 C 
ATOM      2  C   UNL     1      48.027   9.319  17.019  0.00  0.00    +0.000 C 
ATOM      3  C   UNL     1      50.081   9.688  15.616  0.00  0.00    +0.000 C 
ENDROOT
BRANCH   1  11
ATOM      4  C   UNL     1      51.277   1.341  17.599  0.00  0.00    +0.000 C 
ATOM      5  C   UNL     1      50.458   2.548  17.228  0.00  0.00    +0.000 C 
ATOM      6  O   UNL     1      49.328   2.437  16.766  0.00  0.00    +0.000 OA
ATOM      7  N   UNL     1      51.109   3.739  17.465  0.00  0.00    +0.000 N 
ATOM      8  C   UNL     1      50.552   4.979  17.150  0.00  0.00    +0.000 A 
ATOM      9  C   UNL     1      49.211   5.288  17.348  0.00  0.00    +0.000 A 
ATOM     10  N   UNL     1      48.674   6.485  17.001  0.00  0.00    +0.000 NA
ATOM     11  C   UNL     1      49.510   7.374  16.408  0.00  0.00    +0.000 A 
ATOM     12  C   UNL     1      50.855   7.048  16.227  0.00  0.00    +0.000 A 
ATOM     13  N   UNL     1      51.412   5.878  16.628  0.00  0.00    +0.000 NA
ATOM     14  H   UNL     1      52.120   3.743  17.451  0.00  0.00    +0.000 HD
ENDBRANCH   1  11
BRANCH   1  15
ATOM     15  C   UNL     1      48.088   8.494  14.642  0.00  0.00    +0.000 C 
BRANCH  15  16
ATOM     16  O   UNL     1      48.530   7.342  13.898  0.00  0.00    +0.000 OA
BRANCH  16  17
ATOM     17  C   UNL     1      47.503   6.440  13.689  0.00  0.00    +0.000 A 
ATOM     18  C   UNL     1      46.323   6.927  13.142  0.00  0.00    +0.000 A 
ATOM     19  C   UNL     1      45.271   6.030  12.925  0.00  0.00    +0.000 A 
ATOM     20  C   UNL     1      45.445   4.688  13.250  0.00  0.00    +0.000 A 
ATOM     21  C   UNL     1      46.659   4.304  13.802  0.00  0.00    +0.000 A 
ATOM     22  N   UNL     1      47.688   5.145  14.022  0.00  0.00    +0.000 NA
BRANCH  20  23
ATOM     23  N   UNL     1      44.386   3.743  13.106  0.00  0.00    +0.000 N 
ATOM     24  H   UNL     1      44.485   2.880  13.644  0.00  0.00    +0.000 HD
BRANCH  23  25
ATOM     25  S   UNL     1      43.906   3.365  11.526  0.00  0.00    +0.000 S 
ATOM     26  C   UNL     1      42.962   4.804  11.068  0.00  0.00    +0.000 C 
ATOM     27  O   UNL     1      45.068   3.267  10.678  0.00  0.00    +0.000 OA
ATOM     28  O   UNL     1      42.981   2.260  11.669  0.00  0.00    +0.000 OA
ENDBRANCH  23  25
ENDBRANCH  20  23
ENDBRANCH  16  17
ENDBRANCH  15  16
ENDBRANCH   1  15
TORSDOF 6
ENDMDL
MODEL 6
REMARK VINA RESULT:    -5.728      3.553      8.770
REMARK INTER + INTRA:          -8.483
REMARK INTER:                  -7.935
REMARK INTRA:                  -0.548
REMARK UNBOUND:                -0.745
REMARK  Name = 
REMARK  10 active torsions:
REMARK  status: ('A' for Active; 'I' for Inactive)
REMARK    1  A    between atoms: C_1  and  C_2
REMARK    2  A    between atoms: C_8  and  C_9
REMARK    3  A    between atoms: C_9  and  C_10
REMARK    4  A    between atoms: C_9  and  C_11
REMARK    5  A    between atoms: C_9  and  C_12
REMARK    6  A    between atoms: C_12  and  O_13
REMARK    7  A    between atoms: O_13  and  C_14
REMARK    8  A    between atoms: C_17  and  N_18
REMARK    9  A    between atoms: N_18  and  S_19
REMARK   10  A    between atoms: S_19  and  C_20
REMARK                            x       y       z     vdW  Elec       q    Type
REMARK                         _______ _______ _______ _____ _____    ______ ____
ROOT
ATOM      1  C   UNL     1      49.807   8.516  13.982  0.00  0.00    +0.000 C 
ATOM      2  C   UNL     1      49.256   9.953  14.073  0.00  0.00    +0.000 C 
ATOM      3  C   UNL     1      51.266   8.567  13.470  0.00  0.00    +0.000 C 
ENDROOT
BRANCH   1  11
ATOM      4  C   UNL     1      48.731   4.508  20.716  0.00  0.00    +0.000 C 
ATOM      5  C   UNL     1      48.514   5.280  19.443  0.00  0.00    +0.000 C 
ATOM      6  O   UNL     1      47.403   5.369  18.931  0.00  0.00    +0.000 OA
ATOM      7  N   UNL     1      49.667   5.849  18.950  0.00  0.00    +0.000 N 
ATOM      8  C   UNL     1      49.702   6.569  17.754  0.00  0.00    +0.000 A 
ATOM      9  C   UNL     1      48.702   7.451  17.363  0.00  0.00    +0.000 A 
ATOM     10  N   UNL     1      48.730   8.115  16.180  0.00  0.00    +0.000 NA
ATOM     11  C   UNL     1      49.778   7.849  15.361  0.00  0.00    +0.000 A 
ATOM     12  C   UNL     1      50.777   6.967  15.778  0.00  0.00    +0.000 A 
ATOM     13  N   UNL     1      50.788   6.348  16.985  0.00  0.00    +0.000 NA
ATOM     14  H   UNL     1      50.551   5.413  19.177  0.00  0.00    +0.000 HD
ENDBRANCH   1  11
BRANCH   1  15
ATOM     15  C   UNL     1      48.949   7.708  12.977  0.00  0.00    +0.000 C 
BRANCH  15  16
ATOM     16  O   UNL     1      47.568   8.115  13.003  0.00  0.00    +0.000 OA
BRANCH  16  17
ATOM     17  C   UNL     1      46.714   7.029  13.051  0.00  0.00    +0.000 A 
ATOM     18  C   UNL     1      47.270   5.787  13.328  0.00  0.00    +0.000 A 
ATOM     19  C   UNL     1      46.421   4.675  13.378  0.00  0.00    +0.000 A 
ATOM     20  C   UNL     1      45.058   4.851  13.165  0.00  0.00    +0.000 A 
ATOM     21  C   UNL     1      44.603   6.132  12.885  0.00  0.00    +0.000 A 
ATOM     22  N   UNL     1      45.396   7.219  12.830  0.00  0.00    +0.000 NA
BRANCH  20  23
ATOM     23  N   UNL     1      44.157   3.744  13.146  0.00  0.00    +0.000 N 
ATOM     24  H   UNL     1      44.496   2.888  13.589  0.00  0.00    +0.000 HD
BRANCH  23  25
ATOM     25  S   UNL     1      43.446   3.359  11.658  0.00  0.00    +0.000 S 
ATOM     26  C   UNL     1      44.845   3.387  10.557  0.00  0.00    +0.000 C 
ATOM     27  O   UNL     1      42.908   2.022  11.712  0.00  0.00    +0.000 OA
ATOM     28  O   UNL     1      42.609   4.496  11.335  0.00  0.00    +0.000 OA
ENDBRANCH  23  25
ENDBRANCH  20  23
ENDBRANCH  16  17
ENDBRANCH  15  16
ENDBRANCH   1  15
TORSDOF 6
ENDMDL
MODEL 7
REMARK VINA RESULT:    -5.635      3.826      5.457
REMARK INTER + INTRA:          -8.357
REMARK INTER:                  -7.388
REMARK INTRA:                  -0.969
REMARK UNBOUND:                -0.745
REMARK  Name = 
REMARK  10 active torsions:
REMARK  status: ('A' for Active; 'I' for Inactive)
REMARK    1  A    between atoms: C_1  and  C_2
REMARK    2  A    between atoms: C_8  and  C_9
REMARK    3  A    between atoms: C_9  and  C_10
REMARK    4  A    between atoms: C_9  and  C_11
REMARK    5  A    between atoms: C_9  and  C_12
REMARK    6  A    between atoms: C_12  and  O_13
REMARK    7  A    between atoms: O_13  and  C_14
REMARK    8  A    between atoms: C_17  and  N_18
REMARK    9  A    between atoms: N_18  and  S_19
REMARK   10  A    between atoms: S_19  and  C_20
REMARK                            x       y       z     vdW  Elec       q    Type
REMARK                         _______ _______ _______ _____ _____    ______ ____
ROOT
ATOM      1  C   UNL     1      49.355   9.604  12.703  0.00  0.00    +0.000 C 
ATOM      2  C   UNL     1      49.866   9.991  11.301  0.00  0.00    +0.000 C 
ATOM      3  C   UNL     1      49.107  10.893  13.523  0.00  0.00    +0.000 C 
ENDROOT
BRANCH   1  11
ATOM      4  C   UNL     1      43.006   4.896  12.993  0.00  0.00    +0.000 C 
ATOM      5  C   UNL     1      44.413   5.428  13.018  0.00  0.00    +0.000 C 
ATOM      6  O   UNL     1      45.346   4.751  13.437  0.00  0.00    +0.000 OA
ATOM      7  N   UNL     1      44.516   6.713  12.531  0.00  0.00    +0.000 N 
ATOM      8  C   UNL     1      45.722   7.416  12.506  0.00  0.00    +0.000 A 
ATOM      9  C   UNL     1      46.940   6.835  12.174  0.00  0.00    +0.000 A 
ATOM     10  N   UNL     1      48.110   7.521  12.192  0.00  0.00    +0.000 NA
ATOM     11  C   UNL     1      48.047   8.816  12.591  0.00  0.00    +0.000 A 
ATOM     12  C   UNL     1      46.812   9.383  12.912  0.00  0.00    +0.000 A 
ATOM     13  N   UNL     1      45.630   8.720  12.836  0.00  0.00    +0.000 NA
ATOM     14  H   UNL     1      43.707   7.314  12.594  0.00  0.00    +0.000 HD
ENDBRANCH   1  11
BRANCH   1  15
ATOM     15  C   UNL     1      50.435   8.754  13.418  0.00  0.00    +0.000 C 
BRANCH  15  16
ATOM     16  O   UNL     1      50.476   9.019  14.833  0.00  0.00    +0.000 OA
BRANCH  16  17
ATOM     17  C   UNL     1      50.020   7.942  15.571  0.00  0.00    +0.000 A 
ATOM     18  C   UNL     1      50.943   6.963  15.914  0.00  0.00    +0.000 A 
ATOM     19  C   UNL     1      50.500   5.864  16.659  0.00  0.00    +0.000 A 
ATOM     20  C   UNL     1      49.163   5.796  17.039  0.00  0.00    +0.000 A 
ATOM     21  C   UNL     1      48.319   6.821  16.637  0.00  0.00    +0.000 A 
ATOM     22  N   UNL     1      48.718   7.890  15.921  0.00  0.00    +0.000 NA
BRANCH  20  23
ATOM     23  N   UNL     1      48.646   4.670  17.747  0.00  0.00    +0.000 N 
ATOM     24  H   UNL     1      49.276   4.250  18.434  0.00  0.00    +0.000 HD
BRANCH  23  25
ATOM     25  S   UNL     1      47.931   3.445  16.823  0.00  0.00    +0.000 S 
ATOM     26  C   UNL     1      49.165   2.162  16.882  0.00  0.00    +0.000 C 
ATOM     27  O   UNL     1      46.731   2.983  17.478  0.00  0.00    +0.000 OA
ATOM     28  O   UNL     1      47.900   3.963  15.471  0.00  0.00    +0.000 OA
ENDBRANCH  23  25
ENDBRANCH  20  23
ENDBRANCH  16  17
ENDBRANCH  15  16
ENDBRANCH   1  15
TORSDOF 6
ENDMDL
MODEL 8
REMARK VINA RESULT:    -5.628      3.355      9.071
REMARK INTER + INTRA:          -8.347
REMARK INTER:                  -8.013
REMARK INTRA:                  -0.334
REMARK UNBOUND:                -0.745
REMARK  Name = 
REMARK  10 active torsions:
REMARK  status: ('A' for Active; 'I' for Inactive)
REMARK    1  A    between atoms: C_1  and  C_2
REMARK    2  A    between atoms: C_8  and  C_9
REMARK    3  A    between atoms: C_9  and  C_10
REMARK    4  A    between atoms: C_9  and  C_11
REMARK    5  A    between atoms: C_9  and  C_12
REMARK    6  A    between atoms: C_12  and  O_13
REMARK    7  A    between atoms: O_13  and  C_14
REMARK    8  A    between atoms: C_17  and  N_18
REMARK    9  A    between atoms: N_18  and  S_19
REMARK   10  A    between atoms: S_19  and  C_20
REMARK                            x       y       z     vdW  Elec       q    Type
REMARK                         _______ _______ _______ _____ _____    ______ ____
ROOT
ATOM      1  C   UNL     1      48.008   3.558  16.508  0.00  0.00    +0.000 C 
ATOM      2  C   UNL     1      49.086   2.463  16.629  0.00  0.00    +0.000 C 
ATOM      3  C   UNL     1      46.805   3.182  17.406  0.00  0.00    +0.000 C 
ENDROOT
BRANCH   1  11
ATOM      4  C   UNL     1      50.538  10.937  17.817  0.00  0.00    +0.000 C 
ATOM      5  C   UNL     1      50.184   9.622  17.175  0.00  0.00    +0.000 C 
ATOM      6  O   UNL     1      50.181   9.485  15.956  0.00  0.00    +0.000 OA
ATOM      7  N   UNL     1      49.880   8.638  18.089  0.00  0.00    +0.000 N 
ATOM      8  C   UNL     1      49.479   7.355  17.710  0.00  0.00    +0.000 A 
ATOM      9  C   UNL     1      50.043   6.660  16.646  0.00  0.00    +0.000 A 
ATOM     10  N   UNL     1      49.617   5.429  16.265  0.00  0.00    +0.000 NA
ATOM     11  C   UNL     1      48.572   4.909  16.957  0.00  0.00    +0.000 A 
ATOM     12  C   UNL     1      48.027   5.620  18.028  0.00  0.00    +0.000 A 
ATOM     13  N   UNL     1      48.489   6.822  18.454  0.00  0.00    +0.000 NA
ATOM     14  H   UNL     1      49.519   8.916  18.991  0.00  0.00    +0.000 HD
ENDBRANCH   1  11
BRANCH   1  15
ATOM     15  C   UNL     1      47.531   3.637  15.036  0.00  0.00    +0.000 C 
BRANCH  15  16
ATOM     16  O   UNL     1      46.730   4.809  14.795  0.00  0.00    +0.000 OA
BRANCH  16  17
ATOM     17  C   UNL     1      46.111   4.763  13.559  0.00  0.00    +0.000 A 
ATOM     18  C   UNL     1      46.401   5.778  12.657  0.00  0.00    +0.000 A 
ATOM     19  C   UNL     1      45.783   5.749  11.402  0.00  0.00    +0.000 A 
ATOM     20  C   UNL     1      44.915   4.706  11.097  0.00  0.00    +0.000 A 
ATOM     21  C   UNL     1      44.683   3.746  12.071  0.00  0.00    +0.000 A 
ATOM     22  N   UNL     1      45.263   3.748  13.287  0.00  0.00    +0.000 NA
BRANCH  20  23
ATOM     23  N   UNL     1      44.212   4.660   9.855  0.00  0.00    +0.000 N 
ATOM     24  H   UNL     1      43.258   4.295   9.898  0.00  0.00    +0.000 HD
BRANCH  23  25
ATOM     25  S   UNL     1      45.021   3.961   8.542  0.00  0.00    +0.000 S 
ATOM     26  C   UNL     1      45.521   2.386   9.206  0.00  0.00    +0.000 C 
ATOM     27  O   UNL     1      44.090   3.748   7.460  0.00  0.00    +0.000 OA
ATOM     28  O   UNL     1      46.213   4.762   8.364  0.00  0.00    +0.000 OA
ENDBRANCH  23  25
ENDBRANCH  20  23
ENDBRANCH  16  17
ENDBRANCH  15  16
ENDBRANCH   1  15
TORSDOF 6
ENDMDL
MODEL 9
REMARK VINA RESULT:    -5.312      3.204      4.408
REMARK INTER + INTRA:          -7.920
REMARK INTER:                  -6.962
REMARK INTRA:                  -0.958
REMARK UNBOUND:                -0.745
REMARK  Name = 
REMARK  10 active torsions:
REMARK  status: ('A' for Active; 'I' for Inactive)
REMARK    1  A    between atoms: C_1  and  C_2
REMARK    2  A    between atoms: C_8  and  C_9
REMARK    3  A    between atoms: C_9  and  C_10
REMARK    4  A    between atoms: C_9  and  C_11
REMARK    5  A    between atoms: C_9  and  C_12
REMARK    6  A    between atoms: C_12  and  O_13
REMARK    7  A    between atoms: O_13  and  C_14
REMARK    8  A    between atoms: C_17  and  N_18
REMARK    9  A    between atoms: N_18  and  S_19
REMARK   10  A    between atoms: S_19  and  C_20
REMARK                            x       y       z     vdW  Elec       q    Type
REMARK                         _______ _______ _______ _____ _____    ______ ____
ROOT
ATOM      1  C   UNL     1      47.821   8.985  12.576  0.00  0.00    +0.000 C 
ATOM      2  C   UNL     1      49.098   8.758  11.744  0.00  0.00    +0.000 C 
ATOM      3  C   UNL     1      46.984  10.108  11.919  0.00  0.00    +0.000 C 
ENDROOT
BRANCH   1  11
ATOM      4  C   UNL     1      43.304   2.545  11.748  0.00  0.00    +0.000 C 
ATOM      5  C   UNL     1      43.871   3.935  11.649  0.00  0.00    +0.000 C 
ATOM      6  O   UNL     1      43.462   4.735  10.815  0.00  0.00    +0.000 OA
ATOM      7  N   UNL     1      44.862   4.183  12.573  0.00  0.00    +0.000 N 
ATOM      8  C   UNL     1      45.557   5.393  12.627  0.00  0.00    +0.000 A 
ATOM      9  C   UNL     1      44.953   6.632  12.446  0.00  0.00    +0.000 A 
ATOM     10  N   UNL     1      45.647   7.797  12.463  0.00  0.00    +0.000 NA
ATOM     11  C   UNL     1      46.989   7.700  12.631  0.00  0.00    +0.000 A 
ATOM     12  C   UNL     1      47.575   6.447  12.821  0.00  0.00    +0.000 A 
ATOM     13  N   UNL     1      46.879   5.284  12.868  0.00  0.00    +0.000 NA
ATOM     14  H   UNL     1      45.399   3.401  12.921  0.00  0.00    +0.000 HD
ENDBRANCH   1  11
BRANCH   1  15
ATOM     15  C   UNL     1      48.221   9.427  14.006  0.00  0.00    +0.000 C 
BRANCH  15  16
ATOM     16  O   UNL     1      49.571   9.043  14.328  0.00  0.00    +0.000 OA
BRANCH  16  17
ATOM     17  C   UNL     1      49.620   8.238  15.452  0.00  0.00    +0.000 A 
ATOM     18  C   UNL     1      49.204   8.790  16.656  0.00  0.00    +0.000 A 
ATOM     19  C   UNL     1      49.250   7.992  17.804  0.00  0.00    +0.000 A 
ATOM     20  C   UNL     1      49.694   6.678  17.701  0.00  0.00    +0.000 A 
ATOM     21  C   UNL     1      50.098   6.224  16.453  0.00  0.00    +0.000 A 
ATOM     22  N   UNL     1      50.066   6.969  15.332  0.00  0.00    +0.000 NA
BRANCH  20  23
ATOM     23  N   UNL     1      49.817   5.840  18.849  0.00  0.00    +0.000 N 
ATOM     24  H   UNL     1      50.720   5.375  18.966  0.00  0.00    +0.000 HD
BRANCH  23  25
ATOM     25  S   UNL     1      48.574   4.721  19.119  0.00  0.00    +0.000 S 
ATOM     26  C   UNL     1      48.610   4.544  20.891  0.00  0.00    +0.000 C 
ATOM     27  O   UNL     1      47.312   5.297  18.723  0.00  0.00    +0.000 OA
ATOM     28  O   UNL     1      49.052   3.482  18.543  0.00  0.00    +0.000 OA
ENDBRANCH  23  25
ENDBRANCH  20  23
ENDBRANCH  16  17
ENDBRANCH  15  16
ENDBRANCH   1  15
TORSDOF 6
ENDMDL
