MODEL 1
REMARK VINA RESULT:    -7.465      0.000      0.000
REMARK INTER + INTRA:         -10.060
REMARK INTER:                  -9.211
REMARK INTRA:                  -0.849
REMARK UNBOUND:                -0.849
REMARK  Name = 
REMARK  7 active torsions:
REMARK  status: ('A' for Active; 'I' for Inactive)
REMARK    1  A    between atoms: C_1  and  C_2
REMARK    2  A    between atoms: C_2  and  C_3
REMARK    3  A    between atoms: C_2  and  C_4
REMARK    4  A    between atoms: C_2  and  C_5
REMARK    5  A    between atoms: C_7  and  C_8
REMARK    6  A    between atoms: C_8  and  N_9
REMARK    7  A    between atoms: C_14  and  C_15
REMARK                            x       y       z     vdW  Elec       q    Type
REMARK                         _______ _______ _______ _____ _____    ______ ____
ROOT
ATOM      1  N   UNL     1      44.330   4.275  10.622  0.00  0.00    +0.000 N 
ATOM      2  C   UNL     1      43.736   3.086  10.973  0.00  0.00    +0.000 A 
ATOM      3  C   UNL     1      44.120   2.132  10.060  0.00  0.00    +0.000 A 
ATOM      4  C   UNL     1      45.010   2.750   9.140  0.00  0.00    +0.000 A 
ATOM      5  C   UNL     1      45.703   2.281   8.003  0.00  0.00    +0.000 A 
ATOM      6  C   UNL     1      46.524   3.159   7.278  0.00  0.00    +0.000 A 
ATOM      7  C   UNL     1      46.665   4.485   7.706  0.00  0.00    +0.000 A 
ATOM      8  C   UNL     1      45.988   4.971   8.831  0.00  0.00    +0.000 A 
ATOM      9  C   UNL     1      45.151   4.087   9.527  0.00  0.00    +0.000 A 
ENDROOT
BRANCH   6  10
ATOM     10  C   UNL     1      47.259   2.747   6.046  0.00  0.00    +0.000 C 
ATOM     11  N   UNL     1      48.576   2.394   6.148  0.00  0.00    +0.000 N 
ATOM     12  O   UNL     1      46.706   2.711   4.952  0.00  0.00    +0.000 OA
ATOM     13  H   UNL     1      49.112   2.377   7.000  0.00  0.00    +0.000 HD
ATOM     14  H   UNL     1      49.034   2.102   5.295  0.00  0.00    +0.000 HD
ENDBRANCH   6  10
BRANCH   1  15
ATOM     15  C   UNL     1      44.096   5.544  11.310  0.00  0.00    +0.000 C 
BRANCH  15  18
ATOM     16  C   UNL     1      47.001   7.513  12.807  0.00  0.00    +0.000 A 
ATOM     17  C   UNL     1      45.890   7.173  12.030  0.00  0.00    +0.000 A 
ATOM     18  C   UNL     1      45.267   5.927  12.179  0.00  0.00    +0.000 A 
ATOM     19  C   UNL     1      45.765   5.065  13.154  0.00  0.00    +0.000 A 
ATOM     20  C   UNL     1      46.857   5.476  13.904  0.00  0.00    +0.000 A 
ATOM     21  N   UNL     1      47.478   6.667  13.749  0.00  0.00    +0.000 NA
BRANCH  16  23
ATOM     22  C   UNL     1      48.883   8.670  11.605  0.00  0.00    +0.000 C 
ATOM     23  C   UNL     1      47.713   8.854  12.591  0.00  0.00    +0.000 C 
ATOM     24  C   UNL     1      48.248   9.383  13.938  0.00  0.00    +0.000 C 
ATOM     25  C   UNL     1      46.767   9.926  12.010  0.00  0.00    +0.000 C 
ENDBRANCH  16  23
ENDBRANCH  15  18
ENDBRANCH   1  15
TORSDOF 4
ENDMDL
MODEL 2
REMARK VINA RESULT:    -7.316      1.366      2.146
REMARK INTER + INTRA:          -9.876
REMARK INTER:                  -9.200
REMARK INTRA:                  -0.676
REMARK UNBOUND:                -0.849
REMARK  Name = 
REMARK  7 active torsions:
REMARK  status: ('A' for Active; 'I' for Inactive)
REMARK    1  A    between atoms: C_1  and  C_2
REMARK    2  A    between atoms: C_2  and  C_3
REMARK    3  A    between atoms: C_2  and  C_4
REMARK    4  A    between atoms: C_2  and  C_5
REMARK    5  A    between atoms: C_7  and  C_8
REMARK    6  A    between atoms: C_8  and  N_9
REMARK    7  A    between atoms: C_14  and  C_15
REMARK                            x       y       z     vdW  Elec       q    Type
REMARK                         _______ _______ _______ _____ _____    ______ ____
ROOT
ATOM      1  N   UNL     1      43.862   4.631  10.562  0.00  0.00    +0.000 N 
ATOM      2  C   UNL     1      43.432   3.605  11.370  0.00  0.00    +0.000 A 
ATOM      3  C   UNL     1      44.008   2.440  10.921  0.00  0.00    +0.000 A 
ATOM      4  C   UNL     1      44.849   2.769   9.824  0.00  0.00    +0.000 A 
ATOM      5  C   UNL     1      45.671   2.000   8.972  0.00  0.00    +0.000 A 
ATOM      6  C   UNL     1      46.394   2.631   7.948  0.00  0.00    +0.000 A 
ATOM      7  C   UNL     1      46.309   4.021   7.799  0.00  0.00    +0.000 A 
ATOM      8  C   UNL     1      45.502   4.803   8.633  0.00  0.00    +0.000 A 
ATOM      9  C   UNL     1      44.766   4.152   9.633  0.00  0.00    +0.000 A 
ENDROOT
BRANCH   6  10
ATOM     10  C   UNL     1      47.254   1.882   6.986  0.00  0.00    +0.000 C 
ATOM     11  N   UNL     1      48.341   2.509   6.443  0.00  0.00    +0.000 N 
ATOM     12  O   UNL     1      47.012   0.719   6.681  0.00  0.00    +0.000 OA
ATOM     13  H   UNL     1      48.631   3.453   6.641  0.00  0.00    +0.000 HD
ATOM     14  H   UNL     1      48.910   1.962   5.810  0.00  0.00    +0.000 HD
ENDBRANCH   6  10
BRANCH   1  15
ATOM     15  C   UNL     1      43.401   6.014  10.675  0.00  0.00    +0.000 C 
BRANCH  15  18
ATOM     16  C   UNL     1      46.480   7.123  12.636  0.00  0.00    +0.000 A 
ATOM     17  C   UNL     1      45.552   6.320  11.967  0.00  0.00    +0.000 A 
ATOM     18  C   UNL     1      44.424   6.885  11.358  0.00  0.00    +0.000 A 
ATOM     19  C   UNL     1      44.287   8.272  11.407  0.00  0.00    +0.000 A 
ATOM     20  C   UNL     1      45.257   9.009  12.069  0.00  0.00    +0.000 A 
ATOM     21  N   UNL     1      46.336   8.467  12.679  0.00  0.00    +0.000 NA
BRANCH  16  23
ATOM     22  C   UNL     1      47.356   5.021  13.704  0.00  0.00    +0.000 C 
ATOM     23  C   UNL     1      47.678   6.486  13.352  0.00  0.00    +0.000 C 
ATOM     24  C   UNL     1      47.993   7.272  14.641  0.00  0.00    +0.000 C 
ATOM     25  C   UNL     1      48.949   6.495  12.476  0.00  0.00    +0.000 C 
ENDBRANCH  16  23
ENDBRANCH  15  18
ENDBRANCH   1  15
TORSDOF 4
ENDMDL
MODEL 3
REMARK VINA RESULT:    -6.480      3.658      6.289
REMARK INTER + INTRA:          -8.844
REMARK INTER:                  -7.992
REMARK INTRA:                  -0.853
REMARK UNBOUND:                -0.849
REMARK  Name = 
REMARK  7 active torsions:
REMARK  status: ('A' for Active; 'I' for Inactive)
REMARK    1  A    between atoms: C_1  and  C_2
REMARK    2  A    between atoms: C_2  and  C_3
REMARK    3  A    between atoms: C_2  and  C_4
REMARK    4  A    between atoms: C_2  and  C_5
REMARK    5  A    between atoms: C_7  and  C_8
REMARK    6  A    between atoms: C_8  and  N_9
REMARK    7  A    between atoms: C_14  and  C_15
REMARK                            x       y       z     vdW  Elec       q    Type
REMARK                         _______ _______ _______ _____ _____    ______ ____
ROOT
ATOM      1  N   UNL     1      47.454   7.351  13.624  0.00  0.00    +0.000 N 
ATOM      2  C   UNL     1      46.794   8.523  13.340  0.00  0.00    +0.000 A 
ATOM      3  C   UNL     1      45.581   8.203  12.776  0.00  0.00    +0.000 A 
ATOM      4  C   UNL     1      45.480   6.786  12.749  0.00  0.00    +0.000 A 
ATOM      5  C   UNL     1      44.486   5.897  12.283  0.00  0.00    +0.000 A 
ATOM      6  C   UNL     1      44.686   4.512  12.393  0.00  0.00    +0.000 A 
ATOM      7  C   UNL     1      45.859   4.028  12.985  0.00  0.00    +0.000 A 
ATOM      8  C   UNL     1      46.857   4.890  13.454  0.00  0.00    +0.000 A 
ATOM      9  C   UNL     1      46.652   6.270  13.312  0.00  0.00    +0.000 A 
ENDROOT
BRANCH   6  10
ATOM     10  C   UNL     1      43.699   3.511  11.892  0.00  0.00    +0.000 C 
ATOM     11  N   UNL     1      43.706   2.251  12.423  0.00  0.00    +0.000 N 
ATOM     12  O   UNL     1      42.881   3.797  11.024  0.00  0.00    +0.000 OA
ATOM     13  H   UNL     1      44.326   1.925  13.146  0.00  0.00    +0.000 HD
ATOM     14  H   UNL     1      43.010   1.607  12.071  0.00  0.00    +0.000 HD
ENDBRANCH   6  10
BRANCH   1  15
ATOM     15  C   UNL     1      48.813   7.284  14.159  0.00  0.00    +0.000 C 
BRANCH  15  18
ATOM     16  C   UNL     1      48.778   5.496  17.529  0.00  0.00    +0.000 A 
ATOM     17  C   UNL     1      48.821   5.729  16.152  0.00  0.00    +0.000 A 
ATOM     18  C   UNL     1      48.811   7.034  15.646  0.00  0.00    +0.000 A 
ATOM     19  C   UNL     1      48.803   8.085  16.563  0.00  0.00    +0.000 A 
ATOM     20  C   UNL     1      48.782   7.782  17.915  0.00  0.00    +0.000 A 
ATOM     21  N   UNL     1      48.767   6.523  18.410  0.00  0.00    +0.000 NA
BRANCH  16  23
ATOM     22  C   UNL     1      47.466   3.350  17.536  0.00  0.00    +0.000 C 
ATOM     23  C   UNL     1      48.725   4.061  18.069  0.00  0.00    +0.000 C 
ATOM     24  C   UNL     1      48.694   4.085  19.611  0.00  0.00    +0.000 C 
ATOM     25  C   UNL     1      49.955   3.234  17.639  0.00  0.00    +0.000 C 
ENDBRANCH  16  23
ENDBRANCH  15  18
ENDBRANCH   1  15
TORSDOF 4
ENDMDL
MODEL 4
REMARK VINA RESULT:    -5.948      2.838      6.841
REMARK INTER + INTRA:          -8.188
REMARK INTER:                  -7.517
REMARK INTRA:                  -0.671
REMARK UNBOUND:                -0.849
REMARK  Name = 
REMARK  7 active torsions:
REMARK  status: ('A' for Active; 'I' for Inactive)
REMARK    1  A    between atoms: C_1  and  C_2
REMARK    2  A    between atoms: C_2  and  C_3
REMARK    3  A    between atoms: C_2  and  C_4
REMARK    4  A    between atoms: C_2  and  C_5
REMARK    5  A    between atoms: C_7  and  C_8
REMARK    6  A    between atoms: C_8  and  N_9
REMARK    7  A    between atoms: C_14  and  C_15
REMARK                            x       y       z     vdW  Elec       q    Type
REMARK                         _______ _______ _______ _____ _____    ______ ____
ROOT
ATOM      1  N   UNL     1      45.547   5.446  11.956  0.00  0.00    +0.000 N 
ATOM      2  C   UNL     1      45.258   4.637  13.030  0.00  0.00    +0.000 A 
ATOM      3  C   UNL     1      46.243   4.814  13.973  0.00  0.00    +0.000 A 
ATOM      4  C   UNL     1      47.145   5.791  13.475  0.00  0.00    +0.000 A 
ATOM      5  C   UNL     1      48.331   6.362  13.988  0.00  0.00    +0.000 A 
ATOM      6  C   UNL     1      49.020   7.327  13.237  0.00  0.00    +0.000 A 
ATOM      7  C   UNL     1      48.510   7.729  11.996  0.00  0.00    +0.000 A 
ATOM      8  C   UNL     1      47.336   7.179  11.469  0.00  0.00    +0.000 A 
ATOM      9  C   UNL     1      46.676   6.197  12.222  0.00  0.00    +0.000 A 
ENDROOT
BRANCH   6  10
ATOM     10  C   UNL     1      50.297   7.948  13.695  0.00  0.00    +0.000 C 
ATOM     11  N   UNL     1      50.961   7.391  14.753  0.00  0.00    +0.000 N 
ATOM     12  O   UNL     1      50.764   8.936  13.140  0.00  0.00    +0.000 OA
ATOM     13  H   UNL     1      50.668   6.574  15.263  0.00  0.00    +0.000 HD
ATOM     14  H   UNL     1      51.833   7.829  15.021  0.00  0.00    +0.000 HD
ENDBRANCH   6  10
BRANCH   1  15
ATOM     15  C   UNL     1      44.771   5.474  10.717  0.00  0.00    +0.000 C 
BRANCH  15  18
ATOM     16  C   UNL     1      45.836   2.815   8.198  0.00  0.00    +0.000 A 
ATOM     17  C   UNL     1      45.774   4.012   8.916  0.00  0.00    +0.000 A 
ATOM     18  C   UNL     1      44.868   4.167   9.972  0.00  0.00    +0.000 A 
ATOM     19  C   UNL     1      44.068   3.075  10.307  0.00  0.00    +0.000 A 
ATOM     20  C   UNL     1      44.198   1.910   9.567  0.00  0.00    +0.000 A 
ATOM     21  N   UNL     1      45.054   1.762   8.530  0.00  0.00    +0.000 NA
BRANCH  16  23
ATOM     22  C   UNL     1      47.685   1.439   7.191  0.00  0.00    +0.000 C 
ATOM     23  C   UNL     1      46.788   2.678   7.003  0.00  0.00    +0.000 C 
ATOM     24  C   UNL     1      47.666   3.941   6.889  0.00  0.00    +0.000 C 
ATOM     25  C   UNL     1      46.027   2.516   5.671  0.00  0.00    +0.000 C 
ENDBRANCH  16  23
ENDBRANCH  15  18
ENDBRANCH   1  15
TORSDOF 4
ENDMDL
MODEL 5
REMARK VINA RESULT:    -5.698      4.490      8.472
REMARK INTER + INTRA:          -7.880
REMARK INTER:                  -6.936
REMARK INTRA:                  -0.943
REMARK UNBOUND:                -0.849
REMARK  Name = 
REMARK  7 active torsions:
REMARK  status: ('A' for Active; 'I' for Inactive)
REMARK    1  A    between atoms: C_1  and  C_2
REMARK    2  A    between atoms: C_2  and  C_3
REMARK    3  A    between atoms: C_2  and  C_4
REMARK    4  A    between atoms: C_2  and  C_5
REMARK    5  A    between atoms: C_7  and  C_8
REMARK    6  A    between atoms: C_8  and  N_9
REMARK    7  A    between atoms: C_14  and  C_15
REMARK                            x       y       z     vdW  Elec       q    Type
REMARK                         _______ _______ _______ _____ _____    ______ ____
ROOT
ATOM      1  N   UNL     1      48.946   7.278  14.339  0.00  0.00    +0.000 N 
ATOM      2  C   UNL     1      49.425   8.536  14.621  0.00  0.00    +0.000 A 
ATOM      3  C   UNL     1      49.429   8.694  15.987  0.00  0.00    +0.000 A 
ATOM      4  C   UNL     1      48.971   7.478  16.562  0.00  0.00    +0.000 A 
ATOM      5  C   UNL     1      48.758   7.059  17.894  0.00  0.00    +0.000 A 
ATOM      6  C   UNL     1      48.281   5.764  18.148  0.00  0.00    +0.000 A 
ATOM      7  C   UNL     1      48.044   4.893  17.076  0.00  0.00    +0.000 A 
ATOM      8  C   UNL     1      48.250   5.286  15.749  0.00  0.00    +0.000 A 
ATOM      9  C   UNL     1      48.701   6.593  15.513  0.00  0.00    +0.000 A 
ENDROOT
BRANCH   6  10
ATOM     10  C   UNL     1      47.997   5.262  19.524  0.00  0.00    +0.000 C 
ATOM     11  N   UNL     1      48.481   4.038  19.895  0.00  0.00    +0.000 N 
ATOM     12  O   UNL     1      47.350   5.926  20.327  0.00  0.00    +0.000 OA
ATOM     13  H   UNL     1      49.032   3.427  19.316  0.00  0.00    +0.000 HD
ATOM     14  H   UNL     1      48.284   3.742  20.842  0.00  0.00    +0.000 HD
ENDBRANCH   6  10
BRANCH   1  15
ATOM     15  C   UNL     1      48.718   6.771  12.987  0.00  0.00    +0.000 C 
BRANCH  15  18
ATOM     16  C   UNL     1      45.112   5.895  12.103  0.00  0.00    +0.000 A 
ATOM     17  C   UNL     1      46.441   5.779  12.517  0.00  0.00    +0.000 A 
ATOM     18  C   UNL     1      47.272   6.904  12.582  0.00  0.00    +0.000 A 
ATOM     19  C   UNL     1      46.714   8.141  12.262  0.00  0.00    +0.000 A 
ATOM     20  C   UNL     1      45.382   8.187  11.879  0.00  0.00    +0.000 A 
ATOM     21  N   UNL     1      44.581   7.100  11.792  0.00  0.00    +0.000 NA
BRANCH  16  23
ATOM     22  C   UNL     1      43.022   4.764  12.927  0.00  0.00    +0.000 C 
ATOM     23  C   UNL     1      44.229   4.647  11.976  0.00  0.00    +0.000 C 
ATOM     24  C   UNL     1      45.050   3.390  12.332  0.00  0.00    +0.000 C 
ATOM     25  C   UNL     1      43.688   4.462  10.543  0.00  0.00    +0.000 C 
ENDBRANCH  16  23
ENDBRANCH  15  18
ENDBRANCH   1  15
TORSDOF 4
ENDMDL
MODEL 6
REMARK VINA RESULT:    -5.694      2.911      5.223
REMARK INTER + INTRA:          -7.875
REMARK INTER:                  -7.312
REMARK INTRA:                  -0.562
REMARK UNBOUND:                -0.849
REMARK  Name = 
REMARK  7 active torsions:
REMARK  status: ('A' for Active; 'I' for Inactive)
REMARK    1  A    between atoms: C_1  and  C_2
REMARK    2  A    between atoms: C_2  and  C_3
REMARK    3  A    between atoms: C_2  and  C_4
REMARK    4  A    between atoms: C_2  and  C_5
REMARK    5  A    between atoms: C_7  and  C_8
REMARK    6  A    between atoms: C_8  and  N_9
REMARK    7  A    between atoms: C_14  and  C_15
REMARK                            x       y       z     vdW  Elec       q    Type
REMARK                         _______ _______ _______ _____ _____    ______ ____
ROOT
ATOM      1  N   UNL     1      47.396   6.984  12.892  0.00  0.00    +0.000 N 
ATOM      2  C   UNL     1      47.812   6.434  14.081  0.00  0.00    +0.000 A 
ATOM      3  C   UNL     1      47.224   5.197  14.206  0.00  0.00    +0.000 A 
ATOM      4  C   UNL     1      46.451   4.967  13.036  0.00  0.00    +0.000 A 
ATOM      5  C   UNL     1      45.633   3.897  12.613  0.00  0.00    +0.000 A 
ATOM      6  C   UNL     1      44.978   3.969  11.374  0.00  0.00    +0.000 A 
ATOM      7  C   UNL     1      45.164   5.093  10.560  0.00  0.00    +0.000 A 
ATOM      8  C   UNL     1      45.971   6.165  10.958  0.00  0.00    +0.000 A 
ATOM      9  C   UNL     1      46.596   6.087  12.211  0.00  0.00    +0.000 A 
ENDROOT
BRANCH   6  10
ATOM     10  C   UNL     1      44.070   2.895  10.876  0.00  0.00    +0.000 C 
ATOM     11  N   UNL     1      44.467   2.134   9.811  0.00  0.00    +0.000 N 
ATOM     12  O   UNL     1      42.985   2.677  11.404  0.00  0.00    +0.000 OA
ATOM     13  H   UNL     1      45.341   2.225   9.321  0.00  0.00    +0.000 HD
ATOM     14  H   UNL     1      43.832   1.404   9.515  0.00  0.00    +0.000 HD
ENDBRANCH   6  10
BRANCH   1  15
ATOM     15  C   UNL     1      47.746   8.332  12.444  0.00  0.00    +0.000 C 
BRANCH  15  18
ATOM     16  C   UNL     1      51.502   8.569  11.821  0.00  0.00    +0.000 A 
ATOM     17  C   UNL     1      50.138   8.343  11.625  0.00  0.00    +0.000 A 
ATOM     18  C   UNL     1      49.213   8.617  12.640  0.00  0.00    +0.000 A 
ATOM     19  C   UNL     1      49.698   9.162  13.829  0.00  0.00    +0.000 A 
ATOM     20  C   UNL     1      51.062   9.380  13.947  0.00  0.00    +0.000 A 
ATOM     21  N   UNL     1      51.962   9.096  12.979  0.00  0.00    +0.000 NA
BRANCH  16  23
ATOM     22  C   UNL     1      52.719   9.414   9.788  0.00  0.00    +0.000 C 
ATOM     23  C   UNL     1      52.511   8.207  10.723  0.00  0.00    +0.000 C 
ATOM     24  C   UNL     1      51.988   7.005   9.911  0.00  0.00    +0.000 C 
ATOM     25  C   UNL     1      53.886   7.816  11.306  0.00  0.00    +0.000 C 
ENDBRANCH  16  23
ENDBRANCH  15  18
ENDBRANCH   1  15
TORSDOF 4
ENDMDL
MODEL 7
REMARK VINA RESULT:    -5.564      3.701      6.294
REMARK INTER + INTRA:          -7.715
REMARK INTER:                  -6.878
REMARK INTRA:                  -0.837
REMARK UNBOUND:                -0.849
REMARK  Name = 
REMARK  7 active torsions:
REMARK  status: ('A' for Active; 'I' for Inactive)
REMARK    1  A    between atoms: C_1  and  C_2
REMARK    2  A    between atoms: C_2  and  C_3
REMARK    3  A    between atoms: C_2  and  C_4
REMARK    4  A    between atoms: C_2  and  C_5
REMARK    5  A    between atoms: C_7  and  C_8
REMARK    6  A    between atoms: C_8  and  N_9
REMARK    7  A    between atoms: C_14  and  C_15
REMARK                            x       y       z     vdW  Elec       q    Type
REMARK                         _______ _______ _______ _____ _____    ______ ____
ROOT
ATOM      1  N   UNL     1      47.871   7.184  14.031  0.00  0.00    +0.000 N 
ATOM      2  C   UNL     1      47.693   8.533  13.833  0.00  0.00    +0.000 A 
ATOM      3  C   UNL     1      46.581   8.703  13.043  0.00  0.00    +0.000 A 
ATOM      4  C   UNL     1      46.037   7.417  12.780  0.00  0.00    +0.000 A 
ATOM      5  C   UNL     1      44.925   6.972  12.033  0.00  0.00    +0.000 A 
ATOM      6  C   UNL     1      44.643   5.599  11.956  0.00  0.00    +0.000 A 
ATOM      7  C   UNL     1      45.456   4.688  12.642  0.00  0.00    +0.000 A 
ATOM      8  C   UNL     1      46.562   5.106  13.389  0.00  0.00    +0.000 A 
ATOM      9  C   UNL     1      46.844   6.479  13.433  0.00  0.00    +0.000 A 
ENDROOT
BRANCH   6  10
ATOM     10  C   UNL     1      43.508   5.051  11.157  0.00  0.00    +0.000 C 
ATOM     11  N   UNL     1      42.241   5.136  11.663  0.00  0.00    +0.000 N 
ATOM     12  O   UNL     1      43.687   4.536  10.059  0.00  0.00    +0.000 OA
ATOM     13  H   UNL     1      41.990   5.552  12.545  0.00  0.00    +0.000 HD
ATOM     14  H   UNL     1      41.496   4.771  11.084  0.00  0.00    +0.000 HD
ENDBRANCH   6  10
BRANCH   1  15
ATOM     15  C   UNL     1      49.001   6.603  14.755  0.00  0.00    +0.000 C 
BRANCH  15  18
ATOM     16  C   UNL     1      48.249   6.869  18.486  0.00  0.00    +0.000 A 
ATOM     17  C   UNL     1      48.559   7.214  17.168  0.00  0.00    +0.000 A 
ATOM     18  C   UNL     1      48.624   6.236  16.168  0.00  0.00    +0.000 A 
ATOM     19  C   UNL     1      48.327   4.921  16.526  0.00  0.00    +0.000 A 
ATOM     20  C   UNL     1      48.007   4.653  17.848  0.00  0.00    +0.000 A 
ATOM     21  N   UNL     1      47.965   5.590  18.823  0.00  0.00    +0.000 NA
BRANCH  16  23
ATOM     22  C   UNL     1      47.488   9.189  19.088  0.00  0.00    +0.000 C 
ATOM     23  C   UNL     1      48.242   7.940  19.584  0.00  0.00    +0.000 C 
ATOM     24  C   UNL     1      49.691   8.321  19.951  0.00  0.00    +0.000 C 
ATOM     25  C   UNL     1      47.548   7.447  20.871  0.00  0.00    +0.000 C 
ENDBRANCH  16  23
ENDBRANCH  15  18
ENDBRANCH   1  15
TORSDOF 4
ENDMDL
MODEL 8
REMARK VINA RESULT:    -5.545      5.935      8.729
REMARK INTER + INTRA:          -7.691
REMARK INTER:                  -6.814
REMARK INTRA:                  -0.877
REMARK UNBOUND:                -0.849
REMARK  Name = 
REMARK  7 active torsions:
REMARK  status: ('A' for Active; 'I' for Inactive)
REMARK    1  A    between atoms: C_1  and  C_2
REMARK    2  A    between atoms: C_2  and  C_3
REMARK    3  A    between atoms: C_2  and  C_4
REMARK    4  A    between atoms: C_2  and  C_5
REMARK    5  A    between atoms: C_7  and  C_8
REMARK    6  A    between atoms: C_8  and  N_9
REMARK    7  A    between atoms: C_14  and  C_15
REMARK                            x       y       z     vdW  Elec       q    Type
REMARK                         _______ _______ _______ _____ _____    ______ ____
ROOT
ATOM      1  N   UNL     1      49.611   4.791  17.865  0.00  0.00    +0.000 N 
ATOM      2  C   UNL     1      50.390   5.815  18.348  0.00  0.00    +0.000 A 
ATOM      3  C   UNL     1      51.657   5.323  18.560  0.00  0.00    +0.000 A 
ATOM      4  C   UNL     1      51.663   3.961  18.156  0.00  0.00    +0.000 A 
ATOM      5  C   UNL     1      52.657   2.959  18.151  0.00  0.00    +0.000 A 
ATOM      6  C   UNL     1      52.346   1.672  17.684  0.00  0.00    +0.000 A 
ATOM      7  C   UNL     1      51.057   1.404  17.207  0.00  0.00    +0.000 A 
ATOM      8  C   UNL     1      50.056   2.382  17.201  0.00  0.00    +0.000 A 
ATOM      9  C   UNL     1      50.378   3.654  17.696  0.00  0.00    +0.000 A 
ENDROOT
BRANCH   6  10
ATOM     10  C   UNL     1      53.333   0.552  17.682  0.00  0.00    +0.000 C 
ATOM     11  N   UNL     1      53.080  -0.555  18.443  0.00  0.00    +0.000 N 
ATOM     12  O   UNL     1      54.356   0.602  17.007  0.00  0.00    +0.000 OA
ATOM     13  H   UNL     1      52.265  -0.696  19.017  0.00  0.00    +0.000 HD
ATOM     14  H   UNL     1      53.763  -1.300  18.400  0.00  0.00    +0.000 HD
ENDBRANCH   6  10
BRANCH   1  15
ATOM     15  C   UNL     1      48.178   4.906  17.596  0.00  0.00    +0.000 C 
BRANCH  15  18
ATOM     16  C   UNL     1      48.033   6.294  14.046  0.00  0.00    +0.000 A 
ATOM     17  C   UNL     1      48.326   6.158  15.405  0.00  0.00    +0.000 A 
ATOM     18  C   UNL     1      47.900   5.031  16.119  0.00  0.00    +0.000 A 
ATOM     19  C   UNL     1      47.218   4.038  15.418  0.00  0.00    +0.000 A 
ATOM     20  C   UNL     1      46.980   4.229  14.065  0.00  0.00    +0.000 A 
ATOM     21  N   UNL     1      47.368   5.326  13.375  0.00  0.00    +0.000 NA
BRANCH  16  23
ATOM     22  C   UNL     1      49.957   7.817  13.491  0.00  0.00    +0.000 C 
ATOM     23  C   UNL     1      48.451   7.562  13.289  0.00  0.00    +0.000 C 
ATOM     24  C   UNL     1      47.645   8.769  13.809  0.00  0.00    +0.000 C 
ATOM     25  C   UNL     1      48.190   7.443  11.772  0.00  0.00    +0.000 C 
ENDBRANCH  16  23
ENDBRANCH  15  18
ENDBRANCH   1  15
TORSDOF 4
ENDMDL
MODEL 9
REMARK VINA RESULT:    -5.183      4.131      7.057
REMARK INTER + INTRA:          -7.244
REMARK INTER:                  -6.320
REMARK INTRA:                  -0.924
REMARK UNBOUND:                -0.849
REMARK  Name = 
REMARK  7 active torsions:
REMARK  status: ('A' for Active; 'I' for Inactive)
REMARK    1  A    between atoms: C_1  and  C_2
REMARK    2  A    between atoms: C_2  and  C_3
REMARK    3  A    between atoms: C_2  and  C_4
REMARK    4  A    between atoms: C_2  and  C_5
REMARK    5  A    between atoms: C_7  and  C_8
REMARK    6  A    between atoms: C_8  and  N_9
REMARK    7  A    between atoms: C_14  and  C_15
REMARK                            x       y       z     vdW  Elec       q    Type
REMARK                         _______ _______ _______ _____ _____    ______ ____
ROOT
ATOM      1  N   UNL     1      48.621   7.672  14.096  0.00  0.00    +0.000 N 
ATOM      2  C   UNL     1      48.424   8.975  13.706  0.00  0.00    +0.000 A 
ATOM      3  C   UNL     1      47.198   9.054  13.090  0.00  0.00    +0.000 A 
ATOM      4  C   UNL     1      46.607   7.763  13.137  0.00  0.00    +0.000 A 
ATOM      5  C   UNL     1      45.383   7.242  12.664  0.00  0.00    +0.000 A 
ATOM      6  C   UNL     1      45.080   5.886  12.864  0.00  0.00    +0.000 A 
ATOM      7  C   UNL     1      45.988   5.070  13.552  0.00  0.00    +0.000 A 
ATOM      8  C   UNL     1      47.206   5.566  14.031  0.00  0.00    +0.000 A 
ATOM      9  C   UNL     1      47.503   6.916  13.798  0.00  0.00    +0.000 A 
ENDROOT
BRANCH   6  10
ATOM     10  C   UNL     1      43.824   5.256  12.363  0.00  0.00    +0.000 C 
ATOM     11  N   UNL     1      42.676   5.398  13.091  0.00  0.00    +0.000 N 
ATOM     12  O   UNL     1      43.800   4.624  11.312  0.00  0.00    +0.000 OA
ATOM     13  H   UNL     1      42.591   5.908  13.955  0.00  0.00    +0.000 HD
ATOM     14  H   UNL     1      41.841   4.973  12.709  0.00  0.00    +0.000 HD
ENDBRANCH   6  10
BRANCH   1  15
ATOM     15  C   UNL     1      49.850   7.176  14.715  0.00  0.00    +0.000 C 
BRANCH  15  18
ATOM     16  C   UNL     1      49.067   6.742  18.423  0.00  0.00    +0.000 A 
ATOM     17  C   UNL     1      49.109   6.528  17.043  0.00  0.00    +0.000 A 
ATOM     18  C   UNL     1      49.840   7.382  16.208  0.00  0.00    +0.000 A 
ATOM     19  C   UNL     1      50.554   8.420  16.807  0.00  0.00    +0.000 A 
ATOM     20  C   UNL     1      50.484   8.561  18.184  0.00  0.00    +0.000 A 
ATOM     21  N   UNL     1      49.761   7.753  18.993  0.00  0.00    +0.000 NA
BRANCH  16  23
ATOM     22  C   UNL     1      49.068   4.669  19.847  0.00  0.00    +0.000 C 
ATOM     23  C   UNL     1      48.212   5.837  19.319  0.00  0.00    +0.000 C 
ATOM     24  C   UNL     1      47.019   5.282  18.515  0.00  0.00    +0.000 C 
ATOM     25  C   UNL     1      47.644   6.596  20.537  0.00  0.00    +0.000 C 
ENDBRANCH  16  23
ENDBRANCH  15  18
ENDBRANCH   1  15
TORSDOF 4
ENDMDL
