MODEL 1
REMARK VINA RESULT:    -7.542      0.000      0.000
REMARK INTER + INTRA:         -11.853
REMARK INTER:                 -10.629
REMARK INTRA:                  -1.224
REMARK UNBOUND:                -1.224
REMARK  Name = 
REMARK  7 active torsions:
REMARK  status: ('A' for Active; 'I' for Inactive)
REMARK    1  A    between atoms: C_2  and  C_3
REMARK    2  A    between atoms: C_8  and  C_9
REMARK    3  A    between atoms: N_11  and  C_12
REMARK    4  A    between atoms: C_12  and  C_13
REMARK    5  A    between atoms: C_16  and  C_17
REMARK    6  A    between atoms: C_17  and  N_18
REMARK    7  A    between atoms: C_19  and  C_21
REMARK                            x       y       z     vdW  Elec       q    Type
REMARK                         _______ _______ _______ _____ _____    ______ ____
ROOT
ATOM      1  C   UNL     1      50.102   7.069  15.697  0.00  0.00    +0.000 A 
ATOM      2  C   UNL     1      50.563   7.820  14.607  0.00  0.00    +0.000 A 
ATOM      3  C   UNL     1      49.785   7.957  13.452  0.00  0.00    +0.000 A 
ATOM      4  C   UNL     1      48.516   7.370  13.369  0.00  0.00    +0.000 A 
ATOM      5  C   UNL     1      48.057   6.615  14.458  0.00  0.00    +0.000 A 
ATOM      6  C   UNL     1      48.837   6.473  15.612  0.00  0.00    +0.000 A 
ENDROOT
BRANCH   1   7
ATOM      7  C   UNL     1      50.956   6.909  16.932  0.00  0.00    +0.000 C 
BRANCH   7  10
ATOM      8  C   UNL     1      51.119   4.664  17.937  0.00  0.00    +0.000 C 
ATOM      9  O   UNL     1      50.183   4.874  18.704  0.00  0.00    +0.000 OA
ATOM     10  N   UNL     1      51.555   5.592  17.018  0.00  0.00    +0.000 N 
ATOM     11  H   UNL     1      52.237   5.358  16.311  0.00  0.00    +0.000 HD
BRANCH   8  17
ATOM     12  C   UNL     1      51.294   2.155  17.397  0.00  0.00    +0.000 A 
ATOM     13  C   UNL     1      52.071   0.981  17.430  0.00  0.00    +0.000 A 
ATOM     14  C   UNL     1      53.324   0.970  18.042  0.00  0.00    +0.000 A 
ATOM     15  C   UNL     1      53.816   2.130  18.630  0.00  0.00    +0.000 A 
ATOM     16  C   UNL     1      53.058   3.303  18.593  0.00  0.00    +0.000 A 
ATOM     17  C   UNL     1      51.792   3.332  17.985  0.00  0.00    +0.000 A 
BRANCH  12  19
ATOM     18  N   UNL     1      49.011   2.083  16.177  0.00  0.00    +0.000 NA
ATOM     19  C   UNL     1      50.024   2.089  16.741  0.00  0.00    +0.000 C 
ENDBRANCH  12  19
ENDBRANCH   8  17
ENDBRANCH   7  10
ENDBRANCH   1   7
BRANCH   4  20
ATOM     20  C   UNL     1      47.673   7.522  12.128  0.00  0.00    +0.000 C 
BRANCH  20  21
ATOM     21  N   UNL     1      46.952   6.311  11.820  0.00  0.00    +0.000 N 
ATOM     22  C   UNL     1      45.580   6.272  11.843  0.00  0.00    +0.000 C 
ATOM     23  O   UNL     1      44.905   7.270  12.083  0.00  0.00    +0.000 OA
ATOM     24  H   UNL     1      47.478   5.444  11.842  0.00  0.00    +0.000 HD
BRANCH  22  25
ATOM     25  C   UNL     1      44.951   4.987  11.505  0.00  0.00    +0.000 A 
ATOM     26  C   UNL     1      44.215   4.306  12.466  0.00  0.00    +0.000 A 
ATOM     27  S   UNL     1      43.515   2.859  11.895  0.00  0.00    +0.000 S 
ATOM     28  C   UNL     1      44.214   3.064  10.357  0.00  0.00    +0.000 A 
ATOM     29  N   UNL     1      44.027   2.142   9.375  0.00  0.00    +0.000 NA
ATOM     30  C   UNL     1      44.637   2.408   8.269  0.00  0.00    +0.000 A 
ATOM     31  N   UNL     1      45.414   3.519   8.055  0.00  0.00    +0.000 N 
ATOM     32  C   UNL     1      45.607   4.488   9.007  0.00  0.00    +0.000 A 
ATOM     33  O   UNL     1      46.280   5.488   8.769  0.00  0.00    +0.000 OA
ATOM     34  C   UNL     1      44.954   4.232  10.275  0.00  0.00    +0.000 A 
ATOM     35  H   UNL     1      45.859   3.672   7.163  0.00  0.00    +0.000 HD
ENDBRANCH  22  25
ENDBRANCH  20  21
ENDBRANCH   4  20
TORSDOF 7
ENDMDL
MODEL 2
REMARK VINA RESULT:    -7.387      1.337      2.136
REMARK INTER + INTRA:         -11.634
REMARK INTER:                 -10.559
REMARK INTRA:                  -1.075
REMARK UNBOUND:                -1.224
REMARK  Name = 
REMARK  7 active torsions:
REMARK  status: ('A' for Active; 'I' for Inactive)
REMARK    1  A    between atoms: C_2  and  C_3
REMARK    2  A    between atoms: C_8  and  C_9
REMARK    3  A    between atoms: N_11  and  C_12
REMARK    4  A    between atoms: C_12  and  C_13
REMARK    5  A    between atoms: C_16  and  C_17
REMARK    6  A    between atoms: C_17  and  N_18
REMARK    7  A    between atoms: C_19  and  C_21
REMARK                            x       y       z     vdW  Elec       q    Type
REMARK                         _______ _______ _______ _____ _____    ______ ____
ROOT
ATOM      1  C   UNL     1      49.998   7.157  15.932  0.00  0.00    +0.000 A 
ATOM      2  C   UNL     1      48.686   6.806  15.586  0.00  0.00    +0.000 A 
ATOM      3  C   UNL     1      48.177   7.101  14.316  0.00  0.00    +0.000 A 
ATOM      4  C   UNL     1      48.977   7.729  13.353  0.00  0.00    +0.000 A 
ATOM      5  C   UNL     1      50.288   8.083  13.699  0.00  0.00    +0.000 A 
ATOM      6  C   UNL     1      50.796   7.795  14.972  0.00  0.00    +0.000 A 
ENDROOT
BRANCH   1   7
ATOM      7  C   UNL     1      50.533   6.855  17.310  0.00  0.00    +0.000 C 
BRANCH   7  10
ATOM      8  C   UNL     1      50.841   4.534  18.079  0.00  0.00    +0.000 C 
ATOM      9  O   UNL     1      49.783   4.537  18.703  0.00  0.00    +0.000 OA
ATOM     10  N   UNL     1      51.281   5.614  17.349  0.00  0.00    +0.000 N 
ATOM     11  H   UNL     1      52.085   5.551  16.741  0.00  0.00    +0.000 HD
BRANCH   8  17
ATOM     12  C   UNL     1      51.353   2.104  17.405  0.00  0.00    +0.000 A 
ATOM     13  C   UNL     1      52.265   1.032  17.418  0.00  0.00    +0.000 A 
ATOM     14  C   UNL     1      53.475   1.130  18.105  0.00  0.00    +0.000 A 
ATOM     15  C   UNL     1      53.787   2.299  18.790  0.00  0.00    +0.000 A 
ATOM     16  C   UNL     1      52.894   3.373  18.775  0.00  0.00    +0.000 A 
ATOM     17  C   UNL     1      51.669   3.291  18.091  0.00  0.00    +0.000 A 
BRANCH  12  19
ATOM     18  N   UNL     1      49.171   1.733  16.060  0.00  0.00    +0.000 NA
ATOM     19  C   UNL     1      50.139   1.931  16.668  0.00  0.00    +0.000 C 
ENDBRANCH  12  19
ENDBRANCH   8  17
ENDBRANCH   7  10
ENDBRANCH   1   7
BRANCH   4  20
ATOM     20  C   UNL     1      48.433   8.041  11.981  0.00  0.00    +0.000 C 
BRANCH  20  21
ATOM     21  N   UNL     1      47.696   6.929  11.432  0.00  0.00    +0.000 N 
ATOM     22  C   UNL     1      46.326   6.946  11.362  0.00  0.00    +0.000 C 
ATOM     23  O   UNL     1      45.669   7.920  11.719  0.00  0.00    +0.000 OA
ATOM     24  H   UNL     1      48.191   6.047  11.344  0.00  0.00    +0.000 HD
BRANCH  22  25
ATOM     25  C   UNL     1      45.680   5.762  10.777  0.00  0.00    +0.000 A 
ATOM     26  C   UNL     1      45.789   5.519   9.415  0.00  0.00    +0.000 A 
ATOM     27  S   UNL     1      45.023   4.080   8.911  0.00  0.00    +0.000 S 
ATOM     28  C   UNL     1      44.474   3.756  10.488  0.00  0.00    +0.000 A 
ATOM     29  N   UNL     1      43.716   2.658  10.753  0.00  0.00    +0.000 NA
ATOM     30  C   UNL     1      43.344   2.551  11.985  0.00  0.00    +0.000 A 
ATOM     31  N   UNL     1      43.668   3.441  12.977  0.00  0.00    +0.000 N 
ATOM     32  C   UNL     1      44.452   4.546  12.762  0.00  0.00    +0.000 A 
ATOM     33  O   UNL     1      44.754   5.302  13.682  0.00  0.00    +0.000 OA
ATOM     34  C   UNL     1      44.887   4.723  11.390  0.00  0.00    +0.000 A 
ATOM     35  H   UNL     1      43.351   3.295  13.924  0.00  0.00    +0.000 HD
ENDBRANCH  22  25
ENDBRANCH  20  21
ENDBRANCH   4  20
TORSDOF 7
ENDMDL
MODEL 3
REMARK VINA RESULT:    -7.005      2.135      2.601
REMARK INTER + INTRA:         -11.096
REMARK INTER:                 -10.139
REMARK INTRA:                  -0.957
REMARK UNBOUND:                -1.224
REMARK  Name = 
REMARK  7 active torsions:
REMARK  status: ('A' for Active; 'I' for Inactive)
REMARK    1  A    between atoms: C_2  and  C_3
REMARK    2  A    between atoms: C_8  and  C_9
REMARK    3  A    between atoms: N_11  and  C_12
REMARK    4  A    between atoms: C_12  and  C_13
REMARK    5  A    between atoms: C_16  and  C_17
REMARK    6  A    between atoms: C_17  and  N_18
REMARK    7  A    between atoms: C_19  and  C_21
REMARK                            x       y       z     vdW  Elec       q    Type
REMARK                         _______ _______ _______ _____ _____    ______ ____
ROOT
ATOM      1  C   UNL     1      49.292   5.910  18.026  0.00  0.00    +0.000 A 
ATOM      2  C   UNL     1      49.609   7.264  17.855  0.00  0.00    +0.000 A 
ATOM      3  C   UNL     1      49.276   7.933  16.672  0.00  0.00    +0.000 A 
ATOM      4  C   UNL     1      48.592   7.271  15.643  0.00  0.00    +0.000 A 
ATOM      5  C   UNL     1      48.278   5.916  15.813  0.00  0.00    +0.000 A 
ATOM      6  C   UNL     1      48.617   5.244  16.994  0.00  0.00    +0.000 A 
ENDROOT
BRANCH   1   7
ATOM      7  C   UNL     1      49.673   5.189  19.297  0.00  0.00    +0.000 C 
BRANCH   7  10
ATOM      8  C   UNL     1      51.779   4.037  18.738  0.00  0.00    +0.000 C 
ATOM      9  O   UNL     1      52.417   5.086  18.713  0.00  0.00    +0.000 OA
ATOM     10  N   UNL     1      50.437   3.985  19.037  0.00  0.00    +0.000 N 
ATOM     11  H   UNL     1      49.959   3.106  19.179  0.00  0.00    +0.000 HD
BRANCH   8  17
ATOM     12  C   UNL     1      52.047   1.745  17.601  0.00  0.00    +0.000 A 
ATOM     13  C   UNL     1      52.867   0.628  17.350  0.00  0.00    +0.000 A 
ATOM     14  C   UNL     1      54.123   0.514  17.947  0.00  0.00    +0.000 A 
ATOM     15  C   UNL     1      54.573   1.513  18.804  0.00  0.00    +0.000 A 
ATOM     16  C   UNL     1      53.772   2.630  19.051  0.00  0.00    +0.000 A 
ATOM     17  C   UNL     1      52.502   2.759  18.463  0.00  0.00    +0.000 A 
BRANCH  12  19
ATOM     18  N   UNL     1      49.775   1.861  16.363  0.00  0.00    +0.000 NA
ATOM     19  C   UNL     1      50.778   1.794  16.942  0.00  0.00    +0.000 C 
ENDBRANCH  12  19
ENDBRANCH   8  17
ENDBRANCH   7  10
ENDBRANCH   1   7
BRANCH   4  20
ATOM     20  C   UNL     1      48.225   7.992  14.370  0.00  0.00    +0.000 C 
BRANCH  20  21
ATOM     21  N   UNL     1      46.988   7.501  13.815  0.00  0.00    +0.000 N 
ATOM     22  C   UNL     1      46.974   6.692  12.707  0.00  0.00    +0.000 C 
ATOM     23  O   UNL     1      48.010   6.314  12.165  0.00  0.00    +0.000 OA
ATOM     24  H   UNL     1      46.135   7.973  14.101  0.00  0.00    +0.000 HD
BRANCH  22  25
ATOM     25  C   UNL     1      45.657   6.246  12.231  0.00  0.00    +0.000 A 
ATOM     26  C   UNL     1      44.774   7.165  11.681  0.00  0.00    +0.000 A 
ATOM     27  S   UNL     1      43.313   6.473  11.138  0.00  0.00    +0.000 S 
ATOM     28  C   UNL     1      43.786   4.926  11.666  0.00  0.00    +0.000 A 
ATOM     29  N   UNL     1      42.961   3.855  11.521  0.00  0.00    +0.000 NA
ATOM     30  C   UNL     1      43.434   2.749  11.991  0.00  0.00    +0.000 A 
ATOM     31  N   UNL     1      44.663   2.618  12.586  0.00  0.00    +0.000 N 
ATOM     32  C   UNL     1      45.539   3.664  12.729  0.00  0.00    +0.000 A 
ATOM     33  O   UNL     1      46.647   3.504  13.235  0.00  0.00    +0.000 OA
ATOM     34  C   UNL     1      45.051   4.935  12.230  0.00  0.00    +0.000 A 
ATOM     35  H   UNL     1      44.977   1.722  12.927  0.00  0.00    +0.000 HD
ENDBRANCH  22  25
ENDBRANCH  20  21
ENDBRANCH   4  20
TORSDOF 7
ENDMDL
MODEL 4
REMARK VINA RESULT:    -6.881      3.261      8.716
REMARK INTER + INTRA:         -10.921
REMARK INTER:                 -10.668
REMARK INTRA:                  -0.253
REMARK UNBOUND:                -1.224
REMARK  Name = 
REMARK  7 active torsions:
REMARK  status: ('A' for Active; 'I' for Inactive)
REMARK    1  A    between atoms: C_2  and  C_3
REMARK    2  A    between atoms: C_8  and  C_9
REMARK    3  A    between atoms: N_11  and  C_12
REMARK    4  A    between atoms: C_12  and  C_13
REMARK    5  A    between atoms: C_16  and  C_17
REMARK    6  A    between atoms: C_17  and  N_18
REMARK    7  A    between atoms: C_19  and  C_21
REMARK                            x       y       z     vdW  Elec       q    Type
REMARK                         _______ _______ _______ _____ _____    ______ ____
ROOT
ATOM      1  C   UNL     1      44.854   6.467  11.247  0.00  0.00    +0.000 A 
ATOM      2  C   UNL     1      45.825   5.749  11.960  0.00  0.00    +0.000 A 
ATOM      3  C   UNL     1      46.711   6.405  12.822  0.00  0.00    +0.000 A 
ATOM      4  C   UNL     1      46.629   7.791  13.014  0.00  0.00    +0.000 A 
ATOM      5  C   UNL     1      45.661   8.509  12.299  0.00  0.00    +0.000 A 
ATOM      6  C   UNL     1      44.778   7.854  11.431  0.00  0.00    +0.000 A 
ENDROOT
BRANCH   1   7
ATOM      7  C   UNL     1      43.916   5.755  10.303  0.00  0.00    +0.000 C 
BRANCH   7  10
ATOM      8  C   UNL     1      45.519   4.591   8.836  0.00  0.00    +0.000 C 
ATOM      9  O   UNL     1      46.022   5.644   8.451  0.00  0.00    +0.000 OA
ATOM     10  N   UNL     1      44.499   4.544   9.759  0.00  0.00    +0.000 N 
ATOM     11  H   UNL     1      44.186   3.672  10.159  0.00  0.00    +0.000 HD
BRANCH   8  17
ATOM     12  C   UNL     1      45.572   2.028   8.624  0.00  0.00    +0.000 A 
ATOM     13  C   UNL     1      46.107   0.897   7.978  0.00  0.00    +0.000 A 
ATOM     14  C   UNL     1      47.119   1.029   7.027  0.00  0.00    +0.000 A 
ATOM     15  C   UNL     1      47.609   2.292   6.710  0.00  0.00    +0.000 A 
ATOM     16  C   UNL     1      47.077   3.421   7.337  0.00  0.00    +0.000 A 
ATOM     17  C   UNL     1      46.062   3.307   8.301  0.00  0.00    +0.000 A 
BRANCH  12  19
ATOM     18  N   UNL     1      43.679   1.695  10.359  0.00  0.00    +0.000 NA
ATOM     19  C   UNL     1      44.530   1.812   9.580  0.00  0.00    +0.000 C 
ENDBRANCH  12  19
ENDBRANCH   8  17
ENDBRANCH   7  10
ENDBRANCH   1   7
BRANCH   4  20
ATOM     20  C   UNL     1      47.578   8.499  13.948  0.00  0.00    +0.000 C 
BRANCH  20  21
ATOM     21  N   UNL     1      47.901   7.690  15.097  0.00  0.00    +0.000 N 
ATOM     22  C   UNL     1      49.091   7.010  15.179  0.00  0.00    +0.000 C 
ATOM     23  O   UNL     1      49.949   7.095  14.305  0.00  0.00    +0.000 OA
ATOM     24  H   UNL     1      47.134   7.431  15.709  0.00  0.00    +0.000 HD
BRANCH  22  25
ATOM     25  C   UNL     1      49.318   6.222  16.399  0.00  0.00    +0.000 A 
ATOM     26  C   UNL     1      50.341   6.575  17.269  0.00  0.00    +0.000 A 
ATOM     27  S   UNL     1      50.435   5.586  18.655  0.00  0.00    +0.000 S 
ATOM     28  C   UNL     1      49.145   4.617  18.117  0.00  0.00    +0.000 A 
ATOM     29  N   UNL     1      48.722   3.548  18.845  0.00  0.00    +0.000 NA
ATOM     30  C   UNL     1      47.755   2.883  18.307  0.00  0.00    +0.000 A 
ATOM     31  N   UNL     1      47.167   3.197  17.107  0.00  0.00    +0.000 N 
ATOM     32  C   UNL     1      47.542   4.280  16.354  0.00  0.00    +0.000 A 
ATOM     33  O   UNL     1      46.969   4.553  15.301  0.00  0.00    +0.000 OA
ATOM     34  C   UNL     1      48.636   5.055  16.906  0.00  0.00    +0.000 A 
ATOM     35  H   UNL     1      46.409   2.640  16.744  0.00  0.00    +0.000 HD
ENDBRANCH  22  25
ENDBRANCH  20  21
ENDBRANCH   4  20
TORSDOF 7
ENDMDL
MODEL 5
REMARK VINA RESULT:    -6.835      2.626      9.059
REMARK INTER + INTRA:         -10.856
REMARK INTER:                  -9.758
REMARK INTRA:                  -1.099
REMARK UNBOUND:                -1.224
REMARK  Name = 
REMARK  7 active torsions:
REMARK  status: ('A' for Active; 'I' for Inactive)
REMARK    1  A    between atoms: C_2  and  C_3
REMARK    2  A    between atoms: C_8  and  C_9
REMARK    3  A    between atoms: N_11  and  C_12
REMARK    4  A    between atoms: C_12  and  C_13
REMARK    5  A    between atoms: C_16  and  C_17
REMARK    6  A    between atoms: C_17  and  N_18
REMARK    7  A    between atoms: C_19  and  C_21
REMARK                            x       y       z     vdW  Elec       q    Type
REMARK                         _______ _______ _______ _____ _____    ______ ____
ROOT
ATOM      1  C   UNL     1      48.461   7.755  13.149  0.00  0.00    +0.000 A 
ATOM      2  C   UNL     1      48.320   6.753  14.119  0.00  0.00    +0.000 A 
ATOM      3  C   UNL     1      48.957   6.863  15.360  0.00  0.00    +0.000 A 
ATOM      4  C   UNL     1      49.728   7.990  15.672  0.00  0.00    +0.000 A 
ATOM      5  C   UNL     1      49.873   8.990  14.700  0.00  0.00    +0.000 A 
ATOM      6  C   UNL     1      49.241   8.878  13.456  0.00  0.00    +0.000 A 
ENDROOT
BRANCH   1   7
ATOM      7  C   UNL     1      47.788   7.619  11.805  0.00  0.00    +0.000 C 
BRANCH   7  10
ATOM      8  C   UNL     1      45.605   6.511  11.521  0.00  0.00    +0.000 C 
ATOM      9  O   UNL     1      45.017   7.577  11.363  0.00  0.00    +0.000 OA
ATOM     10  N   UNL     1      46.965   6.429  11.720  0.00  0.00    +0.000 N 
ATOM     11  H   UNL     1      47.449   5.543  11.720  0.00  0.00    +0.000 HD
BRANCH   8  17
ATOM     12  C   UNL     1      44.762   4.376  10.358  0.00  0.00    +0.000 A 
ATOM     13  C   UNL     1      44.053   3.164  10.461  0.00  0.00    +0.000 A 
ATOM     14  C   UNL     1      43.398   2.818  11.643  0.00  0.00    +0.000 A 
ATOM     15  C   UNL     1      43.441   3.679  12.734  0.00  0.00    +0.000 A 
ATOM     16  C   UNL     1      44.150   4.878  12.645  0.00  0.00    +0.000 A 
ATOM     17  C   UNL     1      44.813   5.246  11.462  0.00  0.00    +0.000 A 
BRANCH  12  19
ATOM     18  N   UNL     1      45.986   4.836   8.122  0.00  0.00    +0.000 NA
ATOM     19  C   UNL     1      45.417   4.655   9.116  0.00  0.00    +0.000 C 
ENDBRANCH  12  19
ENDBRANCH   8  17
ENDBRANCH   7  10
ENDBRANCH   1   7
BRANCH   4  20
ATOM     20  C   UNL     1      50.410   8.114  17.011  0.00  0.00    +0.000 C 
BRANCH  20  21
ATOM     21  N   UNL     1      51.234   6.967  17.301  0.00  0.00    +0.000 N 
ATOM     22  C   UNL     1      50.876   6.055  18.262  0.00  0.00    +0.000 C 
ATOM     23  O   UNL     1      49.821   6.148  18.886  0.00  0.00    +0.000 OA
ATOM     24  H   UNL     1      52.192   6.992  16.968  0.00  0.00    +0.000 HD
BRANCH  22  25
ATOM     25  C   UNL     1      51.787   4.921  18.469  0.00  0.00    +0.000 A 
ATOM     26  C   UNL     1      52.990   5.115  19.135  0.00  0.00    +0.000 A 
ATOM     27  S   UNL     1      53.904   3.688  19.330  0.00  0.00    +0.000 S 
ATOM     28  C   UNL     1      52.750   2.768  18.485  0.00  0.00    +0.000 A 
ATOM     29  N   UNL     1      52.937   1.438  18.269  0.00  0.00    +0.000 NA
ATOM     30  C   UNL     1      51.998   0.870  17.589  0.00  0.00    +0.000 A 
ATOM     31  N   UNL     1      50.883   1.512  17.113  0.00  0.00    +0.000 N 
ATOM     32  C   UNL     1      50.639   2.845  17.331  0.00  0.00    +0.000 A 
ATOM     33  O   UNL     1      49.612   3.380  16.920  0.00  0.00    +0.000 OA
ATOM     34  C   UNL     1      51.672   3.536  18.078  0.00  0.00    +0.000 A 
ATOM     35  H   UNL     1      50.181   1.008  16.594  0.00  0.00    +0.000 HD
ENDBRANCH  22  25
ENDBRANCH  20  21
ENDBRANCH   4  20
TORSDOF 7
ENDMDL
MODEL 6
REMARK VINA RESULT:    -6.509      4.808      5.996
REMARK INTER + INTRA:         -10.396
REMARK INTER:                  -9.369
REMARK INTRA:                  -1.028
REMARK UNBOUND:                -1.224
REMARK  Name = 
REMARK  7 active torsions:
REMARK  status: ('A' for Active; 'I' for Inactive)
REMARK    1  A    between atoms: C_2  and  C_3
REMARK    2  A    between atoms: C_8  and  C_9
REMARK    3  A    between atoms: N_11  and  C_12
REMARK    4  A    between atoms: C_12  and  C_13
REMARK    5  A    between atoms: C_16  and  C_17
REMARK    6  A    between atoms: C_17  and  N_18
REMARK    7  A    between atoms: C_19  and  C_21
REMARK                            x       y       z     vdW  Elec       q    Type
REMARK                         _______ _______ _______ _____ _____    ______ ____
ROOT
ATOM      1  C   UNL     1      50.900   8.357  12.158  0.00  0.00    +0.000 A 
ATOM      2  C   UNL     1      50.015   7.776  11.239  0.00  0.00    +0.000 A 
ATOM      3  C   UNL     1      48.656   7.637  11.544  0.00  0.00    +0.000 A 
ATOM      4  C   UNL     1      48.145   8.100  12.763  0.00  0.00    +0.000 A 
ATOM      5  C   UNL     1      49.030   8.678  13.683  0.00  0.00    +0.000 A 
ATOM      6  C   UNL     1      50.391   8.812  13.382  0.00  0.00    +0.000 A 
ENDROOT
BRANCH   1   7
ATOM      7  C   UNL     1      52.368   8.485  11.831  0.00  0.00    +0.000 C 
BRANCH   7  10
ATOM      8  C   UNL     1      53.868   7.441  10.178  0.00  0.00    +0.000 C 
ATOM      9  O   UNL     1      54.406   8.510   9.902  0.00  0.00    +0.000 OA
ATOM     10  N   UNL     1      52.876   7.326  11.125  0.00  0.00    +0.000 N 
ATOM     11  H   UNL     1      52.536   6.425  11.430  0.00  0.00    +0.000 HD
BRANCH   8  17
ATOM     12  C   UNL     1      54.040   5.884   8.137  0.00  0.00    +0.000 A 
ATOM     13  C   UNL     1      54.619   4.738   7.558  0.00  0.00    +0.000 A 
ATOM     14  C   UNL     1      55.475   3.920   8.295  0.00  0.00    +0.000 A 
ATOM     15  C   UNL     1      55.762   4.235   9.618  0.00  0.00    +0.000 A 
ATOM     16  C   UNL     1      55.202   5.375  10.199  0.00  0.00    +0.000 A 
ATOM     17  C   UNL     1      54.333   6.209   9.474  0.00  0.00    +0.000 A 
BRANCH  12  19
ATOM     18  N   UNL     1      52.470   7.272   6.615  0.00  0.00    +0.000 NA
ATOM     19  C   UNL     1      53.181   6.678   7.313  0.00  0.00    +0.000 C 
ENDBRANCH  12  19
ENDBRANCH   8  17
ENDBRANCH   7  10
ENDBRANCH   1   7
BRANCH   4  20
ATOM     20  C   UNL     1      46.679   7.958  13.090  0.00  0.00    +0.000 C 
BRANCH  20  21
ATOM     21  N   UNL     1      46.169   6.663  12.709  0.00  0.00    +0.000 N 
ATOM     22  C   UNL     1      45.082   6.541  11.880  0.00  0.00    +0.000 C 
ATOM     23  O   UNL     1      44.524   7.519  11.390  0.00  0.00    +0.000 OA
ATOM     24  H   UNL     1      46.464   5.869  13.268  0.00  0.00    +0.000 HD
BRANCH  22  25
ATOM     25  C   UNL     1      44.653   5.173  11.553  0.00  0.00    +0.000 A 
ATOM     26  C   UNL     1      43.909   4.446  12.472  0.00  0.00    +0.000 A 
ATOM     27  S   UNL     1      43.454   2.899  11.916  0.00  0.00    +0.000 S 
ATOM     28  C   UNL     1      44.279   3.125  10.446  0.00  0.00    +0.000 A 
ATOM     29  N   UNL     1      44.309   2.146   9.502  0.00  0.00    +0.000 NA
ATOM     30  C   UNL     1      44.995   2.440   8.448  0.00  0.00    +0.000 A 
ATOM     31  N   UNL     1      45.648   3.630   8.251  0.00  0.00    +0.000 N 
ATOM     32  C   UNL     1      45.622   4.656   9.162  0.00  0.00    +0.000 A 
ATOM     33  O   UNL     1      46.189   5.723   8.937  0.00  0.00    +0.000 OA
ATOM     34  C   UNL     1      44.876   4.373  10.373  0.00  0.00    +0.000 A 
ATOM     35  H   UNL     1      46.162   3.801   7.400  0.00  0.00    +0.000 HD
ENDBRANCH  22  25
ENDBRANCH  20  21
ENDBRANCH   4  20
TORSDOF 7
ENDMDL
MODEL 7
REMARK VINA RESULT:    -6.378      5.106      7.616
REMARK INTER + INTRA:         -10.212
REMARK INTER:                  -9.228
REMARK INTRA:                  -0.984
REMARK UNBOUND:                -1.224
REMARK  Name = 
REMARK  7 active torsions:
REMARK  status: ('A' for Active; 'I' for Inactive)
REMARK    1  A    between atoms: C_2  and  C_3
REMARK    2  A    between atoms: C_8  and  C_9
REMARK    3  A    between atoms: N_11  and  C_12
REMARK    4  A    between atoms: C_12  and  C_13
REMARK    5  A    between atoms: C_16  and  C_17
REMARK    6  A    between atoms: C_17  and  N_18
REMARK    7  A    between atoms: C_19  and  C_21
REMARK                            x       y       z     vdW  Elec       q    Type
REMARK                         _______ _______ _______ _____ _____    ______ ____
ROOT
ATOM      1  C   UNL     1      50.592   8.874  11.473  0.00  0.00    +0.000 A 
ATOM      2  C   UNL     1      50.132   7.591  11.798  0.00  0.00    +0.000 A 
ATOM      3  C   UNL     1      48.795   7.377  12.150  0.00  0.00    +0.000 A 
ATOM      4  C   UNL     1      47.878   8.437  12.160  0.00  0.00    +0.000 A 
ATOM      5  C   UNL     1      48.339   9.721  11.839  0.00  0.00    +0.000 A 
ATOM      6  C   UNL     1      49.678   9.938  11.492  0.00  0.00    +0.000 A 
ENDROOT
BRANCH   1   7
ATOM      7  C   UNL     1      52.040   9.101  11.114  0.00  0.00    +0.000 C 
BRANCH   7  10
ATOM      8  C   UNL     1      53.383   9.001   9.050  0.00  0.00    +0.000 C 
ATOM      9  O   UNL     1      54.308   8.419   9.609  0.00  0.00    +0.000 OA
ATOM     10  N   UNL     1      52.222   9.355   9.699  0.00  0.00    +0.000 N 
ATOM     11  H   UNL     1      51.423   9.715   9.197  0.00  0.00    +0.000 HD
BRANCH   8  17
ATOM     12  C   UNL     1      53.182   8.425   6.550  0.00  0.00    +0.000 A 
ATOM     13  C   UNL     1      53.258   8.869   5.216  0.00  0.00    +0.000 A 
ATOM     14  C   UNL     1      53.661  10.170   4.917  0.00  0.00    +0.000 A 
ATOM     15  C   UNL     1      53.993  11.044   5.947  0.00  0.00    +0.000 A 
ATOM     16  C   UNL     1      53.911  10.617   7.274  0.00  0.00    +0.000 A 
ATOM     17  C   UNL     1      53.512   9.309   7.594  0.00  0.00    +0.000 A 
BRANCH  12  19
ATOM     18  N   UNL     1      52.433   5.972   6.911  0.00  0.00    +0.000 NA
ATOM     19  C   UNL     1      52.751   7.080   6.776  0.00  0.00    +0.000 C 
ENDBRANCH  12  19
ENDBRANCH   8  17
ENDBRANCH   7  10
ENDBRANCH   1   7
BRANCH   4  20
ATOM     20  C   UNL     1      46.435   8.208  12.532  0.00  0.00    +0.000 C 
BRANCH  20  21
ATOM     21  N   UNL     1      46.015   6.859  12.241  0.00  0.00    +0.000 N 
ATOM     22  C   UNL     1      44.823   6.603  11.612  0.00  0.00    +0.000 C 
ATOM     23  O   UNL     1      44.083   7.505  11.228  0.00  0.00    +0.000 OA
ATOM     24  H   UNL     1      46.489   6.112  12.739  0.00  0.00    +0.000 HD
BRANCH  22  25
ATOM     25  C   UNL     1      44.499   5.191  11.360  0.00  0.00    +0.000 A 
ATOM     26  C   UNL     1      43.761   4.476  12.293  0.00  0.00    +0.000 A 
ATOM     27  S   UNL     1      43.434   2.869  11.824  0.00  0.00    +0.000 S 
ATOM     28  C   UNL     1      44.313   3.055  10.379  0.00  0.00    +0.000 A 
ATOM     29  N   UNL     1      44.451   2.021   9.506  0.00  0.00    +0.000 NA
ATOM     30  C   UNL     1      45.166   2.292   8.466  0.00  0.00    +0.000 A 
ATOM     31  N   UNL     1      45.750   3.508   8.217  0.00  0.00    +0.000 N 
ATOM     32  C   UNL     1      45.613   4.587   9.054  0.00  0.00    +0.000 A 
ATOM     33  O   UNL     1      46.120   5.673   8.782  0.00  0.00    +0.000 OA
ATOM     34  C   UNL     1      44.830   4.333  10.248  0.00  0.00    +0.000 A 
ATOM     35  H   UNL     1      46.291   3.658   7.379  0.00  0.00    +0.000 HD
ENDBRANCH  22  25
ENDBRANCH  20  21
ENDBRANCH   4  20
TORSDOF 7
ENDMDL
MODEL 8
REMARK VINA RESULT:    -6.089      3.627      9.102
REMARK INTER + INTRA:          -9.806
REMARK INTER:                  -8.935
REMARK INTRA:                  -0.871
REMARK UNBOUND:                -1.224
REMARK  Name = 
REMARK  7 active torsions:
REMARK  status: ('A' for Active; 'I' for Inactive)
REMARK    1  A    between atoms: C_2  and  C_3
REMARK    2  A    between atoms: C_8  and  C_9
REMARK    3  A    between atoms: N_11  and  C_12
REMARK    4  A    between atoms: C_12  and  C_13
REMARK    5  A    between atoms: C_16  and  C_17
REMARK    6  A    between atoms: C_17  and  N_18
REMARK    7  A    between atoms: C_19  and  C_21
REMARK                            x       y       z     vdW  Elec       q    Type
REMARK                         _______ _______ _______ _____ _____    ______ ____
ROOT
ATOM      1  C   UNL     1      44.570   4.669  12.072  0.00  0.00    +0.000 A 
ATOM      2  C   UNL     1      45.553   4.949  13.031  0.00  0.00    +0.000 A 
ATOM      3  C   UNL     1      45.953   6.266  13.283  0.00  0.00    +0.000 A 
ATOM      4  C   UNL     1      45.360   7.337  12.602  0.00  0.00    +0.000 A 
ATOM      5  C   UNL     1      44.380   7.057  11.640  0.00  0.00    +0.000 A 
ATOM      6  C   UNL     1      43.983   5.739  11.383  0.00  0.00    +0.000 A 
ENDROOT
BRANCH   1   7
ATOM      7  C   UNL     1      44.159   3.244  11.791  0.00  0.00    +0.000 C 
BRANCH   7  10
ATOM      8  C   UNL     1      44.761   2.744   9.454  0.00  0.00    +0.000 C 
ATOM      9  O   UNL     1      43.842   3.426   9.008  0.00  0.00    +0.000 OA
ATOM     10  N   UNL     1      45.009   2.613  10.802  0.00  0.00    +0.000 N 
ATOM     11  H   UNL     1      45.841   2.155  11.145  0.00  0.00    +0.000 HD
BRANCH   8  17
ATOM     12  C   UNL     1      46.644   2.686   7.703  0.00  0.00    +0.000 A 
ATOM     13  C   UNL     1      47.500   1.908   6.899  0.00  0.00    +0.000 A 
ATOM     14  C   UNL     1      47.386   0.519   6.870  0.00  0.00    +0.000 A 
ATOM     15  C   UNL     1      46.415  -0.111   7.641  0.00  0.00    +0.000 A 
ATOM     16  C   UNL     1      45.568   0.650   8.449  0.00  0.00    +0.000 A 
ATOM     17  C   UNL     1      45.665   2.051   8.488  0.00  0.00    +0.000 A 
BRANCH  12  19
ATOM     18  N   UNL     1      47.006   5.250   7.728  0.00  0.00    +0.000 NA
ATOM     19  C   UNL     1      46.831   4.104   7.687  0.00  0.00    +0.000 C 
ENDBRANCH  12  19
ENDBRANCH   8  17
ENDBRANCH   7  10
ENDBRANCH   1   7
BRANCH   4  20
ATOM     20  C   UNL     1      45.784   8.759  12.877  0.00  0.00    +0.000 C 
BRANCH  20  21
ATOM     21  N   UNL     1      46.595   8.855  14.066  0.00  0.00    +0.000 N 
ATOM     22  C   UNL     1      47.965   8.880  13.994  0.00  0.00    +0.000 C 
ATOM     23  O   UNL     1      48.561   8.868  12.920  0.00  0.00    +0.000 OA
ATOM     24  H   UNL     1      46.144   8.642  14.949  0.00  0.00    +0.000 HD
BRANCH  22  25
ATOM     25  C   UNL     1      48.690   8.986  15.269  0.00  0.00    +0.000 A 
ATOM     26  C   UNL     1      49.001  10.238  15.783  0.00  0.00    +0.000 A 
ATOM     27  S   UNL     1      49.800  10.182  17.289  0.00  0.00    +0.000 S 
ATOM     28  C   UNL     1      49.806   8.481  17.284  0.00  0.00    +0.000 A 
ATOM     29  N   UNL     1      50.375   7.781  18.301  0.00  0.00    +0.000 NA
ATOM     30  C   UNL     1      50.334   6.498  18.155  0.00  0.00    +0.000 A 
ATOM     31  N   UNL     1      49.767   5.853  17.085  0.00  0.00    +0.000 N 
ATOM     32  C   UNL     1      49.158   6.518  16.051  0.00  0.00    +0.000 A 
ATOM     33  O   UNL     1      48.628   5.907  15.126  0.00  0.00    +0.000 OA
ATOM     34  C   UNL     1      49.187   7.964  16.158  0.00  0.00    +0.000 A 
ATOM     35  H   UNL     1      49.762   4.846  17.035  0.00  0.00    +0.000 HD
ENDBRANCH  22  25
ENDBRANCH  20  21
ENDBRANCH   4  20
TORSDOF 7
ENDMDL
MODEL 9
REMARK VINA RESULT:    -5.653      3.306      9.185
REMARK INTER + INTRA:          -9.191
REMARK INTER:                  -8.149
REMARK INTRA:                  -1.041
REMARK UNBOUND:                -1.224
REMARK  Name = 
REMARK  7 active torsions:
REMARK  status: ('A' for Active; 'I' for Inactive)
REMARK    1  A    between atoms: C_2  and  C_3
REMARK    2  A    between atoms: C_8  and  C_9
REMARK    3  A    between atoms: N_11  and  C_12
REMARK    4  A    between atoms: C_12  and  C_13
REMARK    5  A    between atoms: C_16  and  C_17
REMARK    6  A    between atoms: C_17  and  N_18
REMARK    7  A    between atoms: C_19  and  C_21
REMARK                            x       y       z     vdW  Elec       q    Type
REMARK                         _______ _______ _______ _____ _____    ______ ____
ROOT
ATOM      1  C   UNL     1      48.570   8.134  12.455  0.00  0.00    +0.000 A 
ATOM      2  C   UNL     1      48.404   8.112  13.846  0.00  0.00    +0.000 A 
ATOM      3  C   UNL     1      49.512   8.120  14.700  0.00  0.00    +0.000 A 
ATOM      4  C   UNL     1      50.813   8.177  14.184  0.00  0.00    +0.000 A 
ATOM      5  C   UNL     1      50.980   8.194  12.792  0.00  0.00    +0.000 A 
ATOM      6  C   UNL     1      49.871   8.181  11.936  0.00  0.00    +0.000 A 
ENDROOT
BRANCH   1   7
ATOM      7  C   UNL     1      47.370   8.104  11.540  0.00  0.00    +0.000 C 
BRANCH   7  10
ATOM      8  C   UNL     1      45.308   6.755  11.478  0.00  0.00    +0.000 C 
ATOM      9  O   UNL     1      44.597   7.742  11.304  0.00  0.00    +0.000 OA
ATOM     10  N   UNL     1      46.678   6.831  11.582  0.00  0.00    +0.000 N 
ATOM     11  H   UNL     1      47.255   6.002  11.596  0.00  0.00    +0.000 HD
BRANCH   8  17
ATOM     12  C   UNL     1      44.710   4.437  10.536  0.00  0.00    +0.000 A 
ATOM     13  C   UNL     1      44.135   3.172  10.762  0.00  0.00    +0.000 A 
ATOM     14  C   UNL     1      43.510   2.877  11.973  0.00  0.00    +0.000 A 
ATOM     15  C   UNL     1      43.450   3.841  12.973  0.00  0.00    +0.000 A 
ATOM     16  C   UNL     1      44.027   5.096  12.763  0.00  0.00    +0.000 A 
ATOM     17  C   UNL     1      44.657   5.413  11.548  0.00  0.00    +0.000 A 
BRANCH  12  19
ATOM     18  N   UNL     1      45.902   4.811   8.267  0.00  0.00    +0.000 NA
ATOM     19  C   UNL     1      45.342   4.660   9.272  0.00  0.00    +0.000 C 
ENDBRANCH  12  19
ENDBRANCH   8  17
ENDBRANCH   7  10
ENDBRANCH   1   7
BRANCH   4  20
ATOM     20  C   UNL     1      52.010   8.192  15.102  0.00  0.00    +0.000 C 
BRANCH  20  21
ATOM     21  N   UNL     1      51.671   7.747  16.431  0.00  0.00    +0.000 N 
ATOM     22  C   UNL     1      52.224   6.611  16.966  0.00  0.00    +0.000 C 
ATOM     23  O   UNL     1      53.063   5.949  16.360  0.00  0.00    +0.000 OA
ATOM     24  H   UNL     1      50.833   8.140  16.848  0.00  0.00    +0.000 HD
BRANCH  22  25
ATOM     25  C   UNL     1      51.811   6.255  18.331  0.00  0.00    +0.000 A 
ATOM     26  C   UNL     1      52.607   6.617  19.409  0.00  0.00    +0.000 A 
ATOM     27  S   UNL     1      51.959   6.170  20.922  0.00  0.00    +0.000 S 
ATOM     28  C   UNL     1      50.614   5.430  20.188  0.00  0.00    +0.000 A 
ATOM     29  N   UNL     1      49.659   4.816  20.936  0.00  0.00    +0.000 NA
ATOM     30  C   UNL     1      48.711   4.271  20.249  0.00  0.00    +0.000 A 
ATOM     31  N   UNL     1      48.629   4.293  18.880  0.00  0.00    +0.000 N 
ATOM     32  C   UNL     1      49.554   4.924  18.087  0.00  0.00    +0.000 A 
ATOM     33  O   UNL     1      49.431   4.955  16.865  0.00  0.00    +0.000 OA
ATOM     34  C   UNL     1      50.650   5.542  18.808  0.00  0.00    +0.000 A 
ATOM     35  H   UNL     1      47.856   3.854  18.403  0.00  0.00    +0.000 HD
ENDBRANCH  22  25
ENDBRANCH  20  21
ENDBRANCH   4  20
TORSDOF 7
ENDMDL
