MODEL 1
REMARK VINA RESULT:    -9.064      0.000      0.000
REMARK INTER + INTRA:         -14.205
REMARK INTER:                 -13.039
REMARK INTRA:                  -1.166
REMARK UNBOUND:                -1.166
REMARK  Name = 
REMARK  8 active torsions:
REMARK  status: ('A' for Active; 'I' for Inactive)
REMARK    1  A    between atoms: C_2  and  C_5
REMARK    2  A    between atoms: N_3  and  O_4
REMARK    3  A    between atoms: C_8  and  N_9
REMARK    4  A    between atoms: N_9  and  C_10
REMARK    5  A    between atoms: C_10  and  C_11
REMARK    6  A    between atoms: C_11  and  C_14
REMARK    7  A    between atoms: C_19  and  O_20
REMARK    8  A    between atoms: O_20  and  C_21
REMARK                            x       y       z     vdW  Elec       q    Type
REMARK                         _______ _______ _______ _____ _____    ______ ____
ROOT
ATOM      1  C   UNL     1      43.989   5.844  11.114  0.00  0.00    +0.000 C 
ENDROOT
BRANCH   1   2
ATOM      2  C   UNL     1      44.455   5.345  12.507  0.00  0.00    +0.000 C 
ATOM      3  F   UNL     1      43.579   5.849  13.432  0.00  0.00    +0.000 F 
ATOM      4  F   UNL     1      44.270   3.989  12.551  0.00  0.00    +0.000 F 
BRANCH   2   5
ATOM      5  C   UNL     1      45.883   5.740  12.822  0.00  0.00    +0.000 A 
ATOM      6  C   UNL     1      46.592   6.583  11.958  0.00  0.00    +0.000 A 
ATOM      7  C   UNL     1      47.891   6.967  12.276  0.00  0.00    +0.000 A 
ATOM      8  F   UNL     1      48.556   7.774  11.440  0.00  0.00    +0.000 F 
ATOM      9  C   UNL     1      48.504   6.533  13.445  0.00  0.00    +0.000 A 
ATOM     10  C   UNL     1      47.808   5.697  14.316  0.00  0.00    +0.000 A 
ATOM     11  C   UNL     1      46.508   5.282  13.995  0.00  0.00    +0.000 A 
BRANCH  10  12
ATOM     12  O   UNL     1      48.481   5.317  15.452  0.00  0.00    +0.000 OA
BRANCH  12  13
ATOM     13  C   UNL     1      47.761   4.579  16.467  0.00  0.00    +0.000 C 
ATOM     14  C   UNL     1      48.339   4.613  17.902  0.00  0.00    +0.000 C 
ATOM     15  C   UNL     1      48.112   3.099  17.999  0.00  0.00    +0.000 C 
ATOM     16  C   UNL     1      48.022   3.053  16.467  0.00  0.00    +0.000 C 
ENDBRANCH  12  13
ENDBRANCH  10  12
ENDBRANCH   2   5
ENDBRANCH   1   2
BRANCH   1  17
ATOM     17  N   UNL     1      43.462   4.786  10.223  0.00  0.00    +0.000 N 
ATOM     18  H   UNL     1      42.693   5.105   9.632  0.00  0.00    +0.000 HD
BRANCH  17  22
ATOM     19  C   UNL     1      46.098   2.429   7.888  0.00  0.00    +0.000 A 
ATOM     20  C   UNL     1      46.039   3.818   7.743  0.00  0.00    +0.000 A 
ATOM     21  C   UNL     1      45.167   4.573   8.541  0.00  0.00    +0.000 A 
ATOM     22  C   UNL     1      44.357   3.968   9.517  0.00  0.00    +0.000 A 
ATOM     23  C   UNL     1      44.432   2.568   9.624  0.00  0.00    +0.000 A 
ATOM     24  F   UNL     1      43.692   1.904  10.527  0.00  0.00    +0.000 F 
ATOM     25  C   UNL     1      45.294   1.803   8.838  0.00  0.00    +0.000 A 
BRANCH  19  27
ATOM     26  O   UNL     1      47.219   0.448   7.240  0.00  0.00    +0.000 OA
ATOM     27  C   UNL     1      47.048   1.650   7.056  0.00  0.00    +0.000 C 
ATOM     28  N   UNL     1      47.738   2.354   6.094  0.00  0.00    +0.000 N 
ATOM     29  H   UNL     1      47.890   3.356   6.152  0.00  0.00    +0.000 HD
BRANCH  28  30
ATOM     30  O   UNL     1      48.721   1.616   5.395  0.00  0.00    +0.000 OA
ATOM     31  H   UNL     1      48.946   0.907   6.038  0.00  0.00    +0.000 HD
ENDBRANCH  28  30
ENDBRANCH  19  27
ENDBRANCH  17  22
ENDBRANCH   1  17
TORSDOF 8
ENDMDL
MODEL 2
REMARK VINA RESULT:    -8.148      2.721      8.041
REMARK INTER + INTRA:         -12.886
REMARK INTER:                 -11.799
REMARK INTRA:                  -1.087
REMARK UNBOUND:                -1.166
REMARK  Name = 
REMARK  8 active torsions:
REMARK  status: ('A' for Active; 'I' for Inactive)
REMARK    1  A    between atoms: C_2  and  C_5
REMARK    2  A    between atoms: N_3  and  O_4
REMARK    3  A    between atoms: C_8  and  N_9
REMARK    4  A    between atoms: N_9  and  C_10
REMARK    5  A    between atoms: C_10  and  C_11
REMARK    6  A    between atoms: C_11  and  C_14
REMARK    7  A    between atoms: C_19  and  O_20
REMARK    8  A    between atoms: O_20  and  C_21
REMARK                            x       y       z     vdW  Elec       q    Type
REMARK                         _______ _______ _______ _____ _____    ______ ____
ROOT
ATOM      1  C   UNL     1      46.537   7.136  12.305  0.00  0.00    +0.000 C 
ENDROOT
BRANCH   1   2
ATOM      2  C   UNL     1      45.064   6.736  12.029  0.00  0.00    +0.000 C 
ATOM      3  F   UNL     1      44.476   6.491  13.242  0.00  0.00    +0.000 F 
ATOM      4  F   UNL     1      44.414   7.838  11.541  0.00  0.00    +0.000 F 
BRANCH   2   5
ATOM      5  C   UNL     1      44.945   5.544  11.102  0.00  0.00    +0.000 A 
ATOM      6  C   UNL     1      44.198   4.423  11.483  0.00  0.00    +0.000 A 
ATOM      7  C   UNL     1      44.067   3.349  10.609  0.00  0.00    +0.000 A 
ATOM      8  F   UNL     1      43.349   2.283  10.986  0.00  0.00    +0.000 F 
ATOM      9  C   UNL     1      44.660   3.366   9.353  0.00  0.00    +0.000 A 
ATOM     10  C   UNL     1      45.403   4.478   8.960  0.00  0.00    +0.000 A 
ATOM     11  C   UNL     1      45.565   5.555   9.840  0.00  0.00    +0.000 A 
BRANCH  10  12
ATOM     12  O   UNL     1      45.952   4.420   7.702  0.00  0.00    +0.000 OA
BRANCH  12  13
ATOM     13  C   UNL     1      46.024   3.137   7.038  0.00  0.00    +0.000 C 
ATOM     14  C   UNL     1      47.126   2.160   7.516  0.00  0.00    +0.000 C 
ATOM     15  C   UNL     1      47.460   1.863   6.048  0.00  0.00    +0.000 C 
ATOM     16  C   UNL     1      46.730   3.158   5.660  0.00  0.00    +0.000 C 
ENDBRANCH  12  13
ENDBRANCH  10  12
ENDBRANCH   2   5
ENDBRANCH   1   2
BRANCH   1  17
ATOM     17  N   UNL     1      47.434   6.005  12.634  0.00  0.00    +0.000 N 
ATOM     18  H   UNL     1      48.337   6.059  12.161  0.00  0.00    +0.000 HD
BRANCH  17  22
ATOM     19  C   UNL     1      48.074   4.821  16.651  0.00  0.00    +0.000 A 
ATOM     20  C   UNL     1      48.581   6.026  16.157  0.00  0.00    +0.000 A 
ATOM     21  C   UNL     1      48.340   6.398  14.826  0.00  0.00    +0.000 A 
ATOM     22  C   UNL     1      47.568   5.596  13.968  0.00  0.00    +0.000 A 
ATOM     23  C   UNL     1      47.087   4.384  14.497  0.00  0.00    +0.000 A 
ATOM     24  F   UNL     1      46.342   3.553  13.750  0.00  0.00    +0.000 F 
ATOM     25  C   UNL     1      47.318   4.001  15.817  0.00  0.00    +0.000 A 
BRANCH  19  27
ATOM     26  O   UNL     1      48.940   5.203  18.820  0.00  0.00    +0.000 OA
ATOM     27  C   UNL     1      48.314   4.459  18.070  0.00  0.00    +0.000 C 
ATOM     28  N   UNL     1      47.823   3.240  18.482  0.00  0.00    +0.000 N 
ATOM     29  H   UNL     1      47.634   2.479  17.837  0.00  0.00    +0.000 HD
BRANCH  28  30
ATOM     30  O   UNL     1      48.166   2.866  19.802  0.00  0.00    +0.000 OA
ATOM     31  H   UNL     1      47.357   3.107  20.305  0.00  0.00    +0.000 HD
ENDBRANCH  28  30
ENDBRANCH  19  27
ENDBRANCH  17  22
ENDBRANCH   1  17
TORSDOF 8
ENDMDL
MODEL 3
REMARK VINA RESULT:    -7.775      1.884      2.856
REMARK INTER + INTRA:         -12.350
REMARK INTER:                 -11.723
REMARK INTRA:                  -0.628
REMARK UNBOUND:                -1.166
REMARK  Name = 
REMARK  8 active torsions:
REMARK  status: ('A' for Active; 'I' for Inactive)
REMARK    1  A    between atoms: C_2  and  C_5
REMARK    2  A    between atoms: N_3  and  O_4
REMARK    3  A    between atoms: C_8  and  N_9
REMARK    4  A    between atoms: N_9  and  C_10
REMARK    5  A    between atoms: C_10  and  C_11
REMARK    6  A    between atoms: C_11  and  C_14
REMARK    7  A    between atoms: C_19  and  O_20
REMARK    8  A    between atoms: O_20  and  C_21
REMARK                            x       y       z     vdW  Elec       q    Type
REMARK                         _______ _______ _______ _____ _____    ______ ____
ROOT
ATOM      1  C   UNL     1      43.932   5.402  11.714  0.00  0.00    +0.000 C 
ENDROOT
BRANCH   1   2
ATOM      2  C   UNL     1      44.961   6.559  11.816  0.00  0.00    +0.000 C 
ATOM      3  F   UNL     1      45.509   6.725  10.572  0.00  0.00    +0.000 F 
ATOM      4  F   UNL     1      44.268   7.716  12.052  0.00  0.00    +0.000 F 
BRANCH   2   5
ATOM      5  C   UNL     1      46.026   6.304  12.864  0.00  0.00    +0.000 A 
ATOM      6  C   UNL     1      46.105   5.062  13.505  0.00  0.00    +0.000 A 
ATOM      7  C   UNL     1      47.109   4.829  14.439  0.00  0.00    +0.000 A 
ATOM      8  F   UNL     1      47.173   3.636  15.045  0.00  0.00    +0.000 F 
ATOM      9  C   UNL     1      48.046   5.806  14.748  0.00  0.00    +0.000 A 
ATOM     10  C   UNL     1      47.981   7.045  14.113  0.00  0.00    +0.000 A 
ATOM     11  C   UNL     1      46.960   7.303  13.190  0.00  0.00    +0.000 A 
BRANCH  10  12
ATOM     12  O   UNL     1      48.947   7.955  14.469  0.00  0.00    +0.000 OA
BRANCH  12  13
ATOM     13  C   UNL     1      50.314   7.498  14.597  0.00  0.00    +0.000 C 
ATOM     14  C   UNL     1      50.954   7.582  16.003  0.00  0.00    +0.000 C 
ATOM     15  C   UNL     1      52.219   8.166  15.362  0.00  0.00    +0.000 C 
ATOM     16  C   UNL     1      51.384   8.509  14.119  0.00  0.00    +0.000 C 
ENDBRANCH  12  13
ENDBRANCH  10  12
ENDBRANCH   2   5
ENDBRANCH   1   2
BRANCH   1  17
ATOM     17  N   UNL     1      43.580   5.007  10.332  0.00  0.00    +0.000 N 
ATOM     18  H   UNL     1      43.267   5.791   9.758  0.00  0.00    +0.000 HD
BRANCH  17  22
ATOM     19  C   UNL     1      46.083   2.524   7.982  0.00  0.00    +0.000 A 
ATOM     20  C   UNL     1      46.081   3.913   7.828  0.00  0.00    +0.000 A 
ATOM     21  C   UNL     1      45.252   4.710   8.630  0.00  0.00    +0.000 A 
ATOM     22  C   UNL     1      44.430   4.147   9.621  0.00  0.00    +0.000 A 
ATOM     23  C   UNL     1      44.447   2.745   9.737  0.00  0.00    +0.000 A 
ATOM     24  F   UNL     1      43.691   2.120  10.654  0.00  0.00    +0.000 F 
ATOM     25  C   UNL     1      45.265   1.940   8.947  0.00  0.00    +0.000 A 
BRANCH  19  27
ATOM     26  O   UNL     1      47.086   0.487   7.314  0.00  0.00    +0.000 OA
ATOM     27  C   UNL     1      46.988   1.700   7.144  0.00  0.00    +0.000 C 
ATOM     28  N   UNL     1      47.724   2.373   6.193  0.00  0.00    +0.000 N 
ATOM     29  H   UNL     1      47.935   3.363   6.264  0.00  0.00    +0.000 HD
BRANCH  28  30
ATOM     30  O   UNL     1      48.664   1.586   5.489  0.00  0.00    +0.000 OA
ATOM     31  H   UNL     1      49.448   1.618   6.080  0.00  0.00    +0.000 HD
ENDBRANCH  28  30
ENDBRANCH  19  27
ENDBRANCH  17  22
ENDBRANCH   1  17
TORSDOF 8
ENDMDL
MODEL 4
REMARK VINA RESULT:    -7.484      2.413      3.888
REMARK INTER + INTRA:         -11.932
REMARK INTER:                 -10.733
REMARK INTRA:                  -1.199
REMARK UNBOUND:                -1.166
REMARK  Name = 
REMARK  8 active torsions:
REMARK  status: ('A' for Active; 'I' for Inactive)
REMARK    1  A    between atoms: C_2  and  C_5
REMARK    2  A    between atoms: N_3  and  O_4
REMARK    3  A    between atoms: C_8  and  N_9
REMARK    4  A    between atoms: N_9  and  C_10
REMARK    5  A    between atoms: C_10  and  C_11
REMARK    6  A    between atoms: C_11  and  C_14
REMARK    7  A    between atoms: C_19  and  O_20
REMARK    8  A    between atoms: O_20  and  C_21
REMARK                            x       y       z     vdW  Elec       q    Type
REMARK                         _______ _______ _______ _____ _____    ______ ____
ROOT
ATOM      1  C   UNL     1      44.609   5.427  11.919  0.00  0.00    +0.000 C 
ENDROOT
BRANCH   1   2
ATOM      2  C   UNL     1      45.126   6.885  12.033  0.00  0.00    +0.000 C 
ATOM      3  F   UNL     1      44.890   7.495  10.829  0.00  0.00    +0.000 F 
ATOM      4  F   UNL     1      44.324   7.546  12.924  0.00  0.00    +0.000 F 
BRANCH   2   5
ATOM      5  C   UNL     1      46.590   6.959  12.416  0.00  0.00    +0.000 A 
ATOM      6  C   UNL     1      47.013   6.534  13.681  0.00  0.00    +0.000 A 
ATOM      7  C   UNL     1      48.364   6.573  14.008  0.00  0.00    +0.000 A 
ATOM      8  F   UNL     1      48.755   6.164  15.222  0.00  0.00    +0.000 F 
ATOM      9  C   UNL     1      49.313   7.023  13.098  0.00  0.00    +0.000 A 
ATOM     10  C   UNL     1      48.905   7.444  11.834  0.00  0.00    +0.000 A 
ATOM     11  C   UNL     1      47.545   7.434  11.500  0.00  0.00    +0.000 A 
BRANCH  10  12
ATOM     12  O   UNL     1      49.904   7.869  10.990  0.00  0.00    +0.000 OA
BRANCH  12  13
ATOM     13  C   UNL     1      51.145   8.334  11.569  0.00  0.00    +0.000 C 
ATOM     14  C   UNL     1      51.629   9.744  11.151  0.00  0.00    +0.000 C 
ATOM     15  C   UNL     1      53.041   9.173  10.965  0.00  0.00    +0.000 C 
ATOM     16  C   UNL     1      52.423   7.769  10.904  0.00  0.00    +0.000 C 
ENDBRANCH  12  13
ENDBRANCH  10  12
ENDBRANCH   2   5
ENDBRANCH   1   2
BRANCH   1  17
ATOM     17  N   UNL     1      44.064   5.066  10.591  0.00  0.00    +0.000 N 
ATOM     18  H   UNL     1      43.682   5.865  10.083  0.00  0.00    +0.000 HD
BRANCH  17  22
ATOM     19  C   UNL     1      46.227   2.646   7.868  0.00  0.00    +0.000 A 
ATOM     20  C   UNL     1      46.379   4.035   7.888  0.00  0.00    +0.000 A 
ATOM     21  C   UNL     1      45.660   4.808   8.811  0.00  0.00    +0.000 A 
ATOM     22  C   UNL     1      44.798   4.217   9.751  0.00  0.00    +0.000 A 
ATOM     23  C   UNL     1      44.660   2.818   9.689  0.00  0.00    +0.000 A 
ATOM     24  F   UNL     1      43.856   2.167  10.545  0.00  0.00    +0.000 F 
ATOM     25  C   UNL     1      45.367   2.036   8.777  0.00  0.00    +0.000 A 
BRANCH  19  27
ATOM     26  O   UNL     1      47.030   0.615   6.956  0.00  0.00    +0.000 OA
ATOM     27  C   UNL     1      47.018   1.842   6.903  0.00  0.00    +0.000 C 
ATOM     28  N   UNL     1      47.751   2.548   5.975  0.00  0.00    +0.000 N 
ATOM     29  H   UNL     1      48.043   3.508   6.123  0.00  0.00    +0.000 HD
BRANCH  28  30
ATOM     30  O   UNL     1      48.587   1.764   5.145  0.00  0.00    +0.000 OA
ATOM     31  H   UNL     1      49.485   2.057   5.418  0.00  0.00    +0.000 HD
ENDBRANCH  28  30
ENDBRANCH  19  27
ENDBRANCH  17  22
ENDBRANCH   1  17
TORSDOF 8
ENDMDL
MODEL 5
REMARK VINA RESULT:    -7.101      3.445      8.919
REMARK INTER + INTRA:         -11.380
REMARK INTER:                 -10.721
REMARK INTRA:                  -0.659
REMARK UNBOUND:                -1.166
REMARK  Name = 
REMARK  8 active torsions:
REMARK  status: ('A' for Active; 'I' for Inactive)
REMARK    1  A    between atoms: C_2  and  C_5
REMARK    2  A    between atoms: N_3  and  O_4
REMARK    3  A    between atoms: C_8  and  N_9
REMARK    4  A    between atoms: N_9  and  C_10
REMARK    5  A    between atoms: C_10  and  C_11
REMARK    6  A    between atoms: C_11  and  C_14
REMARK    7  A    between atoms: C_19  and  O_20
REMARK    8  A    between atoms: O_20  and  C_21
REMARK                            x       y       z     vdW  Elec       q    Type
REMARK                         _______ _______ _______ _____ _____    ______ ____
ROOT
ATOM      1  C   UNL     1      47.102   4.646  13.670  0.00  0.00    +0.000 C 
ENDROOT
BRANCH   1   2
ATOM      2  C   UNL     1      46.125   5.482  12.802  0.00  0.00    +0.000 C 
ATOM      3  F   UNL     1      45.227   6.069  13.653  0.00  0.00    +0.000 F 
ATOM      4  F   UNL     1      46.831   6.524  12.262  0.00  0.00    +0.000 F 
BRANCH   2   5
ATOM      5  C   UNL     1      45.428   4.653  11.743  0.00  0.00    +0.000 A 
ATOM      6  C   UNL     1      44.503   3.668  12.110  0.00  0.00    +0.000 A 
ATOM      7  C   UNL     1      43.843   2.937  11.127  0.00  0.00    +0.000 A 
ATOM      8  F   UNL     1      42.962   1.998  11.493  0.00  0.00    +0.000 F 
ATOM      9  C   UNL     1      44.077   3.169   9.778  0.00  0.00    +0.000 A 
ATOM     10  C   UNL     1      44.992   4.151   9.399  0.00  0.00    +0.000 A 
ATOM     11  C   UNL     1      45.683   4.876  10.379  0.00  0.00    +0.000 A 
BRANCH  10  12
ATOM     12  O   UNL     1      45.163   4.323   8.047  0.00  0.00    +0.000 OA
BRANCH  12  13
ATOM     13  C   UNL     1      45.557   3.182   7.249  0.00  0.00    +0.000 C 
ATOM     14  C   UNL     1      46.437   2.113   7.941  0.00  0.00    +0.000 C 
ATOM     15  C   UNL     1      47.331   2.083   6.693  0.00  0.00    +0.000 C 
ATOM     16  C   UNL     1      46.740   3.441   6.285  0.00  0.00    +0.000 C 
ENDBRANCH  12  13
ENDBRANCH  10  12
ENDBRANCH   2   5
ENDBRANCH   1   2
BRANCH   1  17
ATOM     17  N   UNL     1      46.739   4.561  15.103  0.00  0.00    +0.000 N 
ATOM     18  H   UNL     1      46.121   3.775  15.314  0.00  0.00    +0.000 HD
BRANCH  17  22
ATOM     19  C   UNL     1      49.589   4.951  18.212  0.00  0.00    +0.000 A 
ATOM     20  C   UNL     1      48.846   3.779  18.047  0.00  0.00    +0.000 A 
ATOM     21  C   UNL     1      47.920   3.674  17.000  0.00  0.00    +0.000 A 
ATOM     22  C   UNL     1      47.734   4.719  16.078  0.00  0.00    +0.000 A 
ATOM     23  C   UNL     1      48.488   5.888  16.285  0.00  0.00    +0.000 A 
ATOM     24  F   UNL     1      48.373   6.938  15.456  0.00  0.00    +0.000 F 
ATOM     25  C   UNL     1      49.412   6.007  17.322  0.00  0.00    +0.000 A 
BRANCH  19  27
ATOM     26  O   UNL     1      50.714   6.055  19.979  0.00  0.00    +0.000 OA
ATOM     27  C   UNL     1      50.585   5.033  19.309  0.00  0.00    +0.000 C 
ATOM     28  N   UNL     1      51.366   3.916  19.511  0.00  0.00    +0.000 N 
ATOM     29  H   UNL     1      51.536   3.228  18.784  0.00  0.00    +0.000 HD
BRANCH  28  30
ATOM     30  O   UNL     1      52.386   4.060  20.481  0.00  0.00    +0.000 OA
ATOM     31  H   UNL     1      51.893   3.932  21.322  0.00  0.00    +0.000 HD
ENDBRANCH  28  30
ENDBRANCH  19  27
ENDBRANCH  17  22
ENDBRANCH   1  17
TORSDOF 8
ENDMDL
MODEL 6
REMARK VINA RESULT:    -6.947      3.427      7.695
REMARK INTER + INTRA:         -11.159
REMARK INTER:                 -10.289
REMARK INTRA:                  -0.870
REMARK UNBOUND:                -1.166
REMARK  Name = 
REMARK  8 active torsions:
REMARK  status: ('A' for Active; 'I' for Inactive)
REMARK    1  A    between atoms: C_2  and  C_5
REMARK    2  A    between atoms: N_3  and  O_4
REMARK    3  A    between atoms: C_8  and  N_9
REMARK    4  A    between atoms: N_9  and  C_10
REMARK    5  A    between atoms: C_10  and  C_11
REMARK    6  A    between atoms: C_11  and  C_14
REMARK    7  A    between atoms: C_19  and  O_20
REMARK    8  A    between atoms: O_20  and  C_21
REMARK                            x       y       z     vdW  Elec       q    Type
REMARK                         _______ _______ _______ _____ _____    ______ ____
ROOT
ATOM      1  C   UNL     1      46.467   5.822  13.167  0.00  0.00    +0.000 C 
ENDROOT
BRANCH   1   2
ATOM      2  C   UNL     1      45.179   6.091  12.346  0.00  0.00    +0.000 C 
ATOM      3  F   UNL     1      44.165   6.310  13.241  0.00  0.00    +0.000 F 
ATOM      4  F   UNL     1      45.337   7.285  11.696  0.00  0.00    +0.000 F 
BRANCH   2   5
ATOM      5  C   UNL     1      44.845   4.960  11.394  0.00  0.00    +0.000 A 
ATOM      6  C   UNL     1      44.113   3.853  11.839  0.00  0.00    +0.000 A 
ATOM      7  C   UNL     1      43.783   2.838  10.948  0.00  0.00    +0.000 A 
ATOM      8  F   UNL     1      43.083   1.784  11.387  0.00  0.00    +0.000 F 
ATOM      9  C   UNL     1      44.160   2.901   9.612  0.00  0.00    +0.000 A 
ATOM     10  C   UNL     1      44.884   4.001   9.155  0.00  0.00    +0.000 A 
ATOM     11  C   UNL     1      45.246   5.018  10.048  0.00  0.00    +0.000 A 
BRANCH  10  12
ATOM     12  O   UNL     1      45.214   3.992   7.821  0.00  0.00    +0.000 OA
BRANCH  12  13
ATOM     13  C   UNL     1      46.527   3.521   7.438  0.00  0.00    +0.000 C 
ATOM     14  C   UNL     1      46.780   3.301   5.927  0.00  0.00    +0.000 C 
ATOM     15  C   UNL     1      47.450   1.962   6.263  0.00  0.00    +0.000 C 
ATOM     16  C   UNL     1      46.754   2.002   7.632  0.00  0.00    +0.000 C 
ENDBRANCH  12  13
ENDBRANCH  10  12
ENDBRANCH   2   5
ENDBRANCH   1   2
BRANCH   1  17
ATOM     17  N   UNL     1      47.074   7.026  13.778  0.00  0.00    +0.000 N 
ATOM     18  H   UNL     1      46.980   7.050  14.795  0.00  0.00    +0.000 HD
BRANCH  17  22
ATOM     19  C   UNL     1      50.921   8.105  12.370  0.00  0.00    +0.000 A 
ATOM     20  C   UNL     1      49.892   7.762  11.489  0.00  0.00    +0.000 A 
ATOM     21  C   UNL     1      48.625   7.423  11.984  0.00  0.00    +0.000 A 
ATOM     22  C   UNL     1      48.345   7.446  13.362  0.00  0.00    +0.000 A 
ATOM     23  C   UNL     1      49.410   7.782  14.218  0.00  0.00    +0.000 A 
ATOM     24  F   UNL     1      49.236   7.826  15.549  0.00  0.00    +0.000 F 
ATOM     25  C   UNL     1      50.675   8.120  13.741  0.00  0.00    +0.000 A 
BRANCH  19  27
ATOM     26  O   UNL     1      52.703   9.616  11.994  0.00  0.00    +0.000 OA
ATOM     27  C   UNL     1      52.247   8.488  11.825  0.00  0.00    +0.000 C 
ATOM     28  N   UNL     1      52.915   7.523  11.104  0.00  0.00    +0.000 N 
ATOM     29  H   UNL     1      52.439   6.747  10.656  0.00  0.00    +0.000 HD
BRANCH  28  30
ATOM     30  O   UNL     1      54.120   7.949  10.497  0.00  0.00    +0.000 OA
ATOM     31  H   UNL     1      54.800   7.602  11.116  0.00  0.00    +0.000 HD
ENDBRANCH  28  30
ENDBRANCH  19  27
ENDBRANCH  17  22
ENDBRANCH   1  17
TORSDOF 8
ENDMDL
MODEL 7
REMARK VINA RESULT:    -6.797      1.953      2.422
REMARK INTER + INTRA:         -10.943
REMARK INTER:                 -10.104
REMARK INTRA:                  -0.839
REMARK UNBOUND:                -1.166
REMARK  Name = 
REMARK  8 active torsions:
REMARK  status: ('A' for Active; 'I' for Inactive)
REMARK    1  A    between atoms: C_2  and  C_5
REMARK    2  A    between atoms: N_3  and  O_4
REMARK    3  A    between atoms: C_8  and  N_9
REMARK    4  A    between atoms: N_9  and  C_10
REMARK    5  A    between atoms: C_10  and  C_11
REMARK    6  A    between atoms: C_11  and  C_14
REMARK    7  A    between atoms: C_19  and  O_20
REMARK    8  A    between atoms: O_20  and  C_21
REMARK                            x       y       z     vdW  Elec       q    Type
REMARK                         _______ _______ _______ _____ _____    ______ ____
ROOT
ATOM      1  C   UNL     1      45.373   5.535  12.206  0.00  0.00    +0.000 C 
ENDROOT
BRANCH   1   2
ATOM      2  C   UNL     1      45.597   7.069  12.261  0.00  0.00    +0.000 C 
ATOM      3  F   UNL     1      45.150   7.588  11.076  0.00  0.00    +0.000 F 
ATOM      4  F   UNL     1      44.752   7.582  13.209  0.00  0.00    +0.000 F 
BRANCH   2   5
ATOM      5  C   UNL     1      47.043   7.440  12.521  0.00  0.00    +0.000 A 
ATOM      6  C   UNL     1      48.019   7.211  11.544  0.00  0.00    +0.000 A 
ATOM      7  C   UNL     1      49.337   7.589  11.781  0.00  0.00    +0.000 A 
ATOM      8  F   UNL     1      50.260   7.364  10.837  0.00  0.00    +0.000 F 
ATOM      9  C   UNL     1      49.708   8.198  12.972  0.00  0.00    +0.000 A 
ATOM     10  C   UNL     1      48.745   8.435  13.951  0.00  0.00    +0.000 A 
ATOM     11  C   UNL     1      47.420   8.037  13.737  0.00  0.00    +0.000 A 
BRANCH  10  12
ATOM     12  O   UNL     1      49.192   9.046  15.098  0.00  0.00    +0.000 OA
BRANCH  12  13
ATOM     13  C   UNL     1      49.742   8.220  16.151  0.00  0.00    +0.000 C 
ATOM     14  C   UNL     1      50.640   7.037  15.717  0.00  0.00    +0.000 C 
ATOM     15  C   UNL     1      49.895   6.142  16.717  0.00  0.00    +0.000 C 
ATOM     16  C   UNL     1      48.761   7.177  16.738  0.00  0.00    +0.000 C 
ENDBRANCH  12  13
ENDBRANCH  10  12
ENDBRANCH   2   5
ENDBRANCH   1   2
BRANCH   1  17
ATOM     17  N   UNL     1      44.518   5.075  11.088  0.00  0.00    +0.000 N 
ATOM     18  H   UNL     1      43.835   5.773  10.791  0.00  0.00    +0.000 HD
BRANCH  17  22
ATOM     19  C   UNL     1      46.223   3.284   7.648  0.00  0.00    +0.000 A 
ATOM     20  C   UNL     1      46.477   4.618   7.977  0.00  0.00    +0.000 A 
ATOM     21  C   UNL     1      45.910   5.179   9.131  0.00  0.00    +0.000 A 
ATOM     22  C   UNL     1      45.103   4.420   9.995  0.00  0.00    +0.000 A 
ATOM     23  C   UNL     1      44.858   3.085   9.623  0.00  0.00    +0.000 A 
ATOM     24  F   UNL     1      44.096   2.285  10.387  0.00  0.00    +0.000 F 
ATOM     25  C   UNL     1      45.414   2.514   8.480  0.00  0.00    +0.000 A 
BRANCH  19  27
ATOM     26  O   UNL     1      46.222   2.550   5.398  0.00  0.00    +0.000 OA
ATOM     27  C   UNL     1      46.856   2.700   6.440  0.00  0.00    +0.000 C 
ATOM     28  N   UNL     1      48.173   2.316   6.563  0.00  0.00    +0.000 N 
ATOM     29  H   UNL     1      48.597   2.094   7.458  0.00  0.00    +0.000 HD
BRANCH  28  30
ATOM     30  O   UNL     1      48.717   1.655   5.437  0.00  0.00    +0.000 OA
ATOM     31  H   UNL     1      49.622   1.427   5.746  0.00  0.00    +0.000 HD
ENDBRANCH  28  30
ENDBRANCH  19  27
ENDBRANCH  17  22
ENDBRANCH   1  17
TORSDOF 8
ENDMDL
MODEL 8
REMARK VINA RESULT:    -6.676      3.662      9.131
REMARK INTER + INTRA:         -10.769
REMARK INTER:                  -9.805
REMARK INTRA:                  -0.965
REMARK UNBOUND:                -1.166
REMARK  Name = 
REMARK  8 active torsions:
REMARK  status: ('A' for Active; 'I' for Inactive)
REMARK    1  A    between atoms: C_2  and  C_5
REMARK    2  A    between atoms: N_3  and  O_4
REMARK    3  A    between atoms: C_8  and  N_9
REMARK    4  A    between atoms: N_9  and  C_10
REMARK    5  A    between atoms: C_10  and  C_11
REMARK    6  A    between atoms: C_11  and  C_14
REMARK    7  A    between atoms: C_19  and  O_20
REMARK    8  A    between atoms: O_20  and  C_21
REMARK                            x       y       z     vdW  Elec       q    Type
REMARK                         _______ _______ _______ _____ _____    ______ ____
ROOT
ATOM      1  C   UNL     1      46.983   5.649  13.192  0.00  0.00    +0.000 C 
ENDROOT
BRANCH   1   2
ATOM      2  C   UNL     1      45.929   6.216  12.205  0.00  0.00    +0.000 C 
ATOM      3  F   UNL     1      44.968   6.842  12.953  0.00  0.00    +0.000 F 
ATOM      4  F   UNL     1      46.524   7.220  11.488  0.00  0.00    +0.000 F 
BRANCH   2   5
ATOM      5  C   UNL     1      45.332   5.150  11.311  0.00  0.00    +0.000 A 
ATOM      6  C   UNL     1      44.438   4.207  11.834  0.00  0.00    +0.000 A 
ATOM      7  C   UNL     1      43.868   3.254  10.995  0.00  0.00    +0.000 A 
ATOM      8  F   UNL     1      43.015   2.359  11.509  0.00  0.00    +0.000 F 
ATOM      9  C   UNL     1      44.164   3.220   9.639  0.00  0.00    +0.000 A 
ATOM     10  C   UNL     1      45.048   4.156   9.105  0.00  0.00    +0.000 A 
ATOM     11  C   UNL     1      45.649   5.104   9.943  0.00  0.00    +0.000 A 
BRANCH  10  12
ATOM     12  O   UNL     1      45.284   4.059   7.755  0.00  0.00    +0.000 OA
BRANCH  12  13
ATOM     13  C   UNL     1      46.567   3.558   7.312  0.00  0.00    +0.000 C 
ATOM     14  C   UNL     1      46.712   3.233   5.806  0.00  0.00    +0.000 C 
ATOM     15  C   UNL     1      47.406   1.918   6.185  0.00  0.00    +0.000 C 
ATOM     16  C   UNL     1      46.810   2.055   7.594  0.00  0.00    +0.000 C 
ENDBRANCH  12  13
ENDBRANCH  10  12
ENDBRANCH   2   5
ENDBRANCH   1   2
BRANCH   1  17
ATOM     17  N   UNL     1      48.208   6.469  13.328  0.00  0.00    +0.000 N 
ATOM     18  H   UNL     1      48.435   6.995  12.483  0.00  0.00    +0.000 HD
BRANCH  17  22
ATOM     19  C   UNL     1      48.679   8.612  16.953  0.00  0.00    +0.000 A 
ATOM     20  C   UNL     1      48.978   7.249  16.867  0.00  0.00    +0.000 A 
ATOM     21  C   UNL     1      48.826   6.570  15.650  0.00  0.00    +0.000 A 
ATOM     22  C   UNL     1      48.402   7.235  14.486  0.00  0.00    +0.000 A 
ATOM     23  C   UNL     1      48.096   8.603  14.615  0.00  0.00    +0.000 A 
ATOM     24  F   UNL     1      47.681   9.318  13.557  0.00  0.00    +0.000 F 
ATOM     25  C   UNL     1      48.242   9.291  15.818  0.00  0.00    +0.000 A 
BRANCH  19  27
ATOM     26  O   UNL     1      47.917   9.713  18.904  0.00  0.00    +0.000 OA
ATOM     27  C   UNL     1      48.874   9.320  18.242  0.00  0.00    +0.000 C 
ATOM     28  N   UNL     1      50.178   9.531  18.633  0.00  0.00    +0.000 N 
ATOM     29  H   UNL     1      50.951   9.549  17.976  0.00  0.00    +0.000 HD
BRANCH  28  30
ATOM     30  O   UNL     1      50.338  10.310  19.803  0.00  0.00    +0.000 OA
ATOM     31  H   UNL     1      49.413  10.574  20.006  0.00  0.00    +0.000 HD
ENDBRANCH  28  30
ENDBRANCH  19  27
ENDBRANCH  17  22
ENDBRANCH   1  17
TORSDOF 8
ENDMDL
MODEL 9
REMARK VINA RESULT:    -6.619      3.501      5.548
REMARK INTER + INTRA:         -10.687
REMARK INTER:                  -9.421
REMARK INTRA:                  -1.266
REMARK UNBOUND:                -1.166
REMARK  Name = 
REMARK  8 active torsions:
REMARK  status: ('A' for Active; 'I' for Inactive)
REMARK    1  A    between atoms: C_2  and  C_5
REMARK    2  A    between atoms: N_3  and  O_4
REMARK    3  A    between atoms: C_8  and  N_9
REMARK    4  A    between atoms: N_9  and  C_10
REMARK    5  A    between atoms: C_10  and  C_11
REMARK    6  A    between atoms: C_11  and  C_14
REMARK    7  A    between atoms: C_19  and  O_20
REMARK    8  A    between atoms: O_20  and  C_21
REMARK                            x       y       z     vdW  Elec       q    Type
REMARK                         _______ _______ _______ _____ _____    ______ ____
ROOT
ATOM      1  C   UNL     1      48.683   7.926  13.821  0.00  0.00    +0.000 C 
ENDROOT
BRANCH   1   2
ATOM      2  C   UNL     1      49.212   8.778  15.005  0.00  0.00    +0.000 C 
ATOM      3  F   UNL     1      50.570   8.876  14.859  0.00  0.00    +0.000 F 
ATOM      4  F   UNL     1      48.749  10.056  14.842  0.00  0.00    +0.000 F 
BRANCH   2   5
ATOM      5  C   UNL     1      48.837   8.200  16.354  0.00  0.00    +0.000 A 
ATOM      6  C   UNL     1      48.119   8.969  17.278  0.00  0.00    +0.000 A 
ATOM      7  C   UNL     1      47.750   8.415  18.500  0.00  0.00    +0.000 A 
ATOM      8  F   UNL     1      47.063   9.162  19.374  0.00  0.00    +0.000 F 
ATOM      9  C   UNL     1      48.076   7.105  18.825  0.00  0.00    +0.000 A 
ATOM     10  C   UNL     1      48.787   6.328  17.912  0.00  0.00    +0.000 A 
ATOM     11  C   UNL     1      49.187   6.881  16.688  0.00  0.00    +0.000 A 
BRANCH  10  12
ATOM     12  O   UNL     1      49.066   5.041  18.305  0.00  0.00    +0.000 OA
BRANCH  12  13
ATOM     13  C   UNL     1      49.621   4.126  17.332  0.00  0.00    +0.000 C 
ATOM     14  C   UNL     1      48.969   2.726  17.233  0.00  0.00    +0.000 C 
ATOM     15  C   UNL     1      50.372   2.106  17.198  0.00  0.00    +0.000 C 
ATOM     16  C   UNL     1      50.924   3.418  17.776  0.00  0.00    +0.000 C 
ENDBRANCH  12  13
ENDBRANCH  10  12
ENDBRANCH   2   5
ENDBRANCH   1   2
BRANCH   1  17
ATOM     17  N   UNL     1      47.209   7.801  13.759  0.00  0.00    +0.000 N 
ATOM     18  H   UNL     1      46.749   8.642  13.406  0.00  0.00    +0.000 HD
BRANCH  17  22
ATOM     19  C   UNL     1      45.274   4.400  12.134  0.00  0.00    +0.000 A 
ATOM     20  C   UNL     1      45.201   5.648  11.509  0.00  0.00    +0.000 A 
ATOM     21  C   UNL     1      45.865   6.752  12.063  0.00  0.00    +0.000 A 
ATOM     22  C   UNL     1      46.636   6.635  13.232  0.00  0.00    +0.000 A 
ATOM     23  C   UNL     1      46.674   5.367  13.841  0.00  0.00    +0.000 A 
ATOM     24  F   UNL     1      47.383   5.161  14.962  0.00  0.00    +0.000 F 
ATOM     25  C   UNL     1      46.019   4.260  13.303  0.00  0.00    +0.000 A 
BRANCH  19  27
ATOM     26  O   UNL     1      44.735   2.970  10.327  0.00  0.00    +0.000 OA
ATOM     27  C   UNL     1      44.590   3.237  11.518  0.00  0.00    +0.000 C 
ATOM     28  N   UNL     1      43.771   2.500  12.344  0.00  0.00    +0.000 N 
ATOM     29  H   UNL     1      43.359   2.882  13.190  0.00  0.00    +0.000 HD
BRANCH  28  30
ATOM     30  O   UNL     1      43.039   1.470  11.707  0.00  0.00    +0.000 OA
ATOM     31  H   UNL     1      42.160   1.890  11.575  0.00  0.00    +0.000 HD
ENDBRANCH  28  30
ENDBRANCH  19  27
ENDBRANCH  17  22
ENDBRANCH   1  17
TORSDOF 8
ENDMDL
