MODEL 1
REMARK VINA RESULT:    -8.171      0.000      0.000
REMARK INTER + INTRA:         -12.254
REMARK INTER:                 -11.037
REMARK INTRA:                  -1.217
REMARK UNBOUND:                -1.217
REMARK  Name = 
REMARK  7 active torsions:
REMARK  status: ('A' for Active; 'I' for Inactive)
REMARK    1  A    between atoms: C_1  and  C_2
REMARK    2  A    between atoms: C_2  and  N_3
REMARK    3  A    between atoms: C_2  and  C_16
REMARK    4  A    between atoms: C_4  and  C_6
REMARK    5  A    between atoms: C_19  and  O_20
REMARK    6  A    between atoms: O_20  and  C_21
REMARK    7  A    between atoms: C_21  and  C_22
REMARK                            x       y       z     vdW  Elec       q    Type
REMARK                         _______ _______ _______ _____ _____    ______ ____
ROOT
ATOM      1  C   UNL     1      47.995   7.889  12.063  0.00  0.00    +0.000 C 
ATOM      2  C   UNL     1      47.062   7.104  12.997  0.00  0.00    +0.000 C 
ENDROOT
BRANCH   2   3
ATOM      3  C   UNL     1      46.269   6.029  12.279  0.00  0.00    +0.000 A 
ATOM      4  C   UNL     1      45.697   6.293  11.023  0.00  0.00    +0.000 A 
ATOM      5  C   UNL     1      45.049   5.279  10.308  0.00  0.00    +0.000 A 
ATOM      6  C   UNL     1      44.972   3.994  10.839  0.00  0.00    +0.000 A 
ATOM      7  C   UNL     1      45.422   3.758  12.136  0.00  0.00    +0.000 A 
ATOM      8  C   UNL     1      46.065   4.765  12.848  0.00  0.00    +0.000 A 
BRANCH   6   9
ATOM      9  O   UNL     1      44.458   3.019  10.023  0.00  0.00    +0.000 OA
BRANCH   9  10
ATOM     10  C   UNL     1      44.548   3.337   8.630  0.00  0.00    +0.000 C 
BRANCH  10  11
ATOM     11  C   UNL     1      45.723   2.631   8.015  0.00  0.00    +0.000 A 
ATOM     12  C   UNL     1      46.671   3.343   7.273  0.00  0.00    +0.000 A 
ATOM     13  C   UNL     1      47.753   2.654   6.750  0.00  0.00    +0.000 A 
ATOM     14  N   UNL     1      47.953   1.333   6.920  0.00  0.00    +0.000 NA
ATOM     15  C   UNL     1      47.024   0.663   7.638  0.00  0.00    +0.000 A 
ATOM     16  C   UNL     1      45.909   1.260   8.202  0.00  0.00    +0.000 A 
ENDBRANCH  10  11
ENDBRANCH   9  10
ENDBRANCH   6   9
ENDBRANCH   2   3
BRANCH   2  17
ATOM     17  N   UNL     1      47.818   6.496  14.069  0.00  0.00    +0.000 N 
ATOM     18  C   UNL     1      48.327   7.227  15.108  0.00  0.00    +0.000 C 
ATOM     19  O   UNL     1      48.047   8.409  15.284  0.00  0.00    +0.000 OA
ATOM     20  H   UNL     1      48.197   5.574  13.880  0.00  0.00    +0.000 HD
BRANCH  18  21
ATOM     21  C   UNL     1      49.211   6.507  16.027  0.00  0.00    +0.000 A 
ATOM     22  C   UNL     1      50.442   7.046  16.371  0.00  0.00    +0.000 A 
ATOM     23  S   UNL     1      51.353   6.046  17.409  0.00  0.00    +0.000 S 
ATOM     24  C   UNL     1      50.150   4.840  17.396  0.00  0.00    +0.000 A 
ATOM     25  N   UNL     1      50.333   3.662  18.049  0.00  0.00    +0.000 NA
ATOM     26  C   UNL     1      49.357   2.826  17.921  0.00  0.00    +0.000 A 
ATOM     27  N   UNL     1      48.203   3.070  17.222  0.00  0.00    +0.000 N 
ATOM     28  C   UNL     1      47.948   4.269  16.597  0.00  0.00    +0.000 A 
ATOM     29  O   UNL     1      46.861   4.496  16.070  0.00  0.00    +0.000 OA
ATOM     30  C   UNL     1      49.043   5.219  16.658  0.00  0.00    +0.000 A 
ATOM     31  H   UNL     1      47.462   2.386  17.197  0.00  0.00    +0.000 HD
ENDBRANCH  18  21
ENDBRANCH   2  17
TORSDOF 6
ENDMDL
MODEL 2
REMARK VINA RESULT:    -7.985      1.410      2.213
REMARK INTER + INTRA:         -12.003
REMARK INTER:                 -11.083
REMARK INTRA:                  -0.920
REMARK UNBOUND:                -1.217
REMARK  Name = 
REMARK  7 active torsions:
REMARK  status: ('A' for Active; 'I' for Inactive)
REMARK    1  A    between atoms: C_1  and  C_2
REMARK    2  A    between atoms: C_2  and  N_3
REMARK    3  A    between atoms: C_2  and  C_16
REMARK    4  A    between atoms: C_4  and  C_6
REMARK    5  A    between atoms: C_19  and  O_20
REMARK    6  A    between atoms: O_20  and  C_21
REMARK    7  A    between atoms: C_21  and  C_22
REMARK                            x       y       z     vdW  Elec       q    Type
REMARK                         _______ _______ _______ _____ _____    ______ ____
ROOT
ATOM      1  C   UNL     1      48.679   7.100  12.629  0.00  0.00    +0.000 C 
ATOM      2  C   UNL     1      47.424   6.628  13.380  0.00  0.00    +0.000 C 
ENDROOT
BRANCH   2   3
ATOM      3  C   UNL     1      46.506   5.776  12.526  0.00  0.00    +0.000 A 
ATOM      4  C   UNL     1      46.074   6.241  11.272  0.00  0.00    +0.000 A 
ATOM      5  C   UNL     1      45.309   5.423  10.433  0.00  0.00    +0.000 A 
ATOM      6  C   UNL     1      44.972   4.133  10.838  0.00  0.00    +0.000 A 
ATOM      7  C   UNL     1      45.287   3.714  12.129  0.00  0.00    +0.000 A 
ATOM      8  C   UNL     1      46.047   4.527  12.964  0.00  0.00    +0.000 A 
BRANCH   6   9
ATOM      9  O   UNL     1      44.352   3.336   9.911  0.00  0.00    +0.000 OA
BRANCH   9  10
ATOM     10  C   UNL     1      44.635   3.713   8.558  0.00  0.00    +0.000 C 
BRANCH  10  11
ATOM     11  C   UNL     1      45.764   2.881   8.018  0.00  0.00    +0.000 A 
ATOM     12  C   UNL     1      45.829   1.511   8.289  0.00  0.00    +0.000 A 
ATOM     13  C   UNL     1      46.872   0.778   7.746  0.00  0.00    +0.000 A 
ATOM     14  N   UNL     1      47.829   1.308   6.961  0.00  0.00    +0.000 NA
ATOM     15  C   UNL     1      47.750   2.635   6.714  0.00  0.00    +0.000 A 
ATOM     16  C   UNL     1      46.748   3.452   7.210  0.00  0.00    +0.000 A 
ENDBRANCH  10  11
ENDBRANCH   9  10
ENDBRANCH   6   9
ENDBRANCH   2   3
BRANCH   2  17
ATOM     17  N   UNL     1      47.796   5.883  14.562  0.00  0.00    +0.000 N 
ATOM     18  C   UNL     1      48.435   6.468  15.621  0.00  0.00    +0.000 C 
ATOM     19  O   UNL     1      48.595   7.682  15.709  0.00  0.00    +0.000 OA
ATOM     20  H   UNL     1      47.825   4.874  14.462  0.00  0.00    +0.000 HD
BRANCH  18  21
ATOM     21  C   UNL     1      48.897   5.559  16.672  0.00  0.00    +0.000 A 
ATOM     22  C   UNL     1      47.988   4.750  17.339  0.00  0.00    +0.000 A 
ATOM     23  S   UNL     1      48.698   3.798  18.562  0.00  0.00    +0.000 S 
ATOM     24  C   UNL     1      50.236   4.468  18.270  0.00  0.00    +0.000 A 
ATOM     25  N   UNL     1      51.306   4.124  19.034  0.00  0.00    +0.000 NA
ATOM     26  C   UNL     1      52.400   4.738  18.726  0.00  0.00    +0.000 A 
ATOM     27  N   UNL     1      52.527   5.647  17.706  0.00  0.00    +0.000 N 
ATOM     28  C   UNL     1      51.488   5.980  16.869  0.00  0.00    +0.000 A 
ATOM     29  O   UNL     1      51.660   6.715  15.899  0.00  0.00    +0.000 OA
ATOM     30  C   UNL     1      50.221   5.363  17.215  0.00  0.00    +0.000 A 
ATOM     31  H   UNL     1      53.423   6.060  17.494  0.00  0.00    +0.000 HD
ENDBRANCH  18  21
ENDBRANCH   2  17
TORSDOF 6
ENDMDL
MODEL 3
REMARK VINA RESULT:    -7.051      2.079      2.621
REMARK INTER + INTRA:         -10.742
REMARK INTER:                  -9.395
REMARK INTRA:                  -1.346
REMARK UNBOUND:                -1.217
REMARK  Name = 
REMARK  7 active torsions:
REMARK  status: ('A' for Active; 'I' for Inactive)
REMARK    1  A    between atoms: C_1  and  C_2
REMARK    2  A    between atoms: C_2  and  N_3
REMARK    3  A    between atoms: C_2  and  C_16
REMARK    4  A    between atoms: C_4  and  C_6
REMARK    5  A    between atoms: C_19  and  O_20
REMARK    6  A    between atoms: O_20  and  C_21
REMARK    7  A    between atoms: C_21  and  C_22
REMARK                            x       y       z     vdW  Elec       q    Type
REMARK                         _______ _______ _______ _____ _____    ______ ____
ROOT
ATOM      1  C   UNL     1      49.779   7.413  13.600  0.00  0.00    +0.000 C 
ATOM      2  C   UNL     1      48.321   7.565  14.063  0.00  0.00    +0.000 C 
ENDROOT
BRANCH   2   3
ATOM      3  C   UNL     1      47.359   6.679  13.296  0.00  0.00    +0.000 A 
ATOM      4  C   UNL     1      47.135   5.355  13.709  0.00  0.00    +0.000 A 
ATOM      5  C   UNL     1      46.176   4.562  13.069  0.00  0.00    +0.000 A 
ATOM      6  C   UNL     1      45.430   5.086  12.015  0.00  0.00    +0.000 A 
ATOM      7  C   UNL     1      45.737   6.351  11.519  0.00  0.00    +0.000 A 
ATOM      8  C   UNL     1      46.691   7.140  12.154  0.00  0.00    +0.000 A 
BRANCH   6   9
ATOM      9  O   UNL     1      44.409   4.308  11.534  0.00  0.00    +0.000 OA
BRANCH   9  10
ATOM     10  C   UNL     1      44.072   4.591  10.171  0.00  0.00    +0.000 C 
BRANCH  10  11
ATOM     11  C   UNL     1      44.902   3.744   9.249  0.00  0.00    +0.000 A 
ATOM     12  C   UNL     1      45.690   4.336   8.257  0.00  0.00    +0.000 A 
ATOM     13  C   UNL     1      46.460   3.516   7.449  0.00  0.00    +0.000 A 
ATOM     14  N   UNL     1      46.504   2.175   7.566  0.00  0.00    +0.000 NA
ATOM     15  C   UNL     1      45.732   1.623   8.529  0.00  0.00    +0.000 A 
ATOM     16  C   UNL     1      44.928   2.355   9.386  0.00  0.00    +0.000 A 
ENDBRANCH  10  11
ENDBRANCH   9  10
ENDBRANCH   6   9
ENDBRANCH   2   3
BRANCH   2  17
ATOM     17  N   UNL     1      48.208   7.274  15.475  0.00  0.00    +0.000 N 
ATOM     18  C   UNL     1      48.504   8.202  16.436  0.00  0.00    +0.000 C 
ATOM     19  O   UNL     1      48.730   9.379  16.172  0.00  0.00    +0.000 OA
ATOM     20  H   UNL     1      48.181   6.292  15.726  0.00  0.00    +0.000 HD
BRANCH  18  21
ATOM     21  C   UNL     1      48.506   7.715  17.817  0.00  0.00    +0.000 A 
ATOM     22  C   UNL     1      47.720   8.342  18.774  0.00  0.00    +0.000 A 
ATOM     23  S   UNL     1      47.888   7.672  20.333  0.00  0.00    +0.000 S 
ATOM     24  C   UNL     1      49.050   6.552  19.789  0.00  0.00    +0.000 A 
ATOM     25  N   UNL     1      49.662   5.702  20.654  0.00  0.00    +0.000 NA
ATOM     26  C   UNL     1      50.548   4.936  20.110  0.00  0.00    +0.000 A 
ATOM     27  N   UNL     1      50.860   4.924  18.775  0.00  0.00    +0.000 N 
ATOM     28  C   UNL     1      50.225   5.722  17.853  0.00  0.00    +0.000 A 
ATOM     29  O   UNL     1      50.450   5.613  16.650  0.00  0.00    +0.000 OA
ATOM     30  C   UNL     1      49.264   6.647  18.425  0.00  0.00    +0.000 A 
ATOM     31  H   UNL     1      51.536   4.269  18.410  0.00  0.00    +0.000 HD
ENDBRANCH  18  21
ENDBRANCH   2  17
TORSDOF 6
ENDMDL
MODEL 4
REMARK VINA RESULT:    -6.699      3.738      8.226
REMARK INTER + INTRA:         -10.266
REMARK INTER:                  -9.197
REMARK INTRA:                  -1.069
REMARK UNBOUND:                -1.217
REMARK  Name = 
REMARK  7 active torsions:
REMARK  status: ('A' for Active; 'I' for Inactive)
REMARK    1  A    between atoms: C_1  and  C_2
REMARK    2  A    between atoms: C_2  and  N_3
REMARK    3  A    between atoms: C_2  and  C_16
REMARK    4  A    between atoms: C_4  and  C_6
REMARK    5  A    between atoms: C_19  and  O_20
REMARK    6  A    between atoms: O_20  and  C_21
REMARK    7  A    between atoms: C_21  and  C_22
REMARK                            x       y       z     vdW  Elec       q    Type
REMARK                         _______ _______ _______ _____ _____    ______ ____
ROOT
ATOM      1  C   UNL     1      48.492   8.960  16.331  0.00  0.00    +0.000 C 
ATOM      2  C   UNL     1      48.915   7.771  15.456  0.00  0.00    +0.000 C 
ENDROOT
BRANCH   2   3
ATOM      3  C   UNL     1      49.521   6.632  16.254  0.00  0.00    +0.000 A 
ATOM      4  C   UNL     1      48.695   5.638  16.804  0.00  0.00    +0.000 A 
ATOM      5  C   UNL     1      49.250   4.530  17.456  0.00  0.00    +0.000 A 
ATOM      6  C   UNL     1      50.634   4.406  17.559  0.00  0.00    +0.000 A 
ATOM      7  C   UNL     1      51.451   5.449  17.129  0.00  0.00    +0.000 A 
ATOM      8  C   UNL     1      50.900   6.550  16.482  0.00  0.00    +0.000 A 
BRANCH   6   9
ATOM      9  O   UNL     1      51.112   3.229  18.074  0.00  0.00    +0.000 OA
BRANCH   9  10
ATOM     10  C   UNL     1      52.433   3.340  18.614  0.00  0.00    +0.000 C 
BRANCH  10  11
ATOM     11  C   UNL     1      53.354   2.373  17.925  0.00  0.00    +0.000 A 
ATOM     12  C   UNL     1      54.596   2.797  17.443  0.00  0.00    +0.000 A 
ATOM     13  C   UNL     1      55.424   1.864  16.840  0.00  0.00    +0.000 A 
ATOM     14  N   UNL     1      55.107   0.563  16.698  0.00  0.00    +0.000 NA
ATOM     15  C   UNL     1      53.900   0.174  17.168  0.00  0.00    +0.000 A 
ATOM     16  C   UNL     1      53.003   1.029  17.785  0.00  0.00    +0.000 A 
ENDBRANCH  10  11
ENDBRANCH   9  10
ENDBRANCH   6   9
ENDBRANCH   2   3
BRANCH   2  17
ATOM     17  N   UNL     1      47.786   7.273  14.703  0.00  0.00    +0.000 N 
ATOM     18  C   UNL     1      47.934   6.657  13.490  0.00  0.00    +0.000 C 
ATOM     19  O   UNL     1      49.030   6.346  13.035  0.00  0.00    +0.000 OA
ATOM     20  H   UNL     1      46.879   7.644  14.963  0.00  0.00    +0.000 HD
BRANCH  18  21
ATOM     21  C   UNL     1      46.695   6.356  12.769  0.00  0.00    +0.000 A 
ATOM     22  C   UNL     1      45.990   7.377  12.146  0.00  0.00    +0.000 A 
ATOM     23  S   UNL     1      44.550   6.849  11.401  0.00  0.00    +0.000 S 
ATOM     24  C   UNL     1      44.800   5.247  11.924  0.00  0.00    +0.000 A 
ATOM     25  N   UNL     1      43.882   4.277  11.672  0.00  0.00    +0.000 NA
ATOM     26  C   UNL     1      44.182   3.120  12.161  0.00  0.00    +0.000 A 
ATOM     27  N   UNL     1      45.329   2.838  12.857  0.00  0.00    +0.000 N 
ATOM     28  C   UNL     1      46.314   3.771  13.083  0.00  0.00    +0.000 A 
ATOM     29  O   UNL     1      47.377   3.461  13.615  0.00  0.00    +0.000 OA
ATOM     30  C   UNL     1      45.994   5.104  12.608  0.00  0.00    +0.000 A 
ATOM     31  H   UNL     1      45.520   1.899  13.176  0.00  0.00    +0.000 HD
ENDBRANCH  18  21
ENDBRANCH   2  17
TORSDOF 6
ENDMDL
MODEL 5
REMARK VINA RESULT:    -6.503      1.868      2.697
REMARK INTER + INTRA:         -10.001
REMARK INTER:                  -8.837
REMARK INTRA:                  -1.164
REMARK UNBOUND:                -1.217
REMARK  Name = 
REMARK  7 active torsions:
REMARK  status: ('A' for Active; 'I' for Inactive)
REMARK    1  A    between atoms: C_1  and  C_2
REMARK    2  A    between atoms: C_2  and  N_3
REMARK    3  A    between atoms: C_2  and  C_16
REMARK    4  A    between atoms: C_4  and  C_6
REMARK    5  A    between atoms: C_19  and  O_20
REMARK    6  A    between atoms: O_20  and  C_21
REMARK    7  A    between atoms: C_21  and  C_22
REMARK                            x       y       z     vdW  Elec       q    Type
REMARK                         _______ _______ _______ _____ _____    ______ ____
ROOT
ATOM      1  C   UNL     1      49.659   9.377  14.749  0.00  0.00    +0.000 C 
ATOM      2  C   UNL     1      48.777   8.214  15.229  0.00  0.00    +0.000 C 
ENDROOT
BRANCH   2   3
ATOM      3  C   UNL     1      47.840   7.696  14.155  0.00  0.00    +0.000 A 
ATOM      4  C   UNL     1      46.830   8.525  13.639  0.00  0.00    +0.000 A 
ATOM      5  C   UNL     1      46.025   8.092  12.578  0.00  0.00    +0.000 A 
ATOM      6  C   UNL     1      46.226   6.830  12.023  0.00  0.00    +0.000 A 
ATOM      7  C   UNL     1      47.137   5.957  12.614  0.00  0.00    +0.000 A 
ATOM      8  C   UNL     1      47.937   6.387  13.668  0.00  0.00    +0.000 A 
BRANCH   6   9
ATOM      9  O   UNL     1      45.506   6.530  10.896  0.00  0.00    +0.000 OA
BRANCH   9  10
ATOM     10  C   UNL     1      44.655   5.389  11.052  0.00  0.00    +0.000 C 
BRANCH  10  11
ATOM     11  C   UNL     1      44.959   4.370   9.991  0.00  0.00    +0.000 A 
ATOM     12  C   UNL     1      45.652   4.736   8.833  0.00  0.00    +0.000 A 
ATOM     13  C   UNL     1      45.936   3.757   7.895  0.00  0.00    +0.000 A 
ATOM     14  N   UNL     1      45.590   2.463   8.036  0.00  0.00    +0.000 NA
ATOM     15  C   UNL     1      44.918   2.130   9.161  0.00  0.00    +0.000 A 
ATOM     16  C   UNL     1      44.588   3.035  10.156  0.00  0.00    +0.000 A 
ENDBRANCH  10  11
ENDBRANCH   9  10
ENDBRANCH   6   9
ENDBRANCH   2   3
BRANCH   2  17
ATOM     17  N   UNL     1      49.597   7.123  15.707  0.00  0.00    +0.000 N 
ATOM     18  C   UNL     1      49.484   6.629  16.977  0.00  0.00    +0.000 C 
ATOM     19  O   UNL     1      48.582   6.963  17.740  0.00  0.00    +0.000 OA
ATOM     20  H   UNL     1      50.439   6.933  15.175  0.00  0.00    +0.000 HD
BRANCH  18  21
ATOM     21  C   UNL     1      50.491   5.641  17.373  0.00  0.00    +0.000 A 
ATOM     22  C   UNL     1      51.738   6.061  17.812  0.00  0.00    +0.000 A 
ATOM     23  S   UNL     1      52.795   4.774  18.181  0.00  0.00    +0.000 S 
ATOM     24  C   UNL     1      51.634   3.615  17.722  0.00  0.00    +0.000 A 
ATOM     25  N   UNL     1      51.926   2.288  17.736  0.00  0.00    +0.000 NA
ATOM     26  C   UNL     1      50.967   1.527  17.327  0.00  0.00    +0.000 A 
ATOM     27  N   UNL     1      49.731   1.970  16.930  0.00  0.00    +0.000 N 
ATOM     28  C   UNL     1      49.369   3.296  16.957  0.00  0.00    +0.000 A 
ATOM     29  O   UNL     1      48.222   3.651  16.698  0.00  0.00    +0.000 OA
ATOM     30  C   UNL     1      50.436   4.198  17.349  0.00  0.00    +0.000 A 
ATOM     31  H   UNL     1      49.012   1.315  16.660  0.00  0.00    +0.000 HD
ENDBRANCH  18  21
ENDBRANCH   2  17
TORSDOF 6
ENDMDL
MODEL 6
REMARK VINA RESULT:    -6.279      1.799      2.603
REMARK INTER + INTRA:          -9.698
REMARK INTER:                  -9.358
REMARK INTRA:                  -0.340
REMARK UNBOUND:                -1.217
REMARK  Name = 
REMARK  7 active torsions:
REMARK  status: ('A' for Active; 'I' for Inactive)
REMARK    1  A    between atoms: C_1  and  C_2
REMARK    2  A    between atoms: C_2  and  N_3
REMARK    3  A    between atoms: C_2  and  C_16
REMARK    4  A    between atoms: C_4  and  C_6
REMARK    5  A    between atoms: C_19  and  O_20
REMARK    6  A    between atoms: O_20  and  C_21
REMARK    7  A    between atoms: C_21  and  C_22
REMARK                            x       y       z     vdW  Elec       q    Type
REMARK                         _______ _______ _______ _____ _____    ______ ____
ROOT
ATOM      1  C   UNL     1      50.011   9.105  13.702  0.00  0.00    +0.000 C 
ATOM      2  C   UNL     1      48.612   8.926  14.310  0.00  0.00    +0.000 C 
ENDROOT
BRANCH   2   3
ATOM      3  C   UNL     1      47.605   8.362  13.327  0.00  0.00    +0.000 A 
ATOM      4  C   UNL     1      47.974   7.324  12.454  0.00  0.00    +0.000 A 
ATOM      5  C   UNL     1      47.026   6.729  11.614  0.00  0.00    +0.000 A 
ATOM      6  C   UNL     1      45.703   7.162  11.641  0.00  0.00    +0.000 A 
ATOM      7  C   UNL     1      45.359   8.273  12.409  0.00  0.00    +0.000 A 
ATOM      8  C   UNL     1      46.301   8.865  13.244  0.00  0.00    +0.000 A 
BRANCH   6   9
ATOM      9  O   UNL     1      44.801   6.438  10.905  0.00  0.00    +0.000 OA
BRANCH   9  10
ATOM     10  C   UNL     1      44.726   5.061  11.292  0.00  0.00    +0.000 C 
BRANCH  10  11
ATOM     11  C   UNL     1      44.969   4.178  10.101  0.00  0.00    +0.000 A 
ATOM     12  C   UNL     1      45.563   4.693   8.945  0.00  0.00    +0.000 A 
ATOM     13  C   UNL     1      45.794   3.834   7.882  0.00  0.00    +0.000 A 
ATOM     14  N   UNL     1      45.487   2.523   7.899  0.00  0.00    +0.000 NA
ATOM     15  C   UNL     1      44.911   2.046   9.025  0.00  0.00    +0.000 A 
ATOM     16  C   UNL     1      44.639   2.822  10.139  0.00  0.00    +0.000 A 
ENDBRANCH  10  11
ENDBRANCH   9  10
ENDBRANCH   6   9
ENDBRANCH   2   3
BRANCH   2  17
ATOM     17  N   UNL     1      48.673   8.065  15.470  0.00  0.00    +0.000 N 
ATOM     18  C   UNL     1      49.620   7.086  15.602  0.00  0.00    +0.000 C 
ATOM     19  O   UNL     1      50.568   6.974  14.830  0.00  0.00    +0.000 OA
ATOM     20  H   UNL     1      47.833   8.022  16.037  0.00  0.00    +0.000 HD
BRANCH  18  21
ATOM     21  C   UNL     1      49.456   6.186  16.746  0.00  0.00    +0.000 A 
ATOM     22  C   UNL     1      50.258   6.338  17.868  0.00  0.00    +0.000 A 
ATOM     23  S   UNL     1      49.962   5.172  19.076  0.00  0.00    +0.000 S 
ATOM     24  C   UNL     1      48.782   4.399  18.119  0.00  0.00    +0.000 A 
ATOM     25  N   UNL     1      48.166   3.266  18.547  0.00  0.00    +0.000 NA
ATOM     26  C   UNL     1      47.325   2.767  17.705  0.00  0.00    +0.000 A 
ATOM     27  N   UNL     1      47.022   3.312  16.483  0.00  0.00    +0.000 N 
ATOM     28  C   UNL     1      47.574   4.489  16.034  0.00  0.00    +0.000 A 
ATOM     29  O   UNL     1      47.204   5.008  14.984  0.00  0.00    +0.000 OA
ATOM     30  C   UNL     1      48.575   5.055  16.919  0.00  0.00    +0.000 A 
ATOM     31  H   UNL     1      46.323   2.891  15.891  0.00  0.00    +0.000 HD
ENDBRANCH  18  21
ENDBRANCH   2  17
TORSDOF 6
ENDMDL
MODEL 7
REMARK VINA RESULT:    -5.832      3.497      5.150
REMARK INTER + INTRA:          -9.094
REMARK INTER:                  -7.793
REMARK INTRA:                  -1.301
REMARK UNBOUND:                -1.217
REMARK  Name = 
REMARK  7 active torsions:
REMARK  status: ('A' for Active; 'I' for Inactive)
REMARK    1  A    between atoms: C_1  and  C_2
REMARK    2  A    between atoms: C_2  and  N_3
REMARK    3  A    between atoms: C_2  and  C_16
REMARK    4  A    between atoms: C_4  and  C_6
REMARK    5  A    between atoms: C_19  and  O_20
REMARK    6  A    between atoms: O_20  and  C_21
REMARK    7  A    between atoms: C_21  and  C_22
REMARK                            x       y       z     vdW  Elec       q    Type
REMARK                         _______ _______ _______ _____ _____    ______ ____
ROOT
ATOM      1  C   UNL     1      52.808   8.288  15.469  0.00  0.00    +0.000 C 
ATOM      2  C   UNL     1      51.637   7.566  16.153  0.00  0.00    +0.000 C 
ENDROOT
BRANCH   2   3
ATOM      3  C   UNL     1      50.447   7.361  15.235  0.00  0.00    +0.000 A 
ATOM      4  C   UNL     1      50.501   7.799  13.901  0.00  0.00    +0.000 A 
ATOM      5  C   UNL     1      49.449   7.525  13.019  0.00  0.00    +0.000 A 
ATOM      6  C   UNL     1      48.339   6.809  13.461  0.00  0.00    +0.000 A 
ATOM      7  C   UNL     1      48.223   6.486  14.812  0.00  0.00    +0.000 A 
ATOM      8  C   UNL     1      49.268   6.758  15.689  0.00  0.00    +0.000 A 
BRANCH   6   9
ATOM      9  O   UNL     1      47.418   6.448  12.511  0.00  0.00    +0.000 OA
BRANCH   9  10
ATOM     10  C   UNL     1      46.069   6.751  12.884  0.00  0.00    +0.000 C 
BRANCH  10  11
ATOM     11  C   UNL     1      45.174   5.586  12.568  0.00  0.00    +0.000 A 
ATOM     12  C   UNL     1      45.701   4.297  12.451  0.00  0.00    +0.000 A 
ATOM     13  C   UNL     1      44.834   3.250  12.186  0.00  0.00    +0.000 A 
ATOM     14  N   UNL     1      43.503   3.398  12.042  0.00  0.00    +0.000 NA
ATOM     15  C   UNL     1      43.014   4.653  12.155  0.00  0.00    +0.000 A 
ATOM     16  C   UNL     1      43.797   5.764  12.418  0.00  0.00    +0.000 A 
ENDBRANCH  10  11
ENDBRANCH   9  10
ENDBRANCH   6   9
ENDBRANCH   2   3
BRANCH   2  17
ATOM     17  N   UNL     1      52.065   6.284  16.666  0.00  0.00    +0.000 N 
ATOM     18  C   UNL     1      52.043   5.989  18.001  0.00  0.00    +0.000 C 
ATOM     19  O   UNL     1      51.516   6.722  18.832  0.00  0.00    +0.000 OA
ATOM     20  H   UNL     1      52.642   5.727  16.045  0.00  0.00    +0.000 HD
BRANCH  18  21
ATOM     21  C   UNL     1      52.662   4.719  18.388  0.00  0.00    +0.000 A 
ATOM     22  C   UNL     1      53.855   4.715  19.095  0.00  0.00    +0.000 A 
ATOM     23  S   UNL     1      54.451   3.150  19.412  0.00  0.00    +0.000 S 
ATOM     24  C   UNL     1      53.155   2.426  18.576  0.00  0.00    +0.000 A 
ATOM     25  N   UNL     1      53.092   1.078  18.414  0.00  0.00    +0.000 NA
ATOM     26  C   UNL     1      52.078   0.672  17.727  0.00  0.00    +0.000 A 
ATOM     27  N   UNL     1      51.105   1.488  17.208  0.00  0.00    +0.000 N 
ATOM     28  C   UNL     1      51.094   2.850  17.398  0.00  0.00    +0.000 A 
ATOM     29  O   UNL     1      50.154   3.541  17.014  0.00  0.00    +0.000 OA
ATOM     30  C   UNL     1      52.249   3.363  18.111  0.00  0.00    +0.000 A 
ATOM     31  H   UNL     1      50.316   1.098  16.715  0.00  0.00    +0.000 HD
ENDBRANCH  18  21
ENDBRANCH   2  17
TORSDOF 6
ENDMDL
MODEL 8
REMARK VINA RESULT:    -5.630      3.654      7.472
REMARK INTER + INTRA:          -8.822
REMARK INTER:                  -7.678
REMARK INTRA:                  -1.144
REMARK UNBOUND:                -1.217
REMARK  Name = 
REMARK  7 active torsions:
REMARK  status: ('A' for Active; 'I' for Inactive)
REMARK    1  A    between atoms: C_1  and  C_2
REMARK    2  A    between atoms: C_2  and  N_3
REMARK    3  A    between atoms: C_2  and  C_16
REMARK    4  A    between atoms: C_4  and  C_6
REMARK    5  A    between atoms: C_19  and  O_20
REMARK    6  A    between atoms: O_20  and  C_21
REMARK    7  A    between atoms: C_21  and  C_22
REMARK                            x       y       z     vdW  Elec       q    Type
REMARK                         _______ _______ _______ _____ _____    ______ ____
ROOT
ATOM      1  C   UNL     1      48.479  10.371  13.085  0.00  0.00    +0.000 C 
ATOM      2  C   UNL     1      49.057   8.948  13.092  0.00  0.00    +0.000 C 
ENDROOT
BRANCH   2   3
ATOM      3  C   UNL     1      49.453   8.475  14.478  0.00  0.00    +0.000 A 
ATOM      4  C   UNL     1      48.785   8.969  15.611  0.00  0.00    +0.000 A 
ATOM      5  C   UNL     1      49.074   8.465  16.884  0.00  0.00    +0.000 A 
ATOM      6  C   UNL     1      50.029   7.463  17.035  0.00  0.00    +0.000 A 
ATOM      7  C   UNL     1      50.784   7.062  15.935  0.00  0.00    +0.000 A 
ATOM      8  C   UNL     1      50.498   7.562  14.669  0.00  0.00    +0.000 A 
BRANCH   6   9
ATOM      9  O   UNL     1      50.155   6.912  18.285  0.00  0.00    +0.000 OA
BRANCH   9  10
ATOM     10  C   UNL     1      50.425   5.506  18.262  0.00  0.00    +0.000 C 
BRANCH  10  11
ATOM     11  C   UNL     1      49.208   4.756  17.800  0.00  0.00    +0.000 A 
ATOM     12  C   UNL     1      49.340   3.550  17.103  0.00  0.00    +0.000 A 
ATOM     13  C   UNL     1      48.190   2.878  16.722  0.00  0.00    +0.000 A 
ATOM     14  N   UNL     1      46.944   3.314  16.990  0.00  0.00    +0.000 NA
ATOM     15  C   UNL     1      46.839   4.483  17.661  0.00  0.00    +0.000 A 
ATOM     16  C   UNL     1      47.926   5.228  18.085  0.00  0.00    +0.000 A 
ENDBRANCH  10  11
ENDBRANCH   9  10
ENDBRANCH   6   9
ENDBRANCH   2   3
BRANCH   2  17
ATOM     17  N   UNL     1      48.108   8.015  12.528  0.00  0.00    +0.000 N 
ATOM     18  C   UNL     1      46.775   8.058  12.833  0.00  0.00    +0.000 C 
ATOM     19  O   UNL     1      46.272   8.977  13.473  0.00  0.00    +0.000 OA
ATOM     20  H   UNL     1      48.498   7.167  12.133  0.00  0.00    +0.000 HD
BRANCH  18  21
ATOM     21  C   UNL     1      45.964   6.951  12.321  0.00  0.00    +0.000 A 
ATOM     22  C   UNL     1      44.918   7.205  11.445  0.00  0.00    +0.000 A 
ATOM     23  S   UNL     1      44.056   5.804  10.996  0.00  0.00    +0.000 S 
ATOM     24  C   UNL     1      45.025   4.819  11.992  0.00  0.00    +0.000 A 
ATOM     25  N   UNL     1      44.772   3.490  12.121  0.00  0.00    +0.000 NA
ATOM     26  C   UNL     1      45.561   2.876  12.939  0.00  0.00    +0.000 A 
ATOM     27  N   UNL     1      46.596   3.463  13.620  0.00  0.00    +0.000 N 
ATOM     28  C   UNL     1      46.927   4.790  13.475  0.00  0.00    +0.000 A 
ATOM     29  O   UNL     1      47.924   5.262  14.015  0.00  0.00    +0.000 OA
ATOM     30  C   UNL     1      46.030   5.539  12.615  0.00  0.00    +0.000 A 
ATOM     31  H   UNL     1      47.199   2.913  14.213  0.00  0.00    +0.000 HD
ENDBRANCH  18  21
ENDBRANCH   2  17
TORSDOF 6
ENDMDL
