MODEL 1
REMARK VINA RESULT:    -8.110      0.000      0.000
REMARK INTER + INTRA:         -13.082
REMARK INTER:                 -11.903
REMARK INTRA:                  -1.178
REMARK UNBOUND:                -1.178
REMARK  Name = 
REMARK  10 active torsions:
REMARK  status: ('A' for Active; 'I' for Inactive)
REMARK    1  A    between atoms: C_1  and  O_2
REMARK    2  A    between atoms: O_2  and  C_3
REMARK    3  A    between atoms: C_10  and  C_11
REMARK    4  A    between atoms: N_13  and  C_14
REMARK    5  A    between atoms: C_14  and  C_15
REMARK    6  A    between atoms: C_18  and  C_19
REMARK    7  A    between atoms: C_19  and  N_20
REMARK    8  A    between atoms: N_20  and  C_21
REMARK    9  A    between atoms: C_21  and  C_22
REMARK   10  A    between atoms: C_21  and  C_23
REMARK                            x       y       z     vdW  Elec       q    Type
REMARK                         _______ _______ _______ _____ _____    ______ ____
ROOT
ATOM      1  C   UNL     1      47.089   6.341  12.969  0.00  0.00    +0.000 A 
ATOM      2  C   UNL     1      46.906   6.849  11.675  0.00  0.00    +0.000 A 
ATOM      3  C   UNL     1      45.720   6.603  10.976  0.00  0.00    +0.000 A 
ATOM      4  C   UNL     1      44.686   5.849  11.553  0.00  0.00    +0.000 A 
ATOM      5  C   UNL     1      44.855   5.380  12.862  0.00  0.00    +0.000 A 
ATOM      6  C   UNL     1      46.041   5.627  13.563  0.00  0.00    +0.000 A 
ENDROOT
BRANCH   1   7
ATOM      7  C   UNL     1      48.375   6.588  13.719  0.00  0.00    +0.000 C 
BRANCH   7  10
ATOM      8  C   UNL     1      49.115   6.722  16.063  0.00  0.00    +0.000 C 
ATOM      9  O   UNL     1      50.274   6.464  15.748  0.00  0.00    +0.000 OA
ATOM     10  N   UNL     1      48.124   6.794  15.123  0.00  0.00    +0.000 N 
ATOM     11  H   UNL     1      47.169   6.962  15.405  0.00  0.00    +0.000 HD
BRANCH   8  19
ATOM     12  C   UNL     1      48.936   4.708  18.851  0.00  0.00    +0.000 A 
ATOM     13  N   UNL     1      48.782   4.160  20.073  0.00  0.00    +0.000 NA
ATOM     14  C   UNL     1      48.355   4.949  21.063  0.00  0.00    +0.000 A 
ATOM     15  N   UNL     1      48.059   6.243  20.987  0.00  0.00    +0.000 NA
ATOM     16  C   UNL     1      48.236   6.751  19.755  0.00  0.00    +0.000 A 
ATOM     17  S   UNL     1      47.907   8.392  19.472  0.00  0.00    +0.000 S 
ATOM     18  C   UNL     1      48.335   8.246  17.834  0.00  0.00    +0.000 A 
ATOM     19  C   UNL     1      48.735   6.966  17.467  0.00  0.00    +0.000 A 
ATOM     20  C   UNL     1      48.675   6.071  18.622  0.00  0.00    +0.000 A 
BRANCH  12  22
ATOM     21  C   UNL     1      48.448   2.946  17.389  0.00  0.00    +0.000 C 
ATOM     22  O   UNL     1      49.406   3.904  17.835  0.00  0.00    +0.000 OA
ENDBRANCH  12  22
ENDBRANCH   8  19
ENDBRANCH   7  10
ENDBRANCH   1   7
BRANCH   4  23
ATOM     23  C   UNL     1      43.408   5.574  10.785  0.00  0.00    +0.000 C 
BRANCH  23  24
ATOM     24  N   UNL     1      43.629   4.595   9.720  0.00  0.00    +0.000 NA
ATOM     25  H   UNL     1      44.041   5.083   8.923  0.00  0.00    +0.000 HD
BRANCH  24  26
ATOM     26  C   UNL     1      44.529   3.495  10.097  0.00  0.00    +0.000 C 
ATOM     27  C   UNL     1      43.786   2.289  10.688  0.00  0.00    +0.000 C 
BRANCH  26  28
ATOM     28  C   UNL     1      45.330   3.054   8.876  0.00  0.00    +0.000 A 
ATOM     29  C   UNL     1      45.718   3.976   7.887  0.00  0.00    +0.000 A 
ATOM     30  C   UNL     1      46.463   3.573   6.774  0.00  0.00    +0.000 A 
ATOM     31  C   UNL     1      46.832   2.237   6.633  0.00  0.00    +0.000 A 
ATOM     32  C   UNL     1      46.448   1.319   7.605  0.00  0.00    +0.000 A 
ATOM     33  F   UNL     1      46.802   0.034   7.471  0.00  0.00    +0.000 F 
ATOM     34  C   UNL     1      45.704   1.711   8.717  0.00  0.00    +0.000 A 
ENDBRANCH  26  28
ENDBRANCH  24  26
ENDBRANCH  23  24
ENDBRANCH   4  23
TORSDOF 8
ENDMDL
MODEL 2
REMARK VINA RESULT:    -7.815      1.585      2.069
REMARK INTER + INTRA:         -12.648
REMARK INTER:                 -11.644
REMARK INTRA:                  -1.004
REMARK UNBOUND:                -1.178
REMARK  Name = 
REMARK  10 active torsions:
REMARK  status: ('A' for Active; 'I' for Inactive)
REMARK    1  A    between atoms: C_1  and  O_2
REMARK    2  A    between atoms: O_2  and  C_3
REMARK    3  A    between atoms: C_10  and  C_11
REMARK    4  A    between atoms: N_13  and  C_14
REMARK    5  A    between atoms: C_14  and  C_15
REMARK    6  A    between atoms: C_18  and  C_19
REMARK    7  A    between atoms: C_19  and  N_20
REMARK    8  A    between atoms: N_20  and  C_21
REMARK    9  A    between atoms: C_21  and  C_22
REMARK   10  A    between atoms: C_21  and  C_23
REMARK                            x       y       z     vdW  Elec       q    Type
REMARK                         _______ _______ _______ _____ _____    ______ ____
ROOT
ATOM      1  C   UNL     1      46.562   7.627  12.563  0.00  0.00    +0.000 A 
ATOM      2  C   UNL     1      46.893   6.310  12.214  0.00  0.00    +0.000 A 
ATOM      3  C   UNL     1      45.979   5.506  11.523  0.00  0.00    +0.000 A 
ATOM      4  C   UNL     1      44.716   6.000  11.160  0.00  0.00    +0.000 A 
ATOM      5  C   UNL     1      44.406   7.330  11.472  0.00  0.00    +0.000 A 
ATOM      6  C   UNL     1      45.321   8.135  12.161  0.00  0.00    +0.000 A 
ENDROOT
BRANCH   1   7
ATOM      7  C   UNL     1      47.538   8.490  13.324  0.00  0.00    +0.000 C 
BRANCH   7  10
ATOM      8  C   UNL     1      48.800   7.264  15.045  0.00  0.00    +0.000 C 
ATOM      9  O   UNL     1      49.673   6.958  14.236  0.00  0.00    +0.000 OA
ATOM     10  N   UNL     1      47.716   8.009  14.670  0.00  0.00    +0.000 N 
ATOM     11  H   UNL     1      46.986   8.213  15.337  0.00  0.00    +0.000 HD
BRANCH   8  19
ATOM     12  C   UNL     1      48.233   4.274  16.657  0.00  0.00    +0.000 A 
ATOM     13  N   UNL     1      48.081   3.252  17.522  0.00  0.00    +0.000 NA
ATOM     14  C   UNL     1      48.298   3.491  18.818  0.00  0.00    +0.000 A 
ATOM     15  N   UNL     1      48.657   4.646  19.371  0.00  0.00    +0.000 NA
ATOM     16  C   UNL     1      48.807   5.635  18.473  0.00  0.00    +0.000 A 
ATOM     17  S   UNL     1      49.263   7.182  19.001  0.00  0.00    +0.000 S 
ATOM     18  C   UNL     1      49.229   7.787  17.413  0.00  0.00    +0.000 A 
ATOM     19  C   UNL     1      48.876   6.842  16.457  0.00  0.00    +0.000 A 
ATOM     20  C   UNL     1      48.624   5.552  17.096  0.00  0.00    +0.000 A 
BRANCH  12  22
ATOM     21  C   UNL     1      46.679   4.152  14.910  0.00  0.00    +0.000 C 
ATOM     22  O   UNL     1      48.039   4.021  15.316  0.00  0.00    +0.000 OA
ENDBRANCH  12  22
ENDBRANCH   8  19
ENDBRANCH   7  10
ENDBRANCH   1   7
BRANCH   4  23
ATOM     23  C   UNL     1      43.725   5.120  10.424  0.00  0.00    +0.000 C 
BRANCH  23  24
ATOM     24  N   UNL     1      44.342   4.487   9.258  0.00  0.00    +0.000 NA
ATOM     25  H   UNL     1      45.036   5.133   8.877  0.00  0.00    +0.000 HD
BRANCH  24  26
ATOM     26  C   UNL     1      45.016   3.214   9.555  0.00  0.00    +0.000 C 
ATOM     27  C   UNL     1      44.046   2.113  10.002  0.00  0.00    +0.000 C 
BRANCH  26  28
ATOM     28  C   UNL     1      45.786   2.749   8.323  0.00  0.00    +0.000 A 
ATOM     29  C   UNL     1      46.298   1.441   8.234  0.00  0.00    +0.000 A 
ATOM     30  C   UNL     1      46.993   1.012   7.100  0.00  0.00    +0.000 A 
ATOM     31  C   UNL     1      47.189   1.887   6.034  0.00  0.00    +0.000 A 
ATOM     32  C   UNL     1      46.690   3.182   6.117  0.00  0.00    +0.000 A 
ATOM     33  F   UNL     1      46.878   4.024   5.092  0.00  0.00    +0.000 F 
ATOM     34  C   UNL     1      45.997   3.620   7.244  0.00  0.00    +0.000 A 
ENDBRANCH  26  28
ENDBRANCH  24  26
ENDBRANCH  23  24
ENDBRANCH   4  23
TORSDOF 8
ENDMDL
MODEL 3
REMARK VINA RESULT:    -7.585      2.338      2.912
REMARK INTER + INTRA:         -12.310
REMARK INTER:                 -11.260
REMARK INTRA:                  -1.050
REMARK UNBOUND:                -1.178
REMARK  Name = 
REMARK  10 active torsions:
REMARK  status: ('A' for Active; 'I' for Inactive)
REMARK    1  A    between atoms: C_1  and  O_2
REMARK    2  A    between atoms: O_2  and  C_3
REMARK    3  A    between atoms: C_10  and  C_11
REMARK    4  A    between atoms: N_13  and  C_14
REMARK    5  A    between atoms: C_14  and  C_15
REMARK    6  A    between atoms: C_18  and  C_19
REMARK    7  A    between atoms: C_19  and  N_20
REMARK    8  A    between atoms: N_20  and  C_21
REMARK    9  A    between atoms: C_21  and  C_22
REMARK   10  A    between atoms: C_21  and  C_23
REMARK                            x       y       z     vdW  Elec       q    Type
REMARK                         _______ _______ _______ _____ _____    ______ ____
ROOT
ATOM      1  C   UNL     1      46.915   6.714  13.452  0.00  0.00    +0.000 A 
ATOM      2  C   UNL     1      45.807   7.005  12.644  0.00  0.00    +0.000 A 
ATOM      3  C   UNL     1      45.011   5.975  12.131  0.00  0.00    +0.000 A 
ATOM      4  C   UNL     1      45.298   4.631  12.418  0.00  0.00    +0.000 A 
ATOM      5  C   UNL     1      46.379   4.347  13.262  0.00  0.00    +0.000 A 
ATOM      6  C   UNL     1      47.175   5.377  13.777  0.00  0.00    +0.000 A 
ENDROOT
BRANCH   1   7
ATOM      7  C   UNL     1      47.787   7.821  13.992  0.00  0.00    +0.000 C 
BRANCH   7  10
ATOM      8  C   UNL     1      49.423   7.392  15.781  0.00  0.00    +0.000 C 
ATOM      9  O   UNL     1      48.702   7.933  16.617  0.00  0.00    +0.000 OA
ATOM     10  N   UNL     1      49.044   7.304  14.470  0.00  0.00    +0.000 N 
ATOM     11  H   UNL     1      49.668   6.897  13.788  0.00  0.00    +0.000 HD
BRANCH   8  19
ATOM     12  C   UNL     1      50.353   4.650  17.645  0.00  0.00    +0.000 A 
ATOM     13  N   UNL     1      50.983   3.661  18.310  0.00  0.00    +0.000 NA
ATOM     14  C   UNL     1      52.319   3.654  18.302  0.00  0.00    +0.000 A 
ATOM     15  N   UNL     1      53.123   4.526  17.701  0.00  0.00    +0.000 NA
ATOM     16  C   UNL     1      52.454   5.489  17.043  0.00  0.00    +0.000 A 
ATOM     17  S   UNL     1      53.320   6.691  16.215  0.00  0.00    +0.000 S 
ATOM     18  C   UNL     1      51.884   7.446  15.709  0.00  0.00    +0.000 A 
ATOM     19  C   UNL     1      50.728   6.812  16.150  0.00  0.00    +0.000 A 
ATOM     20  C   UNL     1      51.073   5.638  16.949  0.00  0.00    +0.000 A 
BRANCH  12  22
ATOM     21  C   UNL     1      48.395   4.651  18.928  0.00  0.00    +0.000 C 
ATOM     22  O   UNL     1      48.975   4.642  17.626  0.00  0.00    +0.000 OA
ENDBRANCH  12  22
ENDBRANCH   8  19
ENDBRANCH   7  10
ENDBRANCH   1   7
BRANCH   4  23
ATOM     23  C   UNL     1      44.440   3.519  11.849  0.00  0.00    +0.000 C 
BRANCH  23  24
ATOM     24  N   UNL     1      45.135   2.810  10.773  0.00  0.00    +0.000 NA
ATOM     25  H   UNL     1      45.163   1.818  11.015  0.00  0.00    +0.000 HD
BRANCH  24  26
ATOM     26  C   UNL     1      44.492   2.941   9.457  0.00  0.00    +0.000 C 
ATOM     27  C   UNL     1      43.984   4.362   9.178  0.00  0.00    +0.000 C 
BRANCH  26  28
ATOM     28  C   UNL     1      45.476   2.526   8.368  0.00  0.00    +0.000 A 
ATOM     29  C   UNL     1      46.100   1.264   8.392  0.00  0.00    +0.000 A 
ATOM     30  C   UNL     1      46.992   0.881   7.386  0.00  0.00    +0.000 A 
ATOM     31  C   UNL     1      47.277   1.755   6.340  0.00  0.00    +0.000 A 
ATOM     32  C   UNL     1      46.667   3.005   6.313  0.00  0.00    +0.000 A 
ATOM     33  F   UNL     1      46.940   3.846   5.307  0.00  0.00    +0.000 F 
ATOM     34  C   UNL     1      45.777   3.397   7.311  0.00  0.00    +0.000 A 
ENDBRANCH  26  28
ENDBRANCH  24  26
ENDBRANCH  23  24
ENDBRANCH   4  23
TORSDOF 8
ENDMDL
MODEL 4
REMARK VINA RESULT:    -7.318      3.790      8.471
REMARK INTER + INTRA:         -11.919
REMARK INTER:                  -9.997
REMARK INTRA:                  -1.922
REMARK UNBOUND:                -1.178
REMARK  Name = 
REMARK  10 active torsions:
REMARK  status: ('A' for Active; 'I' for Inactive)
REMARK    1  A    between atoms: C_1  and  O_2
REMARK    2  A    between atoms: O_2  and  C_3
REMARK    3  A    between atoms: C_10  and  C_11
REMARK    4  A    between atoms: N_13  and  C_14
REMARK    5  A    between atoms: C_14  and  C_15
REMARK    6  A    between atoms: C_18  and  C_19
REMARK    7  A    between atoms: C_19  and  N_20
REMARK    8  A    between atoms: N_20  and  C_21
REMARK    9  A    between atoms: C_21  and  C_22
REMARK   10  A    between atoms: C_21  and  C_23
REMARK                            x       y       z     vdW  Elec       q    Type
REMARK                         _______ _______ _______ _____ _____    ______ ____
ROOT
ATOM      1  C   UNL     1      48.502   7.966  13.320  0.00  0.00    +0.000 A 
ATOM      2  C   UNL     1      49.221   6.953  13.969  0.00  0.00    +0.000 A 
ATOM      3  C   UNL     1      49.331   6.941  15.364  0.00  0.00    +0.000 A 
ATOM      4  C   UNL     1      48.720   7.936  16.143  0.00  0.00    +0.000 A 
ATOM      5  C   UNL     1      47.965   8.921  15.494  0.00  0.00    +0.000 A 
ATOM      6  C   UNL     1      47.853   8.932  14.098  0.00  0.00    +0.000 A 
ENDROOT
BRANCH   1   7
ATOM      7  C   UNL     1      48.396   7.992  11.814  0.00  0.00    +0.000 C 
BRANCH   7  10
ATOM      8  C   UNL     1      46.264   6.908  11.233  0.00  0.00    +0.000 C 
ATOM      9  O   UNL     1      45.627   7.902  11.574  0.00  0.00    +0.000 OA
ATOM     10  N   UNL     1      47.628   6.875  11.328  0.00  0.00    +0.000 N 
ATOM     11  H   UNL     1      48.133   6.034  11.087  0.00  0.00    +0.000 HD
BRANCH   8  19
ATOM     12  C   UNL     1      44.470   4.363  12.704  0.00  0.00    +0.000 A 
ATOM     13  N   UNL     1      43.745   3.269  13.012  0.00  0.00    +0.000 NA
ATOM     14  C   UNL     1      43.397   2.449  12.017  0.00  0.00    +0.000 A 
ATOM     15  N   UNL     1      43.686   2.586  10.726  0.00  0.00    +0.000 NA
ATOM     16  C   UNL     1      44.401   3.693  10.462  0.00  0.00    +0.000 A 
ATOM     17  S   UNL     1      44.860   4.030   8.863  0.00  0.00    +0.000 S 
ATOM     18  C   UNL     1      45.656   5.454   9.341  0.00  0.00    +0.000 A 
ATOM     19  C   UNL     1      45.593   5.705  10.706  0.00  0.00    +0.000 A 
ATOM     20  C   UNL     1      44.838   4.647  11.377  0.00  0.00    +0.000 A 
BRANCH  12  22
ATOM     21  C   UNL     1      46.124   5.025  14.223  0.00  0.00    +0.000 C 
ATOM     22  O   UNL     1      44.804   5.227  13.725  0.00  0.00    +0.000 OA
ENDBRANCH  12  22
ENDBRANCH   8  19
ENDBRANCH   7  10
ENDBRANCH   1   7
BRANCH   4  23
ATOM     23  C   UNL     1      48.853   7.925  17.653  0.00  0.00    +0.000 C 
BRANCH  23  24
ATOM     24  N   UNL     1      47.937   6.959  18.260  0.00  0.00    +0.000 NA
ATOM     25  H   UNL     1      47.430   6.489  17.509  0.00  0.00    +0.000 HD
BRANCH  24  26
ATOM     26  C   UNL     1      48.604   5.931  19.073  0.00  0.00    +0.000 C 
ATOM     27  C   UNL     1      47.869   5.637  20.388  0.00  0.00    +0.000 C 
BRANCH  26  28
ATOM     28  C   UNL     1      48.735   4.647  18.261  0.00  0.00    +0.000 A 
ATOM     29  C   UNL     1      47.647   4.131  17.532  0.00  0.00    +0.000 A 
ATOM     30  C   UNL     1      47.772   2.960  16.778  0.00  0.00    +0.000 A 
ATOM     31  C   UNL     1      48.990   2.285  16.742  0.00  0.00    +0.000 A 
ATOM     32  C   UNL     1      50.068   2.787  17.463  0.00  0.00    +0.000 A 
ATOM     33  F   UNL     1      51.239   2.139  17.428  0.00  0.00    +0.000 F 
ATOM     34  C   UNL     1      49.953   3.952  18.218  0.00  0.00    +0.000 A 
ENDBRANCH  26  28
ENDBRANCH  24  26
ENDBRANCH  23  24
ENDBRANCH   4  23
TORSDOF 8
ENDMDL
MODEL 5
REMARK VINA RESULT:    -7.256      2.022      2.642
REMARK INTER + INTRA:         -11.828
REMARK INTER:                 -10.750
REMARK INTRA:                  -1.078
REMARK UNBOUND:                -1.178
REMARK  Name = 
REMARK  10 active torsions:
REMARK  status: ('A' for Active; 'I' for Inactive)
REMARK    1  A    between atoms: C_1  and  O_2
REMARK    2  A    between atoms: O_2  and  C_3
REMARK    3  A    between atoms: C_10  and  C_11
REMARK    4  A    between atoms: N_13  and  C_14
REMARK    5  A    between atoms: C_14  and  C_15
REMARK    6  A    between atoms: C_18  and  C_19
REMARK    7  A    between atoms: C_19  and  N_20
REMARK    8  A    between atoms: N_20  and  C_21
REMARK    9  A    between atoms: C_21  and  C_22
REMARK   10  A    between atoms: C_21  and  C_23
REMARK                            x       y       z     vdW  Elec       q    Type
REMARK                         _______ _______ _______ _____ _____    ______ ____
ROOT
ATOM      1  C   UNL     1      47.392   6.379  13.370  0.00  0.00    +0.000 A 
ATOM      2  C   UNL     1      46.540   6.860  12.366  0.00  0.00    +0.000 A 
ATOM      3  C   UNL     1      45.532   6.045  11.839  0.00  0.00    +0.000 A 
ATOM      4  C   UNL     1      45.347   4.734  12.305  0.00  0.00    +0.000 A 
ATOM      5  C   UNL     1      46.172   4.273  13.339  0.00  0.00    +0.000 A 
ATOM      6  C   UNL     1      47.180   5.088  13.868  0.00  0.00    +0.000 A 
ENDROOT
BRANCH   1   7
ATOM      7  C   UNL     1      48.492   7.248  13.928  0.00  0.00    +0.000 C 
BRANCH   7  10
ATOM      8  C   UNL     1      50.098   7.042  15.782  0.00  0.00    +0.000 C 
ATOM      9  O   UNL     1      50.984   7.577  15.120  0.00  0.00    +0.000 OA
ATOM     10  N   UNL     1      48.849   6.840  15.263  0.00  0.00    +0.000 N 
ATOM     11  H   UNL     1      48.147   6.358  15.804  0.00  0.00    +0.000 HD
BRANCH   8  19
ATOM     12  C   UNL     1      49.955   8.617  18.841  0.00  0.00    +0.000 A 
ATOM     13  N   UNL     1      49.975   8.977  20.140  0.00  0.00    +0.000 NA
ATOM     14  C   UNL     1      50.311   8.050  21.041  0.00  0.00    +0.000 A 
ATOM     15  N   UNL     1      50.635   6.782  20.805  0.00  0.00    +0.000 NA
ATOM     16  C   UNL     1      50.594   6.463  19.500  0.00  0.00    +0.000 A 
ATOM     17  S   UNL     1      50.979   4.884  19.013  0.00  0.00    +0.000 S 
ATOM     18  C   UNL     1      50.719   5.272  17.379  0.00  0.00    +0.000 A 
ATOM     19  C   UNL     1      50.337   6.592  17.167  0.00  0.00    +0.000 A 
ATOM     20  C   UNL     1      50.263   7.304  18.441  0.00  0.00    +0.000 A 
BRANCH  12  22
ATOM     21  C   UNL     1      48.173   9.598  17.684  0.00  0.00    +0.000 C 
ATOM     22  O   UNL     1      49.579   9.563  17.912  0.00  0.00    +0.000 OA
ENDBRANCH  12  22
ENDBRANCH   8  19
ENDBRANCH   7  10
ENDBRANCH   1   7
BRANCH   4  23
ATOM     23  C   UNL     1      44.262   3.852  11.721  0.00  0.00    +0.000 C 
BRANCH  23  24
ATOM     24  N   UNL     1      44.822   2.864  10.798  0.00  0.00    +0.000 NA
ATOM     25  H   UNL     1      44.524   1.937  11.108  0.00  0.00    +0.000 HD
BRANCH  24  26
ATOM     26  C   UNL     1      44.393   3.039   9.402  0.00  0.00    +0.000 C 
ATOM     27  C   UNL     1      44.064   4.497   9.055  0.00  0.00    +0.000 C 
BRANCH  26  28
ATOM     28  C   UNL     1      45.483   2.523   8.468  0.00  0.00    +0.000 A 
ATOM     29  C   UNL     1      46.236   3.404   7.670  0.00  0.00    +0.000 A 
ATOM     30  C   UNL     1      47.243   2.931   6.823  0.00  0.00    +0.000 A 
ATOM     31  C   UNL     1      47.513   1.566   6.761  0.00  0.00    +0.000 A 
ATOM     32  C   UNL     1      46.770   0.689   7.545  0.00  0.00    +0.000 A 
ATOM     33  F   UNL     1      47.030  -0.623   7.486  0.00  0.00    +0.000 F 
ATOM     34  C   UNL     1      45.764   1.151   8.391  0.00  0.00    +0.000 A 
ENDBRANCH  26  28
ENDBRANCH  24  26
ENDBRANCH  23  24
ENDBRANCH   4  23
TORSDOF 8
ENDMDL
MODEL 6
REMARK VINA RESULT:    -7.094      3.829      8.510
REMARK INTER + INTRA:         -11.590
REMARK INTER:                  -9.538
REMARK INTRA:                  -2.052
REMARK UNBOUND:                -1.178
REMARK  Name = 
REMARK  10 active torsions:
REMARK  status: ('A' for Active; 'I' for Inactive)
REMARK    1  A    between atoms: C_1  and  O_2
REMARK    2  A    between atoms: O_2  and  C_3
REMARK    3  A    between atoms: C_10  and  C_11
REMARK    4  A    between atoms: N_13  and  C_14
REMARK    5  A    between atoms: C_14  and  C_15
REMARK    6  A    between atoms: C_18  and  C_19
REMARK    7  A    between atoms: C_19  and  N_20
REMARK    8  A    between atoms: N_20  and  C_21
REMARK    9  A    between atoms: C_21  and  C_22
REMARK   10  A    between atoms: C_21  and  C_23
REMARK                            x       y       z     vdW  Elec       q    Type
REMARK                         _______ _______ _______ _____ _____    ______ ____
ROOT
ATOM      1  C   UNL     1      48.294   8.555  15.360  0.00  0.00    +0.000 A 
ATOM      2  C   UNL     1      47.939   9.342  16.464  0.00  0.00    +0.000 A 
ATOM      3  C   UNL     1      48.269   8.938  17.762  0.00  0.00    +0.000 A 
ATOM      4  C   UNL     1      48.967   7.741  17.988  0.00  0.00    +0.000 A 
ATOM      5  C   UNL     1      49.359   6.979  16.880  0.00  0.00    +0.000 A 
ATOM      6  C   UNL     1      49.030   7.384  15.581  0.00  0.00    +0.000 A 
ENDROOT
BRANCH   1   7
ATOM      7  C   UNL     1      47.924   8.979  13.960  0.00  0.00    +0.000 C 
BRANCH   7  10
ATOM      8  C   UNL     1      46.788   7.333  12.525  0.00  0.00    +0.000 C 
ATOM      9  O   UNL     1      47.845   7.028  11.978  0.00  0.00    +0.000 OA
ATOM     10  N   UNL     1      46.745   8.288  13.503  0.00  0.00    +0.000 N 
ATOM     11  H   UNL     1      45.862   8.558  13.910  0.00  0.00    +0.000 HD
BRANCH   8  19
ATOM     12  C   UNL     1      45.620   4.102  12.756  0.00  0.00    +0.000 A 
ATOM     13  N   UNL     1      44.926   2.946  12.728  0.00  0.00    +0.000 NA
ATOM     14  C   UNL     1      43.694   2.968  12.213  0.00  0.00    +0.000 A 
ATOM     15  N   UNL     1      43.052   4.020  11.712  0.00  0.00    +0.000 NA
ATOM     16  C   UNL     1      43.776   5.152  11.768  0.00  0.00    +0.000 A 
ATOM     17  S   UNL     1      43.113   6.597  11.173  0.00  0.00    +0.000 S 
ATOM     18  C   UNL     1      44.522   7.462  11.568  0.00  0.00    +0.000 A 
ATOM     19  C   UNL     1      45.515   6.686  12.155  0.00  0.00    +0.000 A 
ATOM     20  C   UNL     1      45.064   5.300  12.273  0.00  0.00    +0.000 A 
BRANCH  12  22
ATOM     21  C   UNL     1      46.886   4.449  14.694  0.00  0.00    +0.000 C 
ATOM     22  O   UNL     1      46.879   4.088  13.315  0.00  0.00    +0.000 OA
ENDBRANCH  12  22
ENDBRANCH   8  19
ENDBRANCH   7  10
ENDBRANCH   1   7
BRANCH   4  23
ATOM     23  C   UNL     1      49.309   7.301  19.398  0.00  0.00    +0.000 C 
BRANCH  23  24
ATOM     24  N   UNL     1      50.463   6.400  19.406  0.00  0.00    +0.000 NA
ATOM     25  H   UNL     1      51.206   6.843  19.950  0.00  0.00    +0.000 HD
BRANCH  24  26
ATOM     26  C   UNL     1      50.188   5.082  19.997  0.00  0.00    +0.000 C 
ATOM     27  C   UNL     1      49.115   5.129  21.093  0.00  0.00    +0.000 C 
BRANCH  26  28
ATOM     28  C   UNL     1      49.758   4.114  18.899  0.00  0.00    +0.000 A 
ATOM     29  C   UNL     1      50.697   3.550  18.016  0.00  0.00    +0.000 A 
ATOM     30  C   UNL     1      50.303   2.653  17.018  0.00  0.00    +0.000 A 
ATOM     31  C   UNL     1      48.960   2.306  16.887  0.00  0.00    +0.000 A 
ATOM     32  C   UNL     1      48.026   2.864  17.755  0.00  0.00    +0.000 A 
ATOM     33  F   UNL     1      46.735   2.531  17.630  0.00  0.00    +0.000 F 
ATOM     34  C   UNL     1      48.409   3.759  18.752  0.00  0.00    +0.000 A 
ENDBRANCH  26  28
ENDBRANCH  24  26
ENDBRANCH  23  24
ENDBRANCH   4  23
TORSDOF 8
ENDMDL
MODEL 7
REMARK VINA RESULT:    -7.015      4.662      6.801
REMARK INTER + INTRA:         -11.474
REMARK INTER:                 -10.205
REMARK INTRA:                  -1.269
REMARK UNBOUND:                -1.178
REMARK  Name = 
REMARK  10 active torsions:
REMARK  status: ('A' for Active; 'I' for Inactive)
REMARK    1  A    between atoms: C_1  and  O_2
REMARK    2  A    between atoms: O_2  and  C_3
REMARK    3  A    between atoms: C_10  and  C_11
REMARK    4  A    between atoms: N_13  and  C_14
REMARK    5  A    between atoms: C_14  and  C_15
REMARK    6  A    between atoms: C_18  and  C_19
REMARK    7  A    between atoms: C_19  and  N_20
REMARK    8  A    between atoms: N_20  and  C_21
REMARK    9  A    between atoms: C_21  and  C_22
REMARK   10  A    between atoms: C_21  and  C_23
REMARK                            x       y       z     vdW  Elec       q    Type
REMARK                         _______ _______ _______ _____ _____    ______ ____
ROOT
ATOM      1  C   UNL     1      48.336   6.735  13.288  0.00  0.00    +0.000 A 
ATOM      2  C   UNL     1      47.620   6.884  12.092  0.00  0.00    +0.000 A 
ATOM      3  C   UNL     1      46.487   6.103  11.838  0.00  0.00    +0.000 A 
ATOM      4  C   UNL     1      46.039   5.159  12.776  0.00  0.00    +0.000 A 
ATOM      5  C   UNL     1      46.730   5.044  13.988  0.00  0.00    +0.000 A 
ATOM      6  C   UNL     1      47.863   5.826  14.243  0.00  0.00    +0.000 A 
ENDROOT
BRANCH   1   7
ATOM      7  C   UNL     1      49.569   7.562  13.556  0.00  0.00    +0.000 C 
BRANCH   7  10
ATOM      8  C   UNL     1      51.164   8.970  12.318  0.00  0.00    +0.000 C 
ATOM      9  O   UNL     1      51.878   9.093  13.311  0.00  0.00    +0.000 OA
ATOM     10  N   UNL     1      50.009   8.239  12.363  0.00  0.00    +0.000 N 
ATOM     11  H   UNL     1      49.411   8.185  11.551  0.00  0.00    +0.000 HD
BRANCH   8  19
ATOM     12  C   UNL     1      53.210   8.050   9.706  0.00  0.00    +0.000 A 
ATOM     13  N   UNL     1      53.925   7.937   8.569  0.00  0.00    +0.000 NA
ATOM     14  C   UNL     1      53.851   8.933   7.682  0.00  0.00    +0.000 A 
ATOM     15  N   UNL     1      53.136  10.049   7.787  0.00  0.00    +0.000 NA
ATOM     16  C   UNL     1      52.431  10.116   8.930  0.00  0.00    +0.000 A 
ATOM     17  S   UNL     1      51.459  11.474   9.234  0.00  0.00    +0.000 S 
ATOM     18  C   UNL     1      50.963  10.844  10.732  0.00  0.00    +0.000 A 
ATOM     19  C   UNL     1      51.515   9.604  11.033  0.00  0.00    +0.000 A 
ATOM     20  C   UNL     1      52.395   9.170   9.950  0.00  0.00    +0.000 A 
BRANCH  12  22
ATOM     21  C   UNL     1      54.518   6.337  10.621  0.00  0.00    +0.000 C 
ATOM     22  O   UNL     1      53.261   7.010  10.609  0.00  0.00    +0.000 OA
ENDBRANCH  12  22
ENDBRANCH   8  19
ENDBRANCH   7  10
ENDBRANCH   1   7
BRANCH   4  23
ATOM     23  C   UNL     1      44.818   4.306  12.490  0.00  0.00    +0.000 C 
BRANCH  23  24
ATOM     24  N   UNL     1      45.137   3.216  11.567  0.00  0.00    +0.000 NA
ATOM     25  H   UNL     1      44.964   2.333  12.049  0.00  0.00    +0.000 HD
BRANCH  24  26
ATOM     26  C   UNL     1      44.341   3.227  10.331  0.00  0.00    +0.000 C 
ATOM     27  C   UNL     1      43.559   4.533  10.134  0.00  0.00    +0.000 C 
BRANCH  26  28
ATOM     28  C   UNL     1      45.258   2.994   9.134  0.00  0.00    +0.000 A 
ATOM     29  C   UNL     1      45.727   4.068   8.355  0.00  0.00    +0.000 A 
ATOM     30  C   UNL     1      46.578   3.853   7.266  0.00  0.00    +0.000 A 
ATOM     31  C   UNL     1      46.971   2.558   6.938  0.00  0.00    +0.000 A 
ATOM     32  C   UNL     1      46.507   1.492   7.701  0.00  0.00    +0.000 A 
ATOM     33  F   UNL     1      46.886   0.246   7.387  0.00  0.00    +0.000 F 
ATOM     34  C   UNL     1      45.659   1.695   8.788  0.00  0.00    +0.000 A 
ENDBRANCH  26  28
ENDBRANCH  24  26
ENDBRANCH  23  24
ENDBRANCH   4  23
TORSDOF 8
ENDMDL
MODEL 8
REMARK VINA RESULT:    -6.952      3.678      8.727
REMARK INTER + INTRA:         -11.382
REMARK INTER:                  -8.913
REMARK INTRA:                  -2.469
REMARK UNBOUND:                -1.178
REMARK  Name = 
REMARK  10 active torsions:
REMARK  status: ('A' for Active; 'I' for Inactive)
REMARK    1  A    between atoms: C_1  and  O_2
REMARK    2  A    between atoms: O_2  and  C_3
REMARK    3  A    between atoms: C_10  and  C_11
REMARK    4  A    between atoms: N_13  and  C_14
REMARK    5  A    between atoms: C_14  and  C_15
REMARK    6  A    between atoms: C_18  and  C_19
REMARK    7  A    between atoms: C_19  and  N_20
REMARK    8  A    between atoms: N_20  and  C_21
REMARK    9  A    between atoms: C_21  and  C_22
REMARK   10  A    between atoms: C_21  and  C_23
REMARK                            x       y       z     vdW  Elec       q    Type
REMARK                         _______ _______ _______ _____ _____    ______ ____
ROOT
ATOM      1  C   UNL     1      49.086   8.066  15.996  0.00  0.00    +0.000 A 
ATOM      2  C   UNL     1      48.411   8.605  17.098  0.00  0.00    +0.000 A 
ATOM      3  C   UNL     1      48.774   8.246  18.401  0.00  0.00    +0.000 A 
ATOM      4  C   UNL     1      49.824   7.344  18.633  0.00  0.00    +0.000 A 
ATOM      5  C   UNL     1      50.525   6.841  17.530  0.00  0.00    +0.000 A 
ATOM      6  C   UNL     1      50.163   7.201  16.226  0.00  0.00    +0.000 A 
ENDROOT
BRANCH   1   7
ATOM      7  C   UNL     1      48.685   8.437  14.589  0.00  0.00    +0.000 C 
BRANCH   7  10
ATOM      8  C   UNL     1      47.833   6.501  13.329  0.00  0.00    +0.000 C 
ATOM      9  O   UNL     1      48.968   6.187  12.977  0.00  0.00    +0.000 OA
ATOM     10  N   UNL     1      47.614   7.598  14.116  0.00  0.00    +0.000 N 
ATOM     11  H   UNL     1      46.671   7.867  14.359  0.00  0.00    +0.000 HD
BRANCH   8  19
ATOM     12  C   UNL     1      44.855   7.314  11.803  0.00  0.00    +0.000 A 
ATOM     13  N   UNL     1      43.636   7.352  11.229  0.00  0.00    +0.000 NA
ATOM     14  C   UNL     1      42.954   6.207  11.133  0.00  0.00    +0.000 A 
ATOM     15  N   UNL     1      43.343   5.004  11.543  0.00  0.00    +0.000 NA
ATOM     16  C   UNL     1      44.567   5.010  12.100  0.00  0.00    +0.000 A 
ATOM     17  S   UNL     1      45.227   3.558  12.682  0.00  0.00    +0.000 S 
ATOM     18  C   UNL     1      46.646   4.348  13.182  0.00  0.00    +0.000 A 
ATOM     19  C   UNL     1      46.654   5.713  12.922  0.00  0.00    +0.000 A 
ATOM     20  C   UNL     1      45.405   6.107  12.272  0.00  0.00    +0.000 A 
BRANCH  12  22
ATOM     21  C   UNL     1      44.781   9.609  12.258  0.00  0.00    +0.000 C 
ATOM     22  O   UNL     1      45.574   8.488  11.875  0.00  0.00    +0.000 OA
ENDBRANCH  12  22
ENDBRANCH   8  19
ENDBRANCH   7  10
ENDBRANCH   1   7
BRANCH   4  23
ATOM     23  C   UNL     1      50.204   6.947  20.046  0.00  0.00    +0.000 C 
BRANCH  23  24
ATOM     24  N   UNL     1      50.349   5.496  20.168  0.00  0.00    +0.000 NA
ATOM     25  H   UNL     1      50.919   5.303  20.994  0.00  0.00    +0.000 HD
BRANCH  24  26
ATOM     26  C   UNL     1      49.074   4.778  20.316  0.00  0.00    +0.000 C 
ATOM     27  C   UNL     1      47.963   5.649  20.917  0.00  0.00    +0.000 C 
BRANCH  26  28
ATOM     28  C   UNL     1      48.630   4.247  18.956  0.00  0.00    +0.000 A 
ATOM     29  C   UNL     1      47.479   4.746  18.319  0.00  0.00    +0.000 A 
ATOM     30  C   UNL     1      47.080   4.267  17.068  0.00  0.00    +0.000 A 
ATOM     31  C   UNL     1      47.829   3.279  16.432  0.00  0.00    +0.000 A 
ATOM     32  C   UNL     1      48.965   2.779  17.058  0.00  0.00    +0.000 A 
ATOM     33  F   UNL     1      49.686   1.829  16.447  0.00  0.00    +0.000 F 
ATOM     34  C   UNL     1      49.370   3.249  18.306  0.00  0.00    +0.000 A 
ENDBRANCH  26  28
ENDBRANCH  24  26
ENDBRANCH  23  24
ENDBRANCH   4  23
TORSDOF 8
ENDMDL
MODEL 9
REMARK VINA RESULT:    -6.558      3.771      9.101
REMARK INTER + INTRA:         -10.804
REMARK INTER:                  -9.203
REMARK INTRA:                  -1.601
REMARK UNBOUND:                -1.178
REMARK  Name = 
REMARK  10 active torsions:
REMARK  status: ('A' for Active; 'I' for Inactive)
REMARK    1  A    between atoms: C_1  and  O_2
REMARK    2  A    between atoms: O_2  and  C_3
REMARK    3  A    between atoms: C_10  and  C_11
REMARK    4  A    between atoms: N_13  and  C_14
REMARK    5  A    between atoms: C_14  and  C_15
REMARK    6  A    between atoms: C_18  and  C_19
REMARK    7  A    between atoms: C_19  and  N_20
REMARK    8  A    between atoms: N_20  and  C_21
REMARK    9  A    between atoms: C_21  and  C_22
REMARK   10  A    between atoms: C_21  and  C_23
REMARK                            x       y       z     vdW  Elec       q    Type
REMARK                         _______ _______ _______ _____ _____    ______ ____
ROOT
ATOM      1  C   UNL     1      48.469   7.993  13.050  0.00  0.00    +0.000 A 
ATOM      2  C   UNL     1      49.818   7.646  13.203  0.00  0.00    +0.000 A 
ATOM      3  C   UNL     1      50.470   7.842  14.426  0.00  0.00    +0.000 A 
ATOM      4  C   UNL     1      49.787   8.384  15.526  0.00  0.00    +0.000 A 
ATOM      5  C   UNL     1      48.427   8.688  15.383  0.00  0.00    +0.000 A 
ATOM      6  C   UNL     1      47.775   8.491  14.160  0.00  0.00    +0.000 A 
ENDROOT
BRANCH   1   7
ATOM      7  C   UNL     1      47.769   7.800  11.727  0.00  0.00    +0.000 C 
BRANCH   7  10
ATOM      8  C   UNL     1      45.647   6.581  11.461  0.00  0.00    +0.000 C 
ATOM      9  O   UNL     1      45.039   7.621  11.221  0.00  0.00    +0.000 OA
ATOM     10  N   UNL     1      46.989   6.589  11.725  0.00  0.00    +0.000 N 
ATOM     11  H   UNL     1      47.464   5.730  11.964  0.00  0.00    +0.000 HD
BRANCH   8  19
ATOM     12  C   UNL     1      45.261   4.086   9.119  0.00  0.00    +0.000 A 
ATOM     13  N   UNL     1      44.962   2.979   8.410  0.00  0.00    +0.000 NA
ATOM     14  C   UNL     1      44.224   2.037   9.002  0.00  0.00    +0.000 A 
ATOM     15  N   UNL     1      43.736   2.059  10.239  0.00  0.00    +0.000 NA
ATOM     16  C   UNL     1      44.065   3.175  10.913  0.00  0.00    +0.000 A 
ATOM     17  S   UNL     1      43.529   3.375  12.511  0.00  0.00    +0.000 S 
ATOM     18  C   UNL     1      44.290   4.889  12.628  0.00  0.00    +0.000 A 
ATOM     19  C   UNL     1      44.962   5.274  11.474  0.00  0.00    +0.000 A 
ATOM     20  C   UNL     1      44.826   4.243  10.447  0.00  0.00    +0.000 A 
BRANCH  12  22
ATOM     21  C   UNL     1      46.910   4.518   7.513  0.00  0.00    +0.000 C 
ATOM     22  O   UNL     1      46.049   5.045   8.520  0.00  0.00    +0.000 OA
ENDBRANCH  12  22
ENDBRANCH   8  19
ENDBRANCH   7  10
ENDBRANCH   1   7
BRANCH   4  23
ATOM     23  C   UNL     1      50.501   8.607  16.845  0.00  0.00    +0.000 C 
BRANCH  23  24
ATOM     24  N   UNL     1      50.181   7.551  17.807  0.00  0.00    +0.000 NA
ATOM     25  H   UNL     1      49.233   7.224  17.613  0.00  0.00    +0.000 HD
BRANCH  24  26
ATOM     26  C   UNL     1      51.085   6.394  17.747  0.00  0.00    +0.000 C 
ATOM     27  C   UNL     1      51.922   6.221  19.021  0.00  0.00    +0.000 C 
BRANCH  26  28
ATOM     28  C   UNL     1      50.273   5.128  17.492  0.00  0.00    +0.000 A 
ATOM     29  C   UNL     1      50.857   3.852  17.603  0.00  0.00    +0.000 A 
ATOM     30  C   UNL     1      50.107   2.693  17.381  0.00  0.00    +0.000 A 
ATOM     31  C   UNL     1      48.760   2.791  17.043  0.00  0.00    +0.000 A 
ATOM     32  C   UNL     1      48.178   4.049  16.927  0.00  0.00    +0.000 A 
ATOM     33  F   UNL     1      46.882   4.145  16.603  0.00  0.00    +0.000 F 
ATOM     34  C   UNL     1      48.916   5.211  17.145  0.00  0.00    +0.000 A 
ENDBRANCH  26  28
ENDBRANCH  24  26
ENDBRANCH  23  24
ENDBRANCH   4  23
TORSDOF 8
ENDMDL
