MODEL 1
REMARK VINA RESULT:    -7.799      0.000      0.000
REMARK INTER + INTRA:         -11.308
REMARK INTER:                 -10.535
REMARK INTRA:                  -0.773
REMARK UNBOUND:                -0.773
REMARK  Name = 
REMARK  6 active torsions:
REMARK  status: ('A' for Active; 'I' for Inactive)
REMARK    1  A    between atoms: C_2  and  C_3
REMARK    2  A    between atoms: C_6  and  N_7
REMARK    3  A    between atoms: N_7  and  C_8
REMARK    4  A    between atoms: C_8  and  C_9
REMARK    5  A    between atoms: C_9  and  C_12
REMARK    6  A    between atoms: C_16  and  C_17
REMARK                            x       y       z     vdW  Elec       q    Type
REMARK                         _______ _______ _______ _____ _____    ______ ____
ROOT
ATOM      1  C   UNL     1      43.390   4.830  10.268  0.00  0.00    +0.000 C 
ENDROOT
BRANCH   1   2
ATOM      2  C   UNL     1      43.437   5.590  11.618  0.00  0.00    +0.000 C 
ATOM      3  F   UNL     1      42.852   6.814  11.463  0.00  0.00    +0.000 F 
ATOM      4  F   UNL     1      42.642   4.923  12.511  0.00  0.00    +0.000 F 
BRANCH   2   5
ATOM      5  C   UNL     1      44.869   5.709  12.111  0.00  0.00    +0.000 A 
ATOM      6  C   UNL     1      45.769   6.577  11.474  0.00  0.00    +0.000 A 
ATOM      7  C   UNL     1      47.093   6.677  11.907  0.00  0.00    +0.000 A 
ATOM      8  C   UNL     1      47.534   5.911  12.986  0.00  0.00    +0.000 A 
ATOM      9  C   UNL     1      46.654   5.042  13.636  0.00  0.00    +0.000 A 
ATOM     10  C   UNL     1      45.327   4.939  13.197  0.00  0.00    +0.000 A 
BRANCH   9  11
ATOM     11  C   UNL     1      47.110   4.255  14.747  0.00  0.00    +0.000 C 
ATOM     12  N   UNL     1      47.474   3.615  15.643  0.00  0.00    +0.000 NA
ENDBRANCH   9  11
ENDBRANCH   2   5
ENDBRANCH   1   2
BRANCH   1  13
ATOM     13  N   UNL     1      44.050   3.510  10.297  0.00  0.00    +0.000 N 
ATOM     14  H   UNL     1      44.355   3.208  11.222  0.00  0.00    +0.000 HD
BRANCH  13  18
ATOM     15  C   UNL     1      46.783   2.428   7.267  0.00  0.00    +0.000 A 
ATOM     16  C   UNL     1      46.209   1.439   8.063  0.00  0.00    +0.000 A 
ATOM     17  C   UNL     1      45.284   1.782   9.056  0.00  0.00    +0.000 A 
ATOM     18  C   UNL     1      44.888   3.110   9.257  0.00  0.00    +0.000 A 
ATOM     19  C   UNL     1      45.484   4.094   8.455  0.00  0.00    +0.000 A 
ATOM     20  C   UNL     1      46.421   3.761   7.466  0.00  0.00    +0.000 A 
BRANCH  15  22
ATOM     21  N   UNL     1      48.527   1.798   5.452  0.00  0.00    +0.000 NA
ATOM     22  C   UNL     1      47.750   2.075   6.268  0.00  0.00    +0.000 C 
ENDBRANCH  15  22
ENDBRANCH  13  18
ENDBRANCH   1  13
TORSDOF 6
ENDMDL
MODEL 2
REMARK VINA RESULT:    -7.767      1.837      2.345
REMARK INTER + INTRA:         -11.264
REMARK INTER:                 -10.584
REMARK INTRA:                  -0.679
REMARK UNBOUND:                -0.773
REMARK  Name = 
REMARK  6 active torsions:
REMARK  status: ('A' for Active; 'I' for Inactive)
REMARK    1  A    between atoms: C_2  and  C_3
REMARK    2  A    between atoms: C_6  and  N_7
REMARK    3  A    between atoms: N_7  and  C_8
REMARK    4  A    between atoms: C_8  and  C_9
REMARK    5  A    between atoms: C_9  and  C_12
REMARK    6  A    between atoms: C_16  and  C_17
REMARK                            x       y       z     vdW  Elec       q    Type
REMARK                         _______ _______ _______ _____ _____    ______ ____
ROOT
ATOM      1  C   UNL     1      43.416   3.554  11.556  0.00  0.00    +0.000 C 
ENDROOT
BRANCH   1   2
ATOM      2  C   UNL     1      43.359   4.556  12.738  0.00  0.00    +0.000 C 
ATOM      3  F   UNL     1      42.340   5.440  12.525  0.00  0.00    +0.000 F 
ATOM      4  F   UNL     1      43.006   3.865  13.866  0.00  0.00    +0.000 F 
BRANCH   2   5
ATOM      5  C   UNL     1      44.694   5.264  12.899  0.00  0.00    +0.000 A 
ATOM      6  C   UNL     1      45.818   4.560  13.360  0.00  0.00    +0.000 A 
ATOM      7  C   UNL     1      47.044   5.207  13.532  0.00  0.00    +0.000 A 
ATOM      8  C   UNL     1      47.163   6.566  13.242  0.00  0.00    +0.000 A 
ATOM      9  C   UNL     1      46.057   7.285  12.779  0.00  0.00    +0.000 A 
ATOM     10  C   UNL     1      44.825   6.635  12.613  0.00  0.00    +0.000 A 
BRANCH   9  11
ATOM     11  C   UNL     1      46.181   8.683  12.480  0.00  0.00    +0.000 C 
ATOM     12  N   UNL     1      46.280   9.814  12.245  0.00  0.00    +0.000 NA
ENDBRANCH   9  11
ENDBRANCH   2   5
ENDBRANCH   1   2
BRANCH   1  13
ATOM     13  N   UNL     1      43.677   4.183  10.246  0.00  0.00    +0.000 N 
ATOM     14  H   UNL     1      42.866   4.632   9.821  0.00  0.00    +0.000 HD
BRANCH  13  18
ATOM     15  C   UNL     1      46.524   2.520   7.609  0.00  0.00    +0.000 A 
ATOM     16  C   UNL     1      45.789   1.684   8.447  0.00  0.00    +0.000 A 
ATOM     17  C   UNL     1      44.827   2.221   9.310  0.00  0.00    +0.000 A 
ATOM     18  C   UNL     1      44.552   3.594   9.335  0.00  0.00    +0.000 A 
ATOM     19  C   UNL     1      45.308   4.422   8.493  0.00  0.00    +0.000 A 
ATOM     20  C   UNL     1      46.284   3.895   7.634  0.00  0.00    +0.000 A 
BRANCH  15  22
ATOM     21  N   UNL     1      48.335   1.514   6.048  0.00  0.00    +0.000 NA
ATOM     22  C   UNL     1      47.528   1.970   6.745  0.00  0.00    +0.000 C 
ENDBRANCH  15  22
ENDBRANCH  13  18
ENDBRANCH   1  13
TORSDOF 6
ENDMDL
MODEL 3
REMARK VINA RESULT:    -7.203      2.199      5.865
REMARK INTER + INTRA:         -10.502
REMARK INTER:                  -9.413
REMARK INTRA:                  -1.089
REMARK UNBOUND:                -0.773
REMARK  Name = 
REMARK  6 active torsions:
REMARK  status: ('A' for Active; 'I' for Inactive)
REMARK    1  A    between atoms: C_2  and  C_3
REMARK    2  A    between atoms: C_6  and  N_7
REMARK    3  A    between atoms: N_7  and  C_8
REMARK    4  A    between atoms: C_8  and  C_9
REMARK    5  A    between atoms: C_9  and  C_12
REMARK    6  A    between atoms: C_16  and  C_17
REMARK                            x       y       z     vdW  Elec       q    Type
REMARK                         _______ _______ _______ _____ _____    ______ ____
ROOT
ATOM      1  C   UNL     1      44.591   3.145  12.565  0.00  0.00    +0.000 C 
ENDROOT
BRANCH   1   2
ATOM      2  C   UNL     1      43.742   3.107  11.268  0.00  0.00    +0.000 C 
ATOM      3  F   UNL     1      43.018   1.950  11.242  0.00  0.00    +0.000 F 
ATOM      4  F   UNL     1      42.813   4.110  11.337  0.00  0.00    +0.000 F 
BRANCH   2   5
ATOM      5  C   UNL     1      44.634   3.241  10.045  0.00  0.00    +0.000 A 
ATOM      6  C   UNL     1      44.904   4.506   9.501  0.00  0.00    +0.000 A 
ATOM      7  C   UNL     1      45.707   4.637   8.365  0.00  0.00    +0.000 A 
ATOM      8  C   UNL     1      46.251   3.504   7.760  0.00  0.00    +0.000 A 
ATOM      9  C   UNL     1      45.996   2.235   8.287  0.00  0.00    +0.000 A 
ATOM     10  C   UNL     1      45.187   2.105   9.425  0.00  0.00    +0.000 A 
BRANCH   9  11
ATOM     11  C   UNL     1      46.558   1.071   7.664  0.00  0.00    +0.000 C 
ATOM     12  N   UNL     1      47.012   0.127   7.167  0.00  0.00    +0.000 NA
ENDBRANCH   9  11
ENDBRANCH   2   5
ENDBRANCH   1   2
BRANCH   1  13
ATOM     13  N   UNL     1      44.493   4.415  13.310  0.00  0.00    +0.000 N 
ATOM     14  H   UNL     1      43.540   4.717  13.513  0.00  0.00    +0.000 HD
BRANCH  13  18
ATOM     15  C   UNL     1      47.299   7.423  12.360  0.00  0.00    +0.000 A 
ATOM     16  C   UNL     1      45.938   7.677  12.205  0.00  0.00    +0.000 A 
ATOM     17  C   UNL     1      44.996   6.695  12.537  0.00  0.00    +0.000 A 
ATOM     18  C   UNL     1      45.386   5.456  13.061  0.00  0.00    +0.000 A 
ATOM     19  C   UNL     1      46.760   5.214  13.200  0.00  0.00    +0.000 A 
ATOM     20  C   UNL     1      47.712   6.187  12.858  0.00  0.00    +0.000 A 
BRANCH  15  22
ATOM     21  N   UNL     1      49.047   9.224  11.707  0.00  0.00    +0.000 NA
ATOM     22  C   UNL     1      48.262   8.421  11.994  0.00  0.00    +0.000 C 
ENDBRANCH  15  22
ENDBRANCH  13  18
ENDBRANCH   1  13
TORSDOF 6
ENDMDL
MODEL 4
REMARK VINA RESULT:    -6.076      2.773      6.079
REMARK INTER + INTRA:          -8.980
REMARK INTER:                  -8.221
REMARK INTRA:                  -0.759
REMARK UNBOUND:                -0.773
REMARK  Name = 
REMARK  6 active torsions:
REMARK  status: ('A' for Active; 'I' for Inactive)
REMARK    1  A    between atoms: C_2  and  C_3
REMARK    2  A    between atoms: C_6  and  N_7
REMARK    3  A    between atoms: N_7  and  C_8
REMARK    4  A    between atoms: C_8  and  C_9
REMARK    5  A    between atoms: C_9  and  C_12
REMARK    6  A    between atoms: C_16  and  C_17
REMARK                            x       y       z     vdW  Elec       q    Type
REMARK                         _______ _______ _______ _____ _____    ______ ____
ROOT
ATOM      1  C   UNL     1      44.515   6.008  12.862  0.00  0.00    +0.000 C 
ENDROOT
BRANCH   1   2
ATOM      2  C   UNL     1      43.444   5.693  11.786  0.00  0.00    +0.000 C 
ATOM      3  F   UNL     1      42.256   5.426  12.403  0.00  0.00    +0.000 F 
ATOM      4  F   UNL     1      43.223   6.832  11.059  0.00  0.00    +0.000 F 
BRANCH   2   5
ATOM      5  C   UNL     1      43.896   4.538  10.909  0.00  0.00    +0.000 A 
ATOM      6  C   UNL     1      43.550   3.218  11.241  0.00  0.00    +0.000 A 
ATOM      7  C   UNL     1      43.978   2.148  10.453  0.00  0.00    +0.000 A 
ATOM      8  C   UNL     1      44.756   2.383   9.319  0.00  0.00    +0.000 A 
ATOM      9  C   UNL     1      45.110   3.689   8.969  0.00  0.00    +0.000 A 
ATOM     10  C   UNL     1      44.683   4.762   9.765  0.00  0.00    +0.000 A 
BRANCH   9  11
ATOM     11  C   UNL     1      45.910   3.930   7.802  0.00  0.00    +0.000 C 
ATOM     12  N   UNL     1      46.556   4.118   6.858  0.00  0.00    +0.000 NA
ENDBRANCH   9  11
ENDBRANCH   2   5
ENDBRANCH   1   2
BRANCH   1  13
ATOM     13  N   UNL     1      44.897   7.432  12.932  0.00  0.00    +0.000 N 
ATOM     14  H   UNL     1      44.135   8.086  12.752  0.00  0.00    +0.000 HD
BRANCH  13  18
ATOM     15  C   UNL     1      48.715   8.817  11.777  0.00  0.00    +0.000 A 
ATOM     16  C   UNL     1      48.440   7.451  11.751  0.00  0.00    +0.000 A 
ATOM     17  C   UNL     1      47.171   6.981  12.110  0.00  0.00    +0.000 A 
ATOM     18  C   UNL     1      46.141   7.859  12.471  0.00  0.00    +0.000 A 
ATOM     19  C   UNL     1      46.439   9.229  12.503  0.00  0.00    +0.000 A 
ATOM     20  C   UNL     1      47.711   9.709  12.157  0.00  0.00    +0.000 A 
BRANCH  15  22
ATOM     21  N   UNL     1      51.084   9.679  11.169  0.00  0.00    +0.000 NA
ATOM     22  C   UNL     1      50.023   9.293  11.435  0.00  0.00    +0.000 C 
ENDBRANCH  15  22
ENDBRANCH  13  18
ENDBRANCH   1  13
TORSDOF 6
ENDMDL
MODEL 5
REMARK VINA RESULT:    -5.866      2.038      6.994
REMARK INTER + INTRA:          -8.696
REMARK INTER:                  -8.180
REMARK INTRA:                  -0.516
REMARK UNBOUND:                -0.773
REMARK  Name = 
REMARK  6 active torsions:
REMARK  status: ('A' for Active; 'I' for Inactive)
REMARK    1  A    between atoms: C_2  and  C_3
REMARK    2  A    between atoms: C_6  and  N_7
REMARK    3  A    between atoms: N_7  and  C_8
REMARK    4  A    between atoms: C_8  and  C_9
REMARK    5  A    between atoms: C_9  and  C_12
REMARK    6  A    between atoms: C_16  and  C_17
REMARK                            x       y       z     vdW  Elec       q    Type
REMARK                         _______ _______ _______ _____ _____    ______ ____
ROOT
ATOM      1  C   UNL     1      45.113   5.954  12.824  0.00  0.00    +0.000 C 
ENDROOT
BRANCH   1   2
ATOM      2  C   UNL     1      44.550   6.176  11.396  0.00  0.00    +0.000 C 
ATOM      3  F   UNL     1      43.275   6.654  11.488  0.00  0.00    +0.000 F 
ATOM      4  F   UNL     1      45.269   7.181  10.806  0.00  0.00    +0.000 F 
BRANCH   2   5
ATOM      5  C   UNL     1      44.612   4.887  10.594  0.00  0.00    +0.000 A 
ATOM      6  C   UNL     1      44.036   3.710  11.098  0.00  0.00    +0.000 A 
ATOM      7  C   UNL     1      44.107   2.516  10.377  0.00  0.00    +0.000 A 
ATOM      8  C   UNL     1      44.752   2.483   9.141  0.00  0.00    +0.000 A 
ATOM      9  C   UNL     1      45.330   3.644   8.620  0.00  0.00    +0.000 A 
ATOM     10  C   UNL     1      45.263   4.841   9.347  0.00  0.00    +0.000 A 
BRANCH   9  11
ATOM     11  C   UNL     1      45.993   3.609   7.347  0.00  0.00    +0.000 C 
ATOM     12  N   UNL     1      46.524   3.586   6.317  0.00  0.00    +0.000 NA
ENDBRANCH   9  11
ENDBRANCH   2   5
ENDBRANCH   1   2
BRANCH   1  13
ATOM     13  N   UNL     1      46.578   5.791  12.874  0.00  0.00    +0.000 N 
ATOM     14  H   UNL     1      46.985   5.341  12.053  0.00  0.00    +0.000 HD
BRANCH  13  18
ATOM     15  C   UNL     1      48.406   5.080  16.613  0.00  0.00    +0.000 A 
ATOM     16  C   UNL     1      47.503   4.152  16.099  0.00  0.00    +0.000 A 
ATOM     17  C   UNL     1      46.907   4.365  14.850  0.00  0.00    +0.000 A 
ATOM     18  C   UNL     1      47.220   5.486  14.073  0.00  0.00    +0.000 A 
ATOM     19  C   UNL     1      48.123   6.416  14.610  0.00  0.00    +0.000 A 
ATOM     20  C   UNL     1      48.716   6.218  15.866  0.00  0.00    +0.000 A 
BRANCH  15  22
ATOM     21  N   UNL     1      49.461   4.709  18.953  0.00  0.00    +0.000 NA
ATOM     22  C   UNL     1      48.995   4.872  17.903  0.00  0.00    +0.000 C 
ENDBRANCH  15  22
ENDBRANCH  13  18
ENDBRANCH   1  13
TORSDOF 6
ENDMDL
MODEL 6
REMARK VINA RESULT:    -5.692      2.491      6.636
REMARK INTER + INTRA:          -8.461
REMARK INTER:                  -7.732
REMARK INTRA:                  -0.730
REMARK UNBOUND:                -0.773
REMARK  Name = 
REMARK  6 active torsions:
REMARK  status: ('A' for Active; 'I' for Inactive)
REMARK    1  A    between atoms: C_2  and  C_3
REMARK    2  A    between atoms: C_6  and  N_7
REMARK    3  A    between atoms: N_7  and  C_8
REMARK    4  A    between atoms: C_8  and  C_9
REMARK    5  A    between atoms: C_9  and  C_12
REMARK    6  A    between atoms: C_16  and  C_17
REMARK                            x       y       z     vdW  Elec       q    Type
REMARK                         _______ _______ _______ _____ _____    ______ ____
ROOT
ATOM      1  C   UNL     1      46.936   6.952  11.772  0.00  0.00    +0.000 C 
ENDROOT
BRANCH   1   2
ATOM      2  C   UNL     1      45.408   7.139  11.961  0.00  0.00    +0.000 C 
ATOM      3  F   UNL     1      45.180   7.806  13.129  0.00  0.00    +0.000 F 
ATOM      4  F   UNL     1      44.956   7.975  10.975  0.00  0.00    +0.000 F 
BRANCH   2   5
ATOM      5  C   UNL     1      44.702   5.794  11.933  0.00  0.00    +0.000 A 
ATOM      6  C   UNL     1      43.777   5.458  12.934  0.00  0.00    +0.000 A 
ATOM      7  C   UNL     1      43.139   4.215  12.928  0.00  0.00    +0.000 A 
ATOM      8  C   UNL     1      43.414   3.294  11.918  0.00  0.00    +0.000 A 
ATOM      9  C   UNL     1      44.329   3.609  10.910  0.00  0.00    +0.000 A 
ATOM     10  C   UNL     1      44.973   4.855  10.920  0.00  0.00    +0.000 A 
BRANCH   9  11
ATOM     11  C   UNL     1      44.610   2.660   9.871  0.00  0.00    +0.000 C 
ATOM     12  N   UNL     1      44.844   1.896   9.031  0.00  0.00    +0.000 NA
ENDBRANCH   9  11
ENDBRANCH   2   5
ENDBRANCH   1   2
BRANCH   1  13
ATOM     13  N   UNL     1      47.734   7.288  12.967  0.00  0.00    +0.000 N 
ATOM     14  H   UNL     1      48.573   7.837  12.778  0.00  0.00    +0.000 HD
BRANCH  13  18
ATOM     15  C   UNL     1      48.009   4.699  16.291  0.00  0.00    +0.000 A 
ATOM     16  C   UNL     1      47.276   4.309  15.172  0.00  0.00    +0.000 A 
ATOM     17  C   UNL     1      47.196   5.149  14.055  0.00  0.00    +0.000 A 
ATOM     18  C   UNL     1      47.867   6.377  14.013  0.00  0.00    +0.000 A 
ATOM     19  C   UNL     1      48.591   6.759  15.153  0.00  0.00    +0.000 A 
ATOM     20  C   UNL     1      48.667   5.930  16.282  0.00  0.00    +0.000 A 
BRANCH  15  22
ATOM     21  N   UNL     1      48.121   3.153  18.370  0.00  0.00    +0.000 NA
ATOM     22  C   UNL     1      48.067   3.849  17.444  0.00  0.00    +0.000 C 
ENDBRANCH  15  22
ENDBRANCH  13  18
ENDBRANCH   1  13
TORSDOF 6
ENDMDL
MODEL 7
REMARK VINA RESULT:    -5.554      3.770      5.706
REMARK INTER + INTRA:          -8.274
REMARK INTER:                  -7.574
REMARK INTRA:                  -0.700
REMARK UNBOUND:                -0.773
REMARK  Name = 
REMARK  6 active torsions:
REMARK  status: ('A' for Active; 'I' for Inactive)
REMARK    1  A    between atoms: C_2  and  C_3
REMARK    2  A    between atoms: C_6  and  N_7
REMARK    3  A    between atoms: N_7  and  C_8
REMARK    4  A    between atoms: C_8  and  C_9
REMARK    5  A    between atoms: C_9  and  C_12
REMARK    6  A    between atoms: C_16  and  C_17
REMARK                            x       y       z     vdW  Elec       q    Type
REMARK                         _______ _______ _______ _____ _____    ______ ____
ROOT
ATOM      1  C   UNL     1      48.928   7.007  13.113  0.00  0.00    +0.000 C 
ENDROOT
BRANCH   1   2
ATOM      2  C   UNL     1      49.050   7.697  14.497  0.00  0.00    +0.000 C 
ATOM      3  F   UNL     1      50.056   8.618  14.449  0.00  0.00    +0.000 F 
ATOM      4  F   UNL     1      47.909   8.421  14.714  0.00  0.00    +0.000 F 
BRANCH   2   5
ATOM      5  C   UNL     1      49.283   6.664  15.586  0.00  0.00    +0.000 A 
ATOM      6  C   UNL     1      50.503   6.628  16.280  0.00  0.00    +0.000 A 
ATOM      7  C   UNL     1      50.733   5.668  17.269  0.00  0.00    +0.000 A 
ATOM      8  C   UNL     1      49.746   4.734  17.579  0.00  0.00    +0.000 A 
ATOM      9  C   UNL     1      48.523   4.754  16.902  0.00  0.00    +0.000 A 
ATOM     10  C   UNL     1      48.295   5.714  15.906  0.00  0.00    +0.000 A 
BRANCH   9  11
ATOM     11  C   UNL     1      47.507   3.792  17.224  0.00  0.00    +0.000 C 
ATOM     12  N   UNL     1      46.684   3.016  17.477  0.00  0.00    +0.000 NA
ENDBRANCH   9  11
ENDBRANCH   2   5
ENDBRANCH   1   2
BRANCH   1  13
ATOM     13  N   UNL     1      47.652   7.272  12.420  0.00  0.00    +0.000 N 
ATOM     14  H   UNL     1      47.208   8.156  12.669  0.00  0.00    +0.000 HD
BRANCH  13  18
ATOM     15  C   UNL     1      44.804   4.214  11.814  0.00  0.00    +0.000 A 
ATOM     16  C   UNL     1      44.974   5.201  10.845  0.00  0.00    +0.000 A 
ATOM     17  C   UNL     1      45.930   6.207  11.023  0.00  0.00    +0.000 A 
ATOM     18  C   UNL     1      46.759   6.236  12.152  0.00  0.00    +0.000 A 
ATOM     19  C   UNL     1      46.567   5.242  13.122  0.00  0.00    +0.000 A 
ATOM     20  C   UNL     1      45.603   4.237  12.959  0.00  0.00    +0.000 A 
BRANCH  15  22
ATOM     21  N   UNL     1      42.995   2.385  11.490  0.00  0.00    +0.000 NA
ATOM     22  C   UNL     1      43.806   3.200  11.641  0.00  0.00    +0.000 C 
ENDBRANCH  15  22
ENDBRANCH  13  18
ENDBRANCH   1  13
TORSDOF 6
ENDMDL
MODEL 8
REMARK VINA RESULT:    -5.475      3.976      6.042
REMARK INTER + INTRA:          -8.168
REMARK INTER:                  -7.775
REMARK INTRA:                  -0.392
REMARK UNBOUND:                -0.773
REMARK  Name = 
REMARK  6 active torsions:
REMARK  status: ('A' for Active; 'I' for Inactive)
REMARK    1  A    between atoms: C_2  and  C_3
REMARK    2  A    between atoms: C_6  and  N_7
REMARK    3  A    between atoms: N_7  and  C_8
REMARK    4  A    between atoms: C_8  and  C_9
REMARK    5  A    between atoms: C_9  and  C_12
REMARK    6  A    between atoms: C_16  and  C_17
REMARK                            x       y       z     vdW  Elec       q    Type
REMARK                         _______ _______ _______ _____ _____    ______ ____
ROOT
ATOM      1  C   UNL     1      47.469   3.732  15.357  0.00  0.00    +0.000 C 
ENDROOT
BRANCH   1   2
ATOM      2  C   UNL     1      47.665   3.794  16.894  0.00  0.00    +0.000 C 
ATOM      3  F   UNL     1      47.016   4.891  17.383  0.00  0.00    +0.000 F 
ATOM      4  F   UNL     1      47.023   2.720  17.450  0.00  0.00    +0.000 F 
BRANCH   2   5
ATOM      5  C   UNL     1      49.144   3.813  17.241  0.00  0.00    +0.000 A 
ATOM      6  C   UNL     1      49.812   5.033  17.429  0.00  0.00    +0.000 A 
ATOM      7  C   UNL     1      51.177   5.061  17.727  0.00  0.00    +0.000 A 
ATOM      8  C   UNL     1      51.891   3.869  17.844  0.00  0.00    +0.000 A 
ATOM      9  C   UNL     1      51.244   2.643  17.663  0.00  0.00    +0.000 A 
ATOM     10  C   UNL     1      49.876   2.616  17.358  0.00  0.00    +0.000 A 
BRANCH   9  11
ATOM     11  C   UNL     1      51.980   1.416  17.784  0.00  0.00    +0.000 C 
ATOM     12  N   UNL     1      52.578   0.427  17.876  0.00  0.00    +0.000 NA
ENDBRANCH   9  11
ENDBRANCH   2   5
ENDBRANCH   1   2
BRANCH   1  13
ATOM     13  N   UNL     1      46.444   4.661  14.844  0.00  0.00    +0.000 N 
ATOM     14  H   UNL     1      45.759   4.964  15.536  0.00  0.00    +0.000 HD
BRANCH  13  18
ATOM     15  C   UNL     1      45.124   4.319  10.848  0.00  0.00    +0.000 A 
ATOM     16  C   UNL     1      45.288   3.171  11.621  0.00  0.00    +0.000 A 
ATOM     17  C   UNL     1      45.703   3.272  12.954  0.00  0.00    +0.000 A 
ATOM     18  C   UNL     1      45.933   4.516  13.555  0.00  0.00    +0.000 A 
ATOM     19  C   UNL     1      45.775   5.660  12.759  0.00  0.00    +0.000 A 
ATOM     20  C   UNL     1      45.371   5.568  11.419  0.00  0.00    +0.000 A 
BRANCH  15  22
ATOM     21  N   UNL     1      44.402   4.134   8.364  0.00  0.00    +0.000 NA
ATOM     22  C   UNL     1      44.724   4.210   9.476  0.00  0.00    +0.000 C 
ENDBRANCH  15  22
ENDBRANCH  13  18
ENDBRANCH   1  13
TORSDOF 6
ENDMDL
MODEL 9
REMARK VINA RESULT:    -5.164      4.235      6.525
REMARK INTER + INTRA:          -7.749
REMARK INTER:                  -6.851
REMARK INTRA:                  -0.897
REMARK UNBOUND:                -0.773
REMARK  Name = 
REMARK  6 active torsions:
REMARK  status: ('A' for Active; 'I' for Inactive)
REMARK    1  A    between atoms: C_2  and  C_3
REMARK    2  A    between atoms: C_6  and  N_7
REMARK    3  A    between atoms: N_7  and  C_8
REMARK    4  A    between atoms: C_8  and  C_9
REMARK    5  A    between atoms: C_9  and  C_12
REMARK    6  A    between atoms: C_16  and  C_17
REMARK                            x       y       z     vdW  Elec       q    Type
REMARK                         _______ _______ _______ _____ _____    ______ ____
ROOT
ATOM      1  C   UNL     1      48.619   7.441  15.444  0.00  0.00    +0.000 C 
ENDROOT
BRANCH   1   2
ATOM      2  C   UNL     1      49.252   6.901  16.752  0.00  0.00    +0.000 C 
ATOM      3  F   UNL     1      50.609   7.034  16.680  0.00  0.00    +0.000 F 
ATOM      4  F   UNL     1      48.866   7.716  17.781  0.00  0.00    +0.000 F 
BRANCH   2   5
ATOM      5  C   UNL     1      48.839   5.457  16.985  0.00  0.00    +0.000 A 
ATOM      6  C   UNL     1      47.493   5.133  17.216  0.00  0.00    +0.000 A 
ATOM      7  C   UNL     1      47.107   3.812  17.452  0.00  0.00    +0.000 A 
ATOM      8  C   UNL     1      48.063   2.795  17.457  0.00  0.00    +0.000 A 
ATOM      9  C   UNL     1      49.408   3.096  17.226  0.00  0.00    +0.000 A 
ATOM     10  C   UNL     1      49.795   4.424  16.995  0.00  0.00    +0.000 A 
BRANCH   9  11
ATOM     11  C   UNL     1      50.390   2.049  17.231  0.00  0.00    +0.000 C 
ATOM     12  N   UNL     1      51.180   1.200  17.239  0.00  0.00    +0.000 NA
ENDBRANCH   9  11
ENDBRANCH   2   5
ENDBRANCH   1   2
BRANCH   1  13
ATOM     13  N   UNL     1      48.913   6.623  14.251  0.00  0.00    +0.000 N 
ATOM     14  H   UNL     1      49.794   6.846  13.789  0.00  0.00    +0.000 HD
BRANCH  13  18
ATOM     15  C   UNL     1      45.650   5.487  11.824  0.00  0.00    +0.000 A 
ATOM     16  C   UNL     1      46.382   6.629  11.505  0.00  0.00    +0.000 A 
ATOM     17  C   UNL     1      47.480   7.004  12.288  0.00  0.00    +0.000 A 
ATOM     18  C   UNL     1      47.892   6.236  13.384  0.00  0.00    +0.000 A 
ATOM     19  C   UNL     1      47.137   5.096  13.698  0.00  0.00    +0.000 A 
ATOM     20  C   UNL     1      46.028   4.719  12.926  0.00  0.00    +0.000 A 
BRANCH  15  22
ATOM     21  N   UNL     1      43.586   4.814  10.404  0.00  0.00    +0.000 NA
ATOM     22  C   UNL     1      44.510   5.120  11.035  0.00  0.00    +0.000 C 
ENDBRANCH  15  22
ENDBRANCH  13  18
ENDBRANCH   1  13
TORSDOF 6
ENDMDL
