MODEL 1
REMARK VINA RESULT:    -8.370      0.000      0.000
REMARK INTER + INTRA:         -12.345
REMARK INTER:                 -11.306
REMARK INTRA:                  -1.039
REMARK UNBOUND:                -1.039
REMARK  Name = 
REMARK  6 active torsions:
REMARK  status: ('A' for Active; 'I' for Inactive)
REMARK    1  A    between atoms: C_2  and  C_3
REMARK    2  A    between atoms: N_7  and  C_8
REMARK    3  A    between atoms: C_8  and  C_9
REMARK    4  A    between atoms: C_9  and  C_11
REMARK    5  A    between atoms: C_15  and  O_16
REMARK    6  A    between atoms: O_16  and  C_17
REMARK                            x       y       z     vdW  Elec       q    Type
REMARK                         _______ _______ _______ _____ _____    ______ ____
ROOT
ATOM      1  C   UNL     1      43.980   4.875  12.383  0.00  0.00    +0.000 C 
ATOM      2  F   UNL     1      43.846   3.559  12.740  0.00  0.00    +0.000 F 
ENDROOT
BRANCH   1   3
ATOM      3  C   UNL     1      45.392   5.380  12.596  0.00  0.00    +0.000 A 
ATOM      4  C   UNL     1      45.978   6.265  11.684  0.00  0.00    +0.000 A 
ATOM      5  C   UNL     1      47.263   6.765  11.910  0.00  0.00    +0.000 A 
ATOM      6  C   UNL     1      47.983   6.384  13.046  0.00  0.00    +0.000 A 
ATOM      7  C   UNL     1      47.416   5.497  13.956  0.00  0.00    +0.000 A 
ATOM      8  C   UNL     1      46.125   5.004  13.734  0.00  0.00    +0.000 A 
BRANCH   7   9
ATOM      9  O   UNL     1      48.005   5.074  15.120  0.00  0.00    +0.000 OA
BRANCH   9  10
ATOM     10  C   UNL     1      47.332   4.111  15.957  0.00  0.00    +0.000 C 
ATOM     11  C   UNL     1      47.204   4.445  17.465  0.00  0.00    +0.000 C 
ATOM     12  C   UNL     1      47.612   2.996  17.781  0.00  0.00    +0.000 C 
ATOM     13  C   UNL     1      48.231   2.918  16.379  0.00  0.00    +0.000 C 
ENDBRANCH   9  10
ENDBRANCH   7   9
ENDBRANCH   1   3
BRANCH   1  14
ATOM     14  C   UNL     1      43.563   5.010  10.904  0.00  0.00    +0.000 C 
BRANCH  14  19
ATOM     15  C   UNL     1      46.549   2.470   7.640  0.00  0.00    +0.000 A 
ATOM     16  C   UNL     1      46.243   3.825   7.692  0.00  0.00    +0.000 A 
ATOM     17  C   UNL     1      45.255   4.270   8.571  0.00  0.00    +0.000 A 
ATOM     18  C   UNL     1      44.601   3.363   9.396  0.00  0.00    +0.000 A 
ATOM     19  N   UNL     1      43.549   3.711  10.228  0.00  0.00    +0.000 N 
ATOM     20  N   UNL     1      44.906   2.049   9.368  0.00  0.00    +0.000 NA
ATOM     21  C   UNL     1      45.859   1.628   8.498  0.00  0.00    +0.000 A 
ATOM     22  H   UNL     1      43.360   2.913  10.836  0.00  0.00    +0.000 HD
BRANCH  15  24
ATOM     23  N   UNL     1      48.307   1.551   5.978  0.00  0.00    +0.000 NA
ATOM     24  C   UNL     1      47.519   1.958   6.723  0.00  0.00    +0.000 C 
ENDBRANCH  15  24
ENDBRANCH  14  19
ENDBRANCH   1  14
TORSDOF 6
ENDMDL
MODEL 2
REMARK VINA RESULT:    -7.474      1.703      2.033
REMARK INTER + INTRA:         -11.134
REMARK INTER:                 -10.183
REMARK INTRA:                  -0.951
REMARK UNBOUND:                -1.039
REMARK  Name = 
REMARK  6 active torsions:
REMARK  status: ('A' for Active; 'I' for Inactive)
REMARK    1  A    between atoms: C_2  and  C_3
REMARK    2  A    between atoms: N_7  and  C_8
REMARK    3  A    between atoms: C_8  and  C_9
REMARK    4  A    between atoms: C_9  and  C_11
REMARK    5  A    between atoms: C_15  and  O_16
REMARK    6  A    between atoms: O_16  and  C_17
REMARK                            x       y       z     vdW  Elec       q    Type
REMARK                         _______ _______ _______ _____ _____    ______ ____
ROOT
ATOM      1  C   UNL     1      44.545   4.358  12.451  0.00  0.00    +0.000 C 
ATOM      2  F   UNL     1      44.860   3.031  12.577  0.00  0.00    +0.000 F 
ENDROOT
BRANCH   1   3
ATOM      3  C   UNL     1      45.772   5.242  12.530  0.00  0.00    +0.000 A 
ATOM      4  C   UNL     1      46.088   6.118  11.485  0.00  0.00    +0.000 A 
ATOM      5  C   UNL     1      47.193   6.966  11.583  0.00  0.00    +0.000 A 
ATOM      6  C   UNL     1      48.003   6.948  12.724  0.00  0.00    +0.000 A 
ATOM      7  C   UNL     1      47.705   6.075  13.766  0.00  0.00    +0.000 A 
ATOM      8  C   UNL     1      46.592   5.232  13.671  0.00  0.00    +0.000 A 
BRANCH   7   9
ATOM      9  O   UNL     1      48.399   5.985  14.945  0.00  0.00    +0.000 OA
BRANCH   9  10
ATOM     10  C   UNL     1      49.357   7.006  15.294  0.00  0.00    +0.000 C 
ATOM     11  C   UNL     1      50.341   6.694  16.451  0.00  0.00    +0.000 C 
ATOM     12  C   UNL     1      50.080   8.105  17.003  0.00  0.00    +0.000 C 
ATOM     13  C   UNL     1      48.771   8.122  16.201  0.00  0.00    +0.000 C 
ENDBRANCH   9  10
ENDBRANCH   7   9
ENDBRANCH   1   3
BRANCH   1  14
ATOM     14  C   UNL     1      43.815   4.545  11.104  0.00  0.00    +0.000 C 
BRANCH  14  19
ATOM     15  C   UNL     1      46.651   2.496   7.391  0.00  0.00    +0.000 A 
ATOM     16  C   UNL     1      46.274   3.818   7.592  0.00  0.00    +0.000 A 
ATOM     17  C   UNL     1      45.341   4.121   8.585  0.00  0.00    +0.000 A 
ATOM     18  C   UNL     1      44.812   3.105   9.373  0.00  0.00    +0.000 A 
ATOM     19  N   UNL     1      43.818   3.312  10.315  0.00  0.00    +0.000 N 
ATOM     20  N   UNL     1      45.188   1.821   9.199  0.00  0.00    +0.000 NA
ATOM     21  C   UNL     1      46.086   1.539   8.221  0.00  0.00    +0.000 A 
ATOM     22  H   UNL     1      43.727   2.453  10.860  0.00  0.00    +0.000 HD
BRANCH  15  24
ATOM     23  N   UNL     1      48.315   1.832   5.524  0.00  0.00    +0.000 NA
ATOM     24  C   UNL     1      47.566   2.128   6.357  0.00  0.00    +0.000 C 
ENDBRANCH  15  24
ENDBRANCH  14  19
ENDBRANCH   1  14
TORSDOF 6
ENDMDL
MODEL 3
REMARK VINA RESULT:    -6.938      2.156      3.037
REMARK INTER + INTRA:         -10.410
REMARK INTER:                  -9.863
REMARK INTRA:                  -0.547
REMARK UNBOUND:                -1.039
REMARK  Name = 
REMARK  6 active torsions:
REMARK  status: ('A' for Active; 'I' for Inactive)
REMARK    1  A    between atoms: C_2  and  C_3
REMARK    2  A    between atoms: N_7  and  C_8
REMARK    3  A    between atoms: C_8  and  C_9
REMARK    4  A    between atoms: C_9  and  C_11
REMARK    5  A    between atoms: C_15  and  O_16
REMARK    6  A    between atoms: O_16  and  C_17
REMARK                            x       y       z     vdW  Elec       q    Type
REMARK                         _______ _______ _______ _____ _____    ______ ____
ROOT
ATOM      1  C   UNL     1      44.546   4.399  12.189  0.00  0.00    +0.000 C 
ATOM      2  F   UNL     1      45.446   3.368  12.109  0.00  0.00    +0.000 F 
ENDROOT
BRANCH   1   3
ATOM      3  C   UNL     1      45.231   5.736  12.382  0.00  0.00    +0.000 A 
ATOM      4  C   UNL     1      44.643   6.913  11.906  0.00  0.00    +0.000 A 
ATOM      5  C   UNL     1      45.254   8.149  12.129  0.00  0.00    +0.000 A 
ATOM      6  C   UNL     1      46.465   8.227  12.825  0.00  0.00    +0.000 A 
ATOM      7  C   UNL     1      47.065   7.062  13.295  0.00  0.00    +0.000 A 
ATOM      8  C   UNL     1      46.446   5.825  13.080  0.00  0.00    +0.000 A 
BRANCH   7   9
ATOM      9  O   UNL     1      48.230   7.009  14.018  0.00  0.00    +0.000 OA
BRANCH   9  10
ATOM     10  C   UNL     1      49.474   7.400  13.403  0.00  0.00    +0.000 C 
ATOM     11  C   UNL     1      49.794   8.916  13.346  0.00  0.00    +0.000 C 
ATOM     12  C   UNL     1      50.246   8.727  11.888  0.00  0.00    +0.000 C 
ATOM     13  C   UNL     1      49.416   7.436  11.852  0.00  0.00    +0.000 C 
ENDBRANCH   9  10
ENDBRANCH   7   9
ENDBRANCH   1   3
BRANCH   1  14
ATOM     14  C   UNL     1      43.702   4.392  10.897  0.00  0.00    +0.000 C 
BRANCH  14  19
ATOM     15  C   UNL     1      46.724   2.430   7.285  0.00  0.00    +0.000 A 
ATOM     16  C   UNL     1      46.216   3.716   7.413  0.00  0.00    +0.000 A 
ATOM     17  C   UNL     1      45.258   3.981   8.395  0.00  0.00    +0.000 A 
ATOM     18  C   UNL     1      44.836   2.963   9.242  0.00  0.00    +0.000 A 
ATOM     19  N   UNL     1      43.828   3.122  10.178  0.00  0.00    +0.000 N 
ATOM     20  N   UNL     1      45.340   1.715   9.139  0.00  0.00    +0.000 NA
ATOM     21  C   UNL     1      46.260   1.470   8.171  0.00  0.00    +0.000 A 
ATOM     22  H   UNL     1      43.825   2.291  10.772  0.00  0.00    +0.000 HD
BRANCH  15  24
ATOM     23  N   UNL     1      48.431   1.820   5.438  0.00  0.00    +0.000 NA
ATOM     24  C   UNL     1      47.670   2.097   6.266  0.00  0.00    +0.000 C 
ENDBRANCH  15  24
ENDBRANCH  14  19
ENDBRANCH   1  14
TORSDOF 6
ENDMDL
MODEL 4
REMARK VINA RESULT:    -6.766      3.502      7.729
REMARK INTER + INTRA:         -10.178
REMARK INTER:                  -9.696
REMARK INTRA:                  -0.483
REMARK UNBOUND:                -1.039
REMARK  Name = 
REMARK  6 active torsions:
REMARK  status: ('A' for Active; 'I' for Inactive)
REMARK    1  A    between atoms: C_2  and  C_3
REMARK    2  A    between atoms: N_7  and  C_8
REMARK    3  A    between atoms: C_8  and  C_9
REMARK    4  A    between atoms: C_9  and  C_11
REMARK    5  A    between atoms: C_15  and  O_16
REMARK    6  A    between atoms: O_16  and  C_17
REMARK                            x       y       z     vdW  Elec       q    Type
REMARK                         _______ _______ _______ _____ _____    ______ ____
ROOT
ATOM      1  C   UNL     1      45.104   6.442  11.874  0.00  0.00    +0.000 C 
ATOM      2  F   UNL     1      44.901   7.544  11.086  0.00  0.00    +0.000 F 
ENDROOT
BRANCH   1   3
ATOM      3  C   UNL     1      44.830   5.153  11.128  0.00  0.00    +0.000 A 
ATOM      4  C   UNL     1      44.187   4.084  11.763  0.00  0.00    +0.000 A 
ATOM      5  C   UNL     1      43.892   2.916  11.057  0.00  0.00    +0.000 A 
ATOM      6  C   UNL     1      44.240   2.794   9.708  0.00  0.00    +0.000 A 
ATOM      7  C   UNL     1      44.889   3.846   9.067  0.00  0.00    +0.000 A 
ATOM      8  C   UNL     1      45.175   5.020   9.773  0.00  0.00    +0.000 A 
BRANCH   7   9
ATOM      9  O   UNL     1      45.252   3.863   7.745  0.00  0.00    +0.000 OA
BRANCH   9  10
ATOM     10  C   UNL     1      46.582   3.459   7.360  0.00  0.00    +0.000 C 
ATOM     11  C   UNL     1      46.847   3.226   5.850  0.00  0.00    +0.000 C 
ATOM     12  C   UNL     1      47.605   1.940   6.221  0.00  0.00    +0.000 C 
ATOM     13  C   UNL     1      46.854   1.944   7.560  0.00  0.00    +0.000 C 
ENDBRANCH   9  10
ENDBRANCH   7   9
ENDBRANCH   1   3
BRANCH   1  14
ATOM     14  C   UNL     1      46.560   6.486  12.383  0.00  0.00    +0.000 C 
BRANCH  14  19
ATOM     15  C   UNL     1      48.326   4.879  16.891  0.00  0.00    +0.000 A 
ATOM     16  C   UNL     1      48.615   6.043  16.190  0.00  0.00    +0.000 A 
ATOM     17  C   UNL     1      48.146   6.189  14.883  0.00  0.00    +0.000 A 
ATOM     18  C   UNL     1      47.383   5.182  14.303  0.00  0.00    +0.000 A 
ATOM     19  N   UNL     1      46.959   5.211  12.985  0.00  0.00    +0.000 N 
ATOM     20  N   UNL     1      47.080   4.057  14.984  0.00  0.00    +0.000 NA
ATOM     21  C   UNL     1      47.554   3.923  16.249  0.00  0.00    +0.000 A 
ATOM     22  H   UNL     1      46.290   4.450  12.859  0.00  0.00    +0.000 HD
BRANCH  15  24
ATOM     23  N   UNL     1      49.234   4.483  19.282  0.00  0.00    +0.000 NA
ATOM     24  C   UNL     1      48.822   4.660  18.214  0.00  0.00    +0.000 C 
ENDBRANCH  15  24
ENDBRANCH  14  19
ENDBRANCH   1  14
TORSDOF 6
ENDMDL
MODEL 5
REMARK VINA RESULT:    -6.342      4.116      7.311
REMARK INTER + INTRA:          -9.605
REMARK INTER:                  -8.921
REMARK INTRA:                  -0.684
REMARK UNBOUND:                -1.039
REMARK  Name = 
REMARK  6 active torsions:
REMARK  status: ('A' for Active; 'I' for Inactive)
REMARK    1  A    between atoms: C_2  and  C_3
REMARK    2  A    between atoms: N_7  and  C_8
REMARK    3  A    between atoms: C_8  and  C_9
REMARK    4  A    between atoms: C_9  and  C_11
REMARK    5  A    between atoms: C_15  and  O_16
REMARK    6  A    between atoms: O_16  and  C_17
REMARK                            x       y       z     vdW  Elec       q    Type
REMARK                         _______ _______ _______ _____ _____    ______ ____
ROOT
ATOM      1  C   UNL     1      44.736   6.619  12.046  0.00  0.00    +0.000 C 
ATOM      2  F   UNL     1      44.896   7.763  11.308  0.00  0.00    +0.000 F 
ENDROOT
BRANCH   1   3
ATOM      3  C   UNL     1      44.648   5.387  11.169  0.00  0.00    +0.000 A 
ATOM      4  C   UNL     1      43.859   4.296  11.550  0.00  0.00    +0.000 A 
ATOM      5  C   UNL     1      43.742   3.182  10.716  0.00  0.00    +0.000 A 
ATOM      6  C   UNL     1      44.417   3.138   9.491  0.00  0.00    +0.000 A 
ATOM      7  C   UNL     1      45.213   4.213   9.105  0.00  0.00    +0.000 A 
ATOM      8  C   UNL     1      45.321   5.333   9.937  0.00  0.00    +0.000 A 
BRANCH   7   9
ATOM      9  O   UNL     1      45.895   4.305   7.919  0.00  0.00    +0.000 OA
BRANCH   9  10
ATOM     10  C   UNL     1      46.017   3.147   7.069  0.00  0.00    +0.000 C 
ATOM     11  C   UNL     1      47.043   2.062   7.487  0.00  0.00    +0.000 C 
ATOM     12  C   UNL     1      47.507   1.991   6.022  0.00  0.00    +0.000 C 
ATOM     13  C   UNL     1      46.903   3.387   5.816  0.00  0.00    +0.000 C 
ENDBRANCH   9  10
ENDBRANCH   7   9
ENDBRANCH   1   3
BRANCH   1  14
ATOM     14  C   UNL     1      45.924   6.516  13.025  0.00  0.00    +0.000 C 
BRANCH  14  19
ATOM     15  C   UNL     1      50.162   8.897  11.476  0.00  0.00    +0.000 A 
ATOM     16  C   UNL     1      49.966   7.563  11.810  0.00  0.00    +0.000 A 
ATOM     17  C   UNL     1      48.754   7.170  12.382  0.00  0.00    +0.000 A 
ATOM     18  C   UNL     1      47.752   8.110  12.595  0.00  0.00    +0.000 A 
ATOM     19  N   UNL     1      46.560   7.818  13.238  0.00  0.00    +0.000 N 
ATOM     20  N   UNL     1      47.925   9.404  12.254  0.00  0.00    +0.000 NA
ATOM     21  C   UNL     1      49.114   9.773  11.711  0.00  0.00    +0.000 A 
ATOM     22  H   UNL     1      45.942   8.622  13.120  0.00  0.00    +0.000 HD
BRANCH  15  24
ATOM     23  N   UNL     1      52.407   9.722  10.489  0.00  0.00    +0.000 NA
ATOM     24  C   UNL     1      51.401   9.358  10.933  0.00  0.00    +0.000 C 
ENDBRANCH  15  24
ENDBRANCH  14  19
ENDBRANCH   1  14
TORSDOF 6
ENDMDL
MODEL 6
REMARK VINA RESULT:    -6.196      4.144      8.111
REMARK INTER + INTRA:          -9.408
REMARK INTER:                  -8.889
REMARK INTRA:                  -0.519
REMARK UNBOUND:                -1.039
REMARK  Name = 
REMARK  6 active torsions:
REMARK  status: ('A' for Active; 'I' for Inactive)
REMARK    1  A    between atoms: C_2  and  C_3
REMARK    2  A    between atoms: N_7  and  C_8
REMARK    3  A    between atoms: C_8  and  C_9
REMARK    4  A    between atoms: C_9  and  C_11
REMARK    5  A    between atoms: C_15  and  O_16
REMARK    6  A    between atoms: O_16  and  C_17
REMARK                            x       y       z     vdW  Elec       q    Type
REMARK                         _______ _______ _______ _____ _____    ______ ____
ROOT
ATOM      1  C   UNL     1      45.781   6.508  12.717  0.00  0.00    +0.000 C 
ATOM      2  F   UNL     1      45.007   7.631  12.848  0.00  0.00    +0.000 F 
ENDROOT
BRANCH   1   3
ATOM      3  C   UNL     1      45.146   5.487  11.796  0.00  0.00    +0.000 A 
ATOM      4  C   UNL     1      44.129   4.644  12.259  0.00  0.00    +0.000 A 
ATOM      5  C   UNL     1      43.513   3.737  11.394  0.00  0.00    +0.000 A 
ATOM      6  C   UNL     1      43.907   3.654  10.055  0.00  0.00    +0.000 A 
ATOM      7  C   UNL     1      44.924   4.480   9.584  0.00  0.00    +0.000 A 
ATOM      8  C   UNL     1      45.534   5.396  10.449  0.00  0.00    +0.000 A 
BRANCH   7   9
ATOM      9  O   UNL     1      45.376   4.518   8.289  0.00  0.00    +0.000 OA
BRANCH   9  10
ATOM     10  C   UNL     1      45.560   3.289   7.557  0.00  0.00    +0.000 C 
ATOM     11  C   UNL     1      46.079   2.060   8.347  0.00  0.00    +0.000 C 
ATOM     12  C   UNL     1      47.046   1.771   7.187  0.00  0.00    +0.000 C 
ATOM     13  C   UNL     1      46.891   3.237   6.758  0.00  0.00    +0.000 C 
ENDBRANCH   9  10
ENDBRANCH   7   9
ENDBRANCH   1   3
BRANCH   1  14
ATOM     14  C   UNL     1      47.163   6.944  12.188  0.00  0.00    +0.000 C 
BRANCH  14  19
ATOM     15  C   UNL     1      48.997   8.012  16.827  0.00  0.00    +0.000 A 
ATOM     16  C   UNL     1      48.498   8.867  15.853  0.00  0.00    +0.000 A 
ATOM     17  C   UNL     1      48.215   8.365  14.580  0.00  0.00    +0.000 A 
ATOM     18  C   UNL     1      48.416   7.018  14.306  0.00  0.00    +0.000 A 
ATOM     19  N   UNL     1      48.246   6.463  13.049  0.00  0.00    +0.000 N 
ATOM     20  N   UNL     1      48.880   6.175  15.253  0.00  0.00    +0.000 NA
ATOM     21  C   UNL     1      49.164   6.679  16.481  0.00  0.00    +0.000 A 
ATOM     22  H   UNL     1      48.294   5.448  13.150  0.00  0.00    +0.000 HD
BRANCH  15  24
ATOM     23  N   UNL     1      49.640   8.865  19.184  0.00  0.00    +0.000 NA
ATOM     24  C   UNL     1      49.347   8.485  18.129  0.00  0.00    +0.000 C 
ENDBRANCH  15  24
ENDBRANCH  14  19
ENDBRANCH   1  14
TORSDOF 6
ENDMDL
MODEL 7
REMARK VINA RESULT:    -6.193      3.485      6.818
REMARK INTER + INTRA:          -9.404
REMARK INTER:                  -8.582
REMARK INTRA:                  -0.821
REMARK UNBOUND:                -1.039
REMARK  Name = 
REMARK  6 active torsions:
REMARK  status: ('A' for Active; 'I' for Inactive)
REMARK    1  A    between atoms: C_2  and  C_3
REMARK    2  A    between atoms: N_7  and  C_8
REMARK    3  A    between atoms: C_8  and  C_9
REMARK    4  A    between atoms: C_9  and  C_11
REMARK    5  A    between atoms: C_15  and  O_16
REMARK    6  A    between atoms: O_16  and  C_17
REMARK                            x       y       z     vdW  Elec       q    Type
REMARK                         _______ _______ _______ _____ _____    ______ ____
ROOT
ATOM      1  C   UNL     1      44.575   3.760  12.993  0.00  0.00    +0.000 C 
ATOM      2  F   UNL     1      43.356   3.535  13.576  0.00  0.00    +0.000 F 
ENDROOT
BRANCH   1   3
ATOM      3  C   UNL     1      44.474   3.860  11.486  0.00  0.00    +0.000 A 
ATOM      4  C   UNL     1      43.844   4.955  10.884  0.00  0.00    +0.000 A 
ATOM      5  C   UNL     1      43.796   5.066   9.492  0.00  0.00    +0.000 A 
ATOM      6  C   UNL     1      44.370   4.083   8.681  0.00  0.00    +0.000 A 
ATOM      7  C   UNL     1      44.991   2.983   9.267  0.00  0.00    +0.000 A 
ATOM      8  C   UNL     1      45.048   2.877  10.661  0.00  0.00    +0.000 A 
BRANCH   7   9
ATOM      9  O   UNL     1      45.618   1.972   8.584  0.00  0.00    +0.000 OA
BRANCH   9  10
ATOM     10  C   UNL     1      46.819   2.249   7.834  0.00  0.00    +0.000 C 
ATOM     11  C   UNL     1      46.679   3.134   6.568  0.00  0.00    +0.000 C 
ATOM     12  C   UNL     1      47.594   2.148   5.824  0.00  0.00    +0.000 C 
ATOM     13  C   UNL     1      47.236   1.095   6.883  0.00  0.00    +0.000 C 
ENDBRANCH   9  10
ENDBRANCH   7   9
ENDBRANCH   1   3
BRANCH   1  14
ATOM     14  C   UNL     1      45.154   5.058  13.594  0.00  0.00    +0.000 C 
BRANCH  14  19
ATOM     15  C   UNL     1      49.175   7.835  12.127  0.00  0.00    +0.000 A 
ATOM     16  C   UNL     1      47.994   7.558  11.449  0.00  0.00    +0.000 A 
ATOM     17  C   UNL     1      47.103   6.621  11.979  0.00  0.00    +0.000 A 
ATOM     18  C   UNL     1      47.397   5.990  13.182  0.00  0.00    +0.000 A 
ATOM     19  N   UNL     1      46.611   4.987  13.726  0.00  0.00    +0.000 N 
ATOM     20  N   UNL     1      48.531   6.268  13.858  0.00  0.00    +0.000 NA
ATOM     21  C   UNL     1      49.394   7.171  13.324  0.00  0.00    +0.000 A 
ATOM     22  H   UNL     1      46.948   4.812  14.674  0.00  0.00    +0.000 HD
BRANCH  15  24
ATOM     23  N   UNL     1      50.917   9.492  11.170  0.00  0.00    +0.000 NA
ATOM     24  C   UNL     1      50.140   8.749  11.603  0.00  0.00    +0.000 C 
ENDBRANCH  15  24
ENDBRANCH  14  19
ENDBRANCH   1  14
TORSDOF 6
ENDMDL
MODEL 8
REMARK VINA RESULT:    -6.139      4.179      7.810
REMARK INTER + INTRA:          -9.331
REMARK INTER:                  -8.788
REMARK INTRA:                  -0.543
REMARK UNBOUND:                -1.039
REMARK  Name = 
REMARK  6 active torsions:
REMARK  status: ('A' for Active; 'I' for Inactive)
REMARK    1  A    between atoms: C_2  and  C_3
REMARK    2  A    between atoms: N_7  and  C_8
REMARK    3  A    between atoms: C_8  and  C_9
REMARK    4  A    between atoms: C_9  and  C_11
REMARK    5  A    between atoms: C_15  and  O_16
REMARK    6  A    between atoms: O_16  and  C_17
REMARK                            x       y       z     vdW  Elec       q    Type
REMARK                         _______ _______ _______ _____ _____    ______ ____
ROOT
ATOM      1  C   UNL     1      47.157   4.278  14.034  0.00  0.00    +0.000 C 
ATOM      2  F   UNL     1      47.141   2.948  13.705  0.00  0.00    +0.000 F 
ENDROOT
BRANCH   1   3
ATOM      3  C   UNL     1      46.362   5.114  13.054  0.00  0.00    +0.000 A 
ATOM      4  C   UNL     1      46.593   6.489  12.938  0.00  0.00    +0.000 A 
ATOM      5  C   UNL     1      45.891   7.248  11.999  0.00  0.00    +0.000 A 
ATOM      6  C   UNL     1      44.943   6.646  11.165  0.00  0.00    +0.000 A 
ATOM      7  C   UNL     1      44.696   5.281  11.278  0.00  0.00    +0.000 A 
ATOM      8  C   UNL     1      45.407   4.520  12.212  0.00  0.00    +0.000 A 
BRANCH   7   9
ATOM      9  O   UNL     1      43.818   4.570  10.499  0.00  0.00    +0.000 OA
BRANCH   9  10
ATOM     10  C   UNL     1      44.210   4.150   9.176  0.00  0.00    +0.000 C 
ATOM     11  C   UNL     1      44.690   2.686   9.007  0.00  0.00    +0.000 C 
ATOM     12  C   UNL     1      45.847   3.207   8.138  0.00  0.00    +0.000 C 
ATOM     13  C   UNL     1      45.650   4.583   8.789  0.00  0.00    +0.000 C 
ENDBRANCH   9  10
ENDBRANCH   7   9
ENDBRANCH   1   3
BRANCH   1  14
ATOM     14  C   UNL     1      46.595   4.418  15.464  0.00  0.00    +0.000 C 
BRANCH  14  19
ATOM     15  C   UNL     1      51.002   2.990  17.600  0.00  0.00    +0.000 A 
ATOM     16  C   UNL     1      49.854   2.247  17.353  0.00  0.00    +0.000 A 
ATOM     17  C   UNL     1      48.698   2.897  16.918  0.00  0.00    +0.000 A 
ATOM     18  C   UNL     1      48.709   4.272  16.719  0.00  0.00    +0.000 A 
ATOM     19  N   UNL     1      47.582   5.001  16.376  0.00  0.00    +0.000 N 
ATOM     20  N   UNL     1      49.825   4.999  16.935  0.00  0.00    +0.000 NA
ATOM     21  C   UNL     1      50.938   4.356  17.371  0.00  0.00    +0.000 A 
ATOM     22  H   UNL     1      47.887   5.944  16.132  0.00  0.00    +0.000 HD
BRANCH  15  24
ATOM     23  N   UNL     1      53.170   1.893  18.490  0.00  0.00    +0.000 NA
ATOM     24  C   UNL     1      52.197   2.379  18.092  0.00  0.00    +0.000 C 
ENDBRANCH  15  24
ENDBRANCH  14  19
ENDBRANCH   1  14
TORSDOF 6
ENDMDL
MODEL 9
REMARK VINA RESULT:    -6.123      4.354      8.472
REMARK INTER + INTRA:          -9.310
REMARK INTER:                  -8.852
REMARK INTRA:                  -0.458
REMARK UNBOUND:                -1.039
REMARK  Name = 
REMARK  6 active torsions:
REMARK  status: ('A' for Active; 'I' for Inactive)
REMARK    1  A    between atoms: C_2  and  C_3
REMARK    2  A    between atoms: N_7  and  C_8
REMARK    3  A    between atoms: C_8  and  C_9
REMARK    4  A    between atoms: C_9  and  C_11
REMARK    5  A    between atoms: C_15  and  O_16
REMARK    6  A    between atoms: O_16  and  C_17
REMARK                            x       y       z     vdW  Elec       q    Type
REMARK                         _______ _______ _______ _____ _____    ______ ____
ROOT
ATOM      1  C   UNL     1      46.850   4.196  13.652  0.00  0.00    +0.000 C 
ATOM      2  F   UNL     1      47.124   2.883  13.932  0.00  0.00    +0.000 F 
ENDROOT
BRANCH   1   3
ATOM      3  C   UNL     1      45.615   4.346  12.788  0.00  0.00    +0.000 A 
ATOM      4  C   UNL     1      44.813   5.489  12.883  0.00  0.00    +0.000 A 
ATOM      5  C   UNL     1      43.703   5.645  12.050  0.00  0.00    +0.000 A 
ATOM      6  C   UNL     1      43.374   4.659  11.114  0.00  0.00    +0.000 A 
ATOM      7  C   UNL     1      44.157   3.513  11.016  0.00  0.00    +0.000 A 
ATOM      8  C   UNL     1      45.275   3.362  11.845  0.00  0.00    +0.000 A 
BRANCH   7   9
ATOM      9  O   UNL     1      43.959   2.494  10.120  0.00  0.00    +0.000 OA
BRANCH   9  10
ATOM     10  C   UNL     1      44.454   2.617   8.771  0.00  0.00    +0.000 C 
ATOM     11  C   UNL     1      45.787   1.901   8.434  0.00  0.00    +0.000 C 
ATOM     12  C   UNL     1      46.236   3.169   7.689  0.00  0.00    +0.000 C 
ATOM     13  C   UNL     1      45.198   3.953   8.503  0.00  0.00    +0.000 C 
ENDBRANCH   9  10
ENDBRANCH   7   9
ENDBRANCH   1   3
BRANCH   1  14
ATOM     14  C   UNL     1      46.679   4.940  14.993  0.00  0.00    +0.000 C 
BRANCH  14  19
ATOM     15  C   UNL     1      49.902   5.083  18.945  0.00  0.00    +0.000 A 
ATOM     16  C   UNL     1      48.521   4.933  18.932  0.00  0.00    +0.000 A 
ATOM     17  C   UNL     1      47.824   5.103  17.734  0.00  0.00    +0.000 A 
ATOM     18  C   UNL     1      48.517   5.402  16.567  0.00  0.00    +0.000 A 
ATOM     19  N   UNL     1      47.893   5.674  15.360  0.00  0.00    +0.000 N 
ATOM     20  N   UNL     1      49.860   5.528  16.565  0.00  0.00    +0.000 NA
ATOM     21  C   UNL     1      50.523   5.374  17.740  0.00  0.00    +0.000 A 
ATOM     22  H   UNL     1      48.614   5.697  14.638  0.00  0.00    +0.000 HD
BRANCH  15  24
ATOM     23  N   UNL     1      51.265   4.881  21.135  0.00  0.00    +0.000 NA
ATOM     24  C   UNL     1      50.655   4.966  20.154  0.00  0.00    +0.000 C 
ENDBRANCH  15  24
ENDBRANCH  14  19
ENDBRANCH   1  14
TORSDOF 6
ENDMDL
