MODEL 1
REMARK VINA RESULT:    -7.744      0.000      0.000
REMARK INTER + INTRA:         -10.823
REMARK INTER:                 -10.007
REMARK INTRA:                  -0.816
REMARK UNBOUND:                -0.816
REMARK  Name = 
REMARK  6 active torsions:
REMARK  status: ('A' for Active; 'I' for Inactive)
REMARK    1  A    between atoms: C_1  and  O_2
REMARK    2  A    between atoms: O_2  and  C_3
REMARK    3  A    between atoms: N_9  and  C_10
REMARK    4  A    between atoms: C_10  and  C_11
REMARK    5  A    between atoms: C_14  and  C_15
REMARK    6  A    between atoms: C_15  and  N_16
REMARK                            x       y       z     vdW  Elec       q    Type
REMARK                         _______ _______ _______ _____ _____    ______ ____
ROOT
ATOM      1  C   UNL     1      43.664   5.006  11.072  0.00  0.00    +0.000 A 
ATOM      2  C   UNL     1      43.358   3.713  11.523  0.00  0.00    +0.000 A 
ATOM      3  C   UNL     1      43.739   2.590  10.779  0.00  0.00    +0.000 A 
ATOM      4  C   UNL     1      44.448   2.743   9.580  0.00  0.00    +0.000 A 
ATOM      5  C   UNL     1      44.639   4.032   9.069  0.00  0.00    +0.000 A 
ATOM      6  C   UNL     1      44.255   5.152   9.811  0.00  0.00    +0.000 A 
ENDROOT
BRANCH   1   7
ATOM      7  C   UNL     1      43.472   6.207  11.971  0.00  0.00    +0.000 C 
BRANCH   7  14
ATOM      8  C   UNL     1      47.157   4.901  14.366  0.00  0.00    +0.000 A 
ATOM      9  C   UNL     1      48.097   5.918  14.507  0.00  0.00    +0.000 A 
ATOM     10  C   UNL     1      47.908   7.153  13.875  0.00  0.00    +0.000 A 
ATOM     11  C   UNL     1      46.751   7.374  13.103  0.00  0.00    +0.000 A 
ATOM     12  C   UNL     1      46.280   8.482  12.352  0.00  0.00    +0.000 A 
ATOM     13  C   UNL     1      45.060   8.134  11.819  0.00  0.00    +0.000 A 
ATOM     14  N   UNL     1      44.754   6.863  12.240  0.00  0.00    +0.000 N 
ATOM     15  C   UNL     1      45.806   6.349  12.979  0.00  0.00    +0.000 A 
ATOM     16  C   UNL     1      46.014   5.091  13.574  0.00  0.00    +0.000 A 
BRANCH   8  18
ATOM     17  C   UNL     1      47.525   3.659  16.339  0.00  0.00    +0.000 C 
ATOM     18  O   UNL     1      47.270   3.658  14.936  0.00  0.00    +0.000 OA
ENDBRANCH   8  18
ENDBRANCH   7  14
ENDBRANCH   1   7
BRANCH   4  19
ATOM     19  C   UNL     1      45.122   1.560   8.930  0.00  0.00    +0.000 C 
BRANCH  19  20
ATOM     20  N   UNL     1      46.181   1.937   8.024  0.00  0.00    +0.000 N 
ATOM     21  C   UNL     1      47.085   1.040   7.565  0.00  0.00    +0.000 C 
ATOM     22  N   UNL     1      47.100  -0.234   7.707  0.00  0.00    +0.000 NA
ATOM     23  N   UNL     1      48.059   1.627   6.847  0.00  0.00    +0.000 N 
ATOM     24  H   UNL     1      46.603   2.834   8.252  0.00  0.00    +0.000 HD
ATOM     25  H   UNL     1      46.306  -0.540   8.267  0.00  0.00    +0.000 HD
ATOM     26  H   UNL     1      47.696   2.282   6.165  0.00  0.00    +0.000 HD
ATOM     27  H   UNL     1      48.605   0.904   6.385  0.00  0.00    +0.000 HD
ENDBRANCH  19  20
ENDBRANCH   4  19
TORSDOF 5
ENDMDL
MODEL 2
REMARK VINA RESULT:    -7.644      2.125      3.406
REMARK INTER + INTRA:         -10.695
REMARK INTER:                 -10.028
REMARK INTRA:                  -0.666
REMARK UNBOUND:                -0.816
REMARK  Name = 
REMARK  6 active torsions:
REMARK  status: ('A' for Active; 'I' for Inactive)
REMARK    1  A    between atoms: C_1  and  O_2
REMARK    2  A    between atoms: O_2  and  C_3
REMARK    3  A    between atoms: N_9  and  C_10
REMARK    4  A    between atoms: C_10  and  C_11
REMARK    5  A    between atoms: C_14  and  C_15
REMARK    6  A    between atoms: C_15  and  N_16
REMARK                            x       y       z     vdW  Elec       q    Type
REMARK                         _______ _______ _______ _____ _____    ______ ____
ROOT
ATOM      1  C   UNL     1      44.380   4.811  11.736  0.00  0.00    +0.000 A 
ATOM      2  C   UNL     1      43.840   3.534  11.941  0.00  0.00    +0.000 A 
ATOM      3  C   UNL     1      43.934   2.552  10.948  0.00  0.00    +0.000 A 
ATOM      4  C   UNL     1      44.587   2.828   9.739  0.00  0.00    +0.000 A 
ATOM      5  C   UNL     1      45.011   4.138   9.486  0.00  0.00    +0.000 A 
ATOM      6  C   UNL     1      44.913   5.118  10.477  0.00  0.00    +0.000 A 
ENDROOT
BRANCH   1   7
ATOM      7  C   UNL     1      44.497   5.797  12.876  0.00  0.00    +0.000 C 
BRANCH   7  14
ATOM      8  C   UNL     1      45.914  10.096  12.145  0.00  0.00    +0.000 A 
ATOM      9  C   UNL     1      47.301  10.206  12.094  0.00  0.00    +0.000 A 
ATOM     10  C   UNL     1      48.111   9.092  12.343  0.00  0.00    +0.000 A 
ATOM     11  C   UNL     1      47.520   7.847  12.633  0.00  0.00    +0.000 A 
ATOM     12  C   UNL     1      48.049   6.563  12.929  0.00  0.00    +0.000 A 
ATOM     13  C   UNL     1      46.986   5.706  13.102  0.00  0.00    +0.000 A 
ATOM     14  N   UNL     1      45.826   6.412  12.896  0.00  0.00    +0.000 N 
ATOM     15  C   UNL     1      46.124   7.745  12.668  0.00  0.00    +0.000 A 
ATOM     16  C   UNL     1      45.307   8.872  12.464  0.00  0.00    +0.000 A 
BRANCH   8  18
ATOM     17  C   UNL     1      43.740  10.757  11.506  0.00  0.00    +0.000 C 
ATOM     18  O   UNL     1      45.047  11.138  11.931  0.00  0.00    +0.000 OA
ENDBRANCH   8  18
ENDBRANCH   7  14
ENDBRANCH   1   7
BRANCH   4  19
ATOM     19  C   UNL     1      44.959   1.712   8.795  0.00  0.00    +0.000 C 
BRANCH  19  20
ATOM     20  N   UNL     1      46.120   2.013   7.990  0.00  0.00    +0.000 N 
ATOM     21  C   UNL     1      46.978   1.050   7.582  0.00  0.00    +0.000 C 
ATOM     22  N   UNL     1      46.872  -0.223   7.688  0.00  0.00    +0.000 NA
ATOM     23  N   UNL     1      48.058   1.563   6.963  0.00  0.00    +0.000 N 
ATOM     24  H   UNL     1      46.597   2.864   8.278  0.00  0.00    +0.000 HD
ATOM     25  H   UNL     1      46.010  -0.470   8.172  0.00  0.00    +0.000 HD
ATOM     26  H   UNL     1      47.811   2.262   6.273  0.00  0.00    +0.000 HD
ATOM     27  H   UNL     1      48.575   0.805   6.528  0.00  0.00    +0.000 HD
ENDBRANCH  19  20
ENDBRANCH   4  19
TORSDOF 5
ENDMDL
MODEL 3
REMARK VINA RESULT:    -7.295      3.146      7.157
REMARK INTER + INTRA:         -10.244
REMARK INTER:                  -9.591
REMARK INTRA:                  -0.653
REMARK UNBOUND:                -0.816
REMARK  Name = 
REMARK  6 active torsions:
REMARK  status: ('A' for Active; 'I' for Inactive)
REMARK    1  A    between atoms: C_1  and  O_2
REMARK    2  A    between atoms: O_2  and  C_3
REMARK    3  A    between atoms: N_9  and  C_10
REMARK    4  A    between atoms: C_10  and  C_11
REMARK    5  A    between atoms: C_14  and  C_15
REMARK    6  A    between atoms: C_15  and  N_16
REMARK                            x       y       z     vdW  Elec       q    Type
REMARK                         _______ _______ _______ _____ _____    ______ ____
ROOT
ATOM      1  C   UNL     1      45.711   7.067  12.104  0.00  0.00    +0.000 A 
ATOM      2  C   UNL     1      46.787   6.170  12.163  0.00  0.00    +0.000 A 
ATOM      3  C   UNL     1      47.885   6.428  12.992  0.00  0.00    +0.000 A 
ATOM      4  C   UNL     1      47.916   7.580  13.789  0.00  0.00    +0.000 A 
ATOM      5  C   UNL     1      46.904   8.535  13.632  0.00  0.00    +0.000 A 
ATOM      6  C   UNL     1      45.810   8.278  12.802  0.00  0.00    +0.000 A 
ENDROOT
BRANCH   1   7
ATOM      7  C   UNL     1      44.424   6.692  11.404  0.00  0.00    +0.000 C 
BRANCH   7  14
ATOM      8  C   UNL     1      45.675   3.743   8.124  0.00  0.00    +0.000 A 
ATOM      9  C   UNL     1      45.205   2.452   8.351  0.00  0.00    +0.000 A 
ATOM     10  C   UNL     1      44.512   2.145   9.527  0.00  0.00    +0.000 A 
ATOM     11  C   UNL     1      44.273   3.153  10.483  0.00  0.00    +0.000 A 
ATOM     12  C   UNL     1      43.623   3.164  11.744  0.00  0.00    +0.000 A 
ATOM     13  C   UNL     1      43.671   4.453  12.224  0.00  0.00    +0.000 A 
ATOM     14  N   UNL     1      44.301   5.237  11.290  0.00  0.00    +0.000 N 
ATOM     15  C   UNL     1      44.738   4.450  10.237  0.00  0.00    +0.000 A 
ATOM     16  C   UNL     1      45.476   4.752   9.077  0.00  0.00    +0.000 A 
BRANCH   8  18
ATOM     17  C   UNL     1      46.739   3.062   6.130  0.00  0.00    +0.000 C 
ATOM     18  O   UNL     1      46.376   4.126   7.008  0.00  0.00    +0.000 OA
ENDBRANCH   8  18
ENDBRANCH   7  14
ENDBRANCH   1   7
BRANCH   4  19
ATOM     19  C   UNL     1      48.930   7.722  14.896  0.00  0.00    +0.000 C 
BRANCH  19  20
ATOM     20  N   UNL     1      48.402   7.380  16.196  0.00  0.00    +0.000 N 
ATOM     21  C   UNL     1      48.507   6.131  16.706  0.00  0.00    +0.000 C 
ATOM     22  N   UNL     1      49.162   5.126  16.253  0.00  0.00    +0.000 NA
ATOM     23  N   UNL     1      47.832   5.999  17.863  0.00  0.00    +0.000 N 
ATOM     24  H   UNL     1      47.498   7.804  16.385  0.00  0.00    +0.000 HD
ATOM     25  H   UNL     1      49.625   5.368  15.378  0.00  0.00    +0.000 HD
ATOM     26  H   UNL     1      48.014   6.759  18.506  0.00  0.00    +0.000 HD
ATOM     27  H   UNL     1      48.083   5.110  18.288  0.00  0.00    +0.000 HD
ENDBRANCH  19  20
ENDBRANCH   4  19
TORSDOF 5
ENDMDL
MODEL 4
REMARK VINA RESULT:    -7.211      3.133      6.697
REMARK INTER + INTRA:         -10.135
REMARK INTER:                  -9.467
REMARK INTRA:                  -0.668
REMARK UNBOUND:                -0.816
REMARK  Name = 
REMARK  6 active torsions:
REMARK  status: ('A' for Active; 'I' for Inactive)
REMARK    1  A    between atoms: C_1  and  O_2
REMARK    2  A    between atoms: O_2  and  C_3
REMARK    3  A    between atoms: N_9  and  C_10
REMARK    4  A    between atoms: C_10  and  C_11
REMARK    5  A    between atoms: C_14  and  C_15
REMARK    6  A    between atoms: C_15  and  N_16
REMARK                            x       y       z     vdW  Elec       q    Type
REMARK                         _______ _______ _______ _____ _____    ______ ____
ROOT
ATOM      1  C   UNL     1      45.276   6.804  12.457  0.00  0.00    +0.000 A 
ATOM      2  C   UNL     1      45.614   8.144  12.690  0.00  0.00    +0.000 A 
ATOM      3  C   UNL     1      46.841   8.478  13.276  0.00  0.00    +0.000 A 
ATOM      4  C   UNL     1      47.756   7.475  13.623  0.00  0.00    +0.000 A 
ATOM      5  C   UNL     1      47.364   6.136  13.509  0.00  0.00    +0.000 A 
ATOM      6  C   UNL     1      46.138   5.804  12.927  0.00  0.00    +0.000 A 
ENDROOT
BRANCH   1   7
ATOM      7  C   UNL     1      44.072   6.441  11.617  0.00  0.00    +0.000 C 
BRANCH   7  14
ATOM      8  C   UNL     1      45.644   3.768   8.240  0.00  0.00    +0.000 A 
ATOM      9  C   UNL     1      45.206   2.451   8.347  0.00  0.00    +0.000 A 
ATOM     10  C   UNL     1      44.447   2.041   9.449  0.00  0.00    +0.000 A 
ATOM     11  C   UNL     1      44.109   2.972  10.451  0.00  0.00    +0.000 A 
ATOM     12  C   UNL     1      43.377   2.875  11.663  0.00  0.00    +0.000 A 
ATOM     13  C   UNL     1      43.346   4.128  12.231  0.00  0.00    +0.000 A 
ATOM     14  N   UNL     1      44.009   4.995  11.397  0.00  0.00    +0.000 N 
ATOM     15  C   UNL     1      44.543   4.297  10.326  0.00  0.00    +0.000 A 
ATOM     16  C   UNL     1      45.345   4.702   9.244  0.00  0.00    +0.000 A 
BRANCH   8  18
ATOM     17  C   UNL     1      46.771   3.281   6.225  0.00  0.00    +0.000 C 
ATOM     18  O   UNL     1      46.404   4.250   7.204  0.00  0.00    +0.000 OA
ENDBRANCH   8  18
ENDBRANCH   7  14
ENDBRANCH   1   7
BRANCH   4  19
ATOM     19  C   UNL     1      49.183   7.823  13.969  0.00  0.00    +0.000 C 
BRANCH  19  20
ATOM     20  N   UNL     1      50.136   7.336  13.000  0.00  0.00    +0.000 N 
ATOM     21  C   UNL     1      50.415   8.017  11.864  0.00  0.00    +0.000 C 
ATOM     22  N   UNL     1      50.039   9.192  11.514  0.00  0.00    +0.000 NA
ATOM     23  N   UNL     1      51.223   7.321  11.043  0.00  0.00    +0.000 N 
ATOM     24  H   UNL     1      50.076   6.333  12.848  0.00  0.00    +0.000 HD
ATOM     25  H   UNL     1      49.437   9.600  12.228  0.00  0.00    +0.000 HD
ATOM     26  H   UNL     1      52.017   6.923  11.529  0.00  0.00    +0.000 HD
ATOM     27  H   UNL     1      51.539   7.937  10.298  0.00  0.00    +0.000 HD
ENDBRANCH  19  20
ENDBRANCH   4  19
TORSDOF 5
ENDMDL
MODEL 5
REMARK VINA RESULT:    -7.039      1.594      2.120
REMARK INTER + INTRA:          -9.912
REMARK INTER:                  -9.350
REMARK INTRA:                  -0.561
REMARK UNBOUND:                -0.816
REMARK  Name = 
REMARK  6 active torsions:
REMARK  status: ('A' for Active; 'I' for Inactive)
REMARK    1  A    between atoms: C_1  and  O_2
REMARK    2  A    between atoms: O_2  and  C_3
REMARK    3  A    between atoms: N_9  and  C_10
REMARK    4  A    between atoms: C_10  and  C_11
REMARK    5  A    between atoms: C_14  and  C_15
REMARK    6  A    between atoms: C_15  and  N_16
REMARK                            x       y       z     vdW  Elec       q    Type
REMARK                         _______ _______ _______ _____ _____    ______ ____
ROOT
ATOM      1  C   UNL     1      44.927   5.065  11.092  0.00  0.00    +0.000 A 
ATOM      2  C   UNL     1      45.697   5.645  10.074  0.00  0.00    +0.000 A 
ATOM      3  C   UNL     1      45.919   4.963   8.872  0.00  0.00    +0.000 A 
ATOM      4  C   UNL     1      45.358   3.696   8.663  0.00  0.00    +0.000 A 
ATOM      5  C   UNL     1      44.701   3.066   9.726  0.00  0.00    +0.000 A 
ATOM      6  C   UNL     1      44.482   3.747  10.927  0.00  0.00    +0.000 A 
ENDROOT
BRANCH   1   7
ATOM      7  C   UNL     1      44.484   5.877  12.288  0.00  0.00    +0.000 C 
BRANCH   7  14
ATOM      8  C   UNL     1      48.422   7.126  14.275  0.00  0.00    +0.000 A 
ATOM      9  C   UNL     1      48.644   8.499  14.220  0.00  0.00    +0.000 A 
ATOM     10  C   UNL     1      47.757   9.334  13.529  0.00  0.00    +0.000 A 
ATOM     11  C   UNL     1      46.624   8.783  12.899  0.00  0.00    +0.000 A 
ATOM     12  C   UNL     1      45.566   9.343  12.136  0.00  0.00    +0.000 A 
ATOM     13  C   UNL     1      44.714   8.318  11.793  0.00  0.00    +0.000 A 
ATOM     14  N   UNL     1      45.197   7.155  12.341  0.00  0.00    +0.000 N 
ATOM     15  C   UNL     1      46.405   7.402  12.973  0.00  0.00    +0.000 A 
ATOM     16  C   UNL     1      47.317   6.554  13.626  0.00  0.00    +0.000 A 
BRANCH   8  18
ATOM     17  C   UNL     1      49.961   6.766  16.029  0.00  0.00    +0.000 C 
ATOM     18  O   UNL     1      49.247   6.234  14.915  0.00  0.00    +0.000 OA
ENDBRANCH   8  18
ENDBRANCH   7  14
ENDBRANCH   1   7
BRANCH   4  19
ATOM     19  C   UNL     1      45.332   3.085   7.284  0.00  0.00    +0.000 C 
BRANCH  19  20
ATOM     20  N   UNL     1      46.610   3.140   6.614  0.00  0.00    +0.000 N 
ATOM     21  C   UNL     1      47.506   2.128   6.696  0.00  0.00    +0.000 C 
ATOM     22  N   UNL     1      47.362   0.963   7.210  0.00  0.00    +0.000 NA
ATOM     23  N   UNL     1      48.678   2.443   6.114  0.00  0.00    +0.000 N 
ATOM     24  H   UNL     1      47.050   4.055   6.666  0.00  0.00    +0.000 HD
ATOM     25  H   UNL     1      46.430   0.862   7.610  0.00  0.00    +0.000 HD
ATOM     26  H   UNL     1      48.556   2.857   5.198  0.00  0.00    +0.000 HD
ATOM     27  H   UNL     1      49.245   1.602   6.047  0.00  0.00    +0.000 HD
ENDBRANCH  19  20
ENDBRANCH   4  19
TORSDOF 5
ENDMDL
MODEL 6
REMARK VINA RESULT:    -6.292      3.666      6.818
REMARK INTER + INTRA:          -8.946
REMARK INTER:                  -8.562
REMARK INTRA:                  -0.384
REMARK UNBOUND:                -0.816
REMARK  Name = 
REMARK  6 active torsions:
REMARK  status: ('A' for Active; 'I' for Inactive)
REMARK    1  A    between atoms: C_1  and  O_2
REMARK    2  A    between atoms: O_2  and  C_3
REMARK    3  A    between atoms: N_9  and  C_10
REMARK    4  A    between atoms: C_10  and  C_11
REMARK    5  A    between atoms: C_14  and  C_15
REMARK    6  A    between atoms: C_15  and  N_16
REMARK                            x       y       z     vdW  Elec       q    Type
REMARK                         _______ _______ _______ _____ _____    ______ ____
ROOT
ATOM      1  C   UNL     1      47.881   5.808  14.529  0.00  0.00    +0.000 A 
ATOM      2  C   UNL     1      48.662   6.371  15.549  0.00  0.00    +0.000 A 
ATOM      3  C   UNL     1      48.787   5.730  16.787  0.00  0.00    +0.000 A 
ATOM      4  C   UNL     1      48.146   4.506  17.019  0.00  0.00    +0.000 A 
ATOM      5  C   UNL     1      47.265   4.012  16.049  0.00  0.00    +0.000 A 
ATOM      6  C   UNL     1      47.139   4.654  14.814  0.00  0.00    +0.000 A 
ENDROOT
BRANCH   1   7
ATOM      7  C   UNL     1      47.927   6.359  13.122  0.00  0.00    +0.000 C 
BRANCH   7  14
ATOM      8  C   UNL     1      44.411   4.242  11.080  0.00  0.00    +0.000 A 
ATOM      9  C   UNL     1      43.396   5.119  10.705  0.00  0.00    +0.000 A 
ATOM     10  C   UNL     1      43.472   6.476  11.037  0.00  0.00    +0.000 A 
ATOM     11  C   UNL     1      44.591   6.963  11.742  0.00  0.00    +0.000 A 
ATOM     12  C   UNL     1      44.956   8.248  12.220  0.00  0.00    +0.000 A 
ATOM     13  C   UNL     1      46.189   8.133  12.822  0.00  0.00    +0.000 A 
ATOM     14  N   UNL     1      46.604   6.829  12.705  0.00  0.00    +0.000 N 
ATOM     15  C   UNL     1      45.611   6.074  12.101  0.00  0.00    +0.000 A 
ATOM     16  C   UNL     1      45.517   4.701  11.810  0.00  0.00    +0.000 A 
BRANCH   8  18
ATOM     17  C   UNL     1      44.638   2.555   9.445  0.00  0.00    +0.000 C 
ATOM     18  O   UNL     1      44.409   2.896  10.810  0.00  0.00    +0.000 OA
ENDBRANCH   8  18
ENDBRANCH   7  14
ENDBRANCH   1   7
BRANCH   4  19
ATOM     19  C   UNL     1      48.507   3.664  18.217  0.00  0.00    +0.000 C 
BRANCH  19  20
ATOM     20  N   UNL     1      49.895   3.266  18.234  0.00  0.00    +0.000 N 
ATOM     21  C   UNL     1      50.382   2.331  17.385  0.00  0.00    +0.000 C 
ATOM     22  N   UNL     1      49.806   1.766  16.389  0.00  0.00    +0.000 NA
ATOM     23  N   UNL     1      51.661   2.015  17.662  0.00  0.00    +0.000 N 
ATOM     24  H   UNL     1      50.275   3.177  19.172  0.00  0.00    +0.000 HD
ATOM     25  H   UNL     1      48.847   2.101  16.296  0.00  0.00    +0.000 HD
ATOM     26  H   UNL     1      52.240   2.833  17.802  0.00  0.00    +0.000 HD
ATOM     27  H   UNL     1      52.029   1.449  16.902  0.00  0.00    +0.000 HD
ENDBRANCH  19  20
ENDBRANCH   4  19
TORSDOF 5
ENDMDL
MODEL 7
REMARK VINA RESULT:    -6.259      2.194      3.131
REMARK INTER + INTRA:          -8.904
REMARK INTER:                  -8.385
REMARK INTRA:                  -0.518
REMARK UNBOUND:                -0.816
REMARK  Name = 
REMARK  6 active torsions:
REMARK  status: ('A' for Active; 'I' for Inactive)
REMARK    1  A    between atoms: C_1  and  O_2
REMARK    2  A    between atoms: O_2  and  C_3
REMARK    3  A    between atoms: N_9  and  C_10
REMARK    4  A    between atoms: C_10  and  C_11
REMARK    5  A    between atoms: C_14  and  C_15
REMARK    6  A    between atoms: C_15  and  N_16
REMARK                            x       y       z     vdW  Elec       q    Type
REMARK                         _______ _______ _______ _____ _____    ______ ____
ROOT
ATOM      1  C   UNL     1      45.346   5.380  11.161  0.00  0.00    +0.000 A 
ATOM      2  C   UNL     1      44.628   4.179  11.057  0.00  0.00    +0.000 A 
ATOM      3  C   UNL     1      44.624   3.454   9.860  0.00  0.00    +0.000 A 
ATOM      4  C   UNL     1      45.353   3.909   8.753  0.00  0.00    +0.000 A 
ATOM      5  C   UNL     1      45.961   5.169   8.818  0.00  0.00    +0.000 A 
ATOM      6  C   UNL     1      45.962   5.894  10.013  0.00  0.00    +0.000 A 
ENDROOT
BRANCH   1   7
ATOM      7  C   UNL     1      45.554   6.046  12.503  0.00  0.00    +0.000 C 
BRANCH   7  14
ATOM      8  C   UNL     1      49.436   8.454  12.121  0.00  0.00    +0.000 A 
ATOM      9  C   UNL     1      49.223   9.830  12.154  0.00  0.00    +0.000 A 
ATOM     10  C   UNL     1      47.923  10.347  12.204  0.00  0.00    +0.000 A 
ATOM     11  C   UNL     1      46.822   9.469  12.238  0.00  0.00    +0.000 A 
ATOM     12  C   UNL     1      45.418   9.671  12.285  0.00  0.00    +0.000 A 
ATOM     13  C   UNL     1      44.822   8.431  12.328  0.00  0.00    +0.000 A 
ATOM     14  N   UNL     1      45.810   7.478  12.337  0.00  0.00    +0.000 N 
ATOM     15  C   UNL     1      47.049   8.088  12.218  0.00  0.00    +0.000 A 
ATOM     16  C   UNL     1      48.351   7.565  12.121  0.00  0.00    +0.000 A 
BRANCH   8  18
ATOM     17  C   UNL     1      51.461   8.241  10.927  0.00  0.00    +0.000 C 
ATOM     18  O   UNL     1      50.673   7.864  12.054  0.00  0.00    +0.000 OA
ENDBRANCH   8  18
ENDBRANCH   7  14
ENDBRANCH   1   7
BRANCH   4  19
ATOM     19  C   UNL     1      45.604   3.004   7.573  0.00  0.00    +0.000 C 
BRANCH  19  20
ATOM     20  N   UNL     1      45.941   1.653   7.956  0.00  0.00    +0.000 N 
ATOM     21  C   UNL     1      47.004   1.003   7.427  0.00  0.00    +0.000 C 
ATOM     22  N   UNL     1      47.929   1.456   6.663  0.00  0.00    +0.000 NA
ATOM     23  N   UNL     1      47.055  -0.284   7.817  0.00  0.00    +0.000 N 
ATOM     24  H   UNL     1      45.128   1.052   8.059  0.00  0.00    +0.000 HD
ATOM     25  H   UNL     1      47.767   2.440   6.452  0.00  0.00    +0.000 HD
ATOM     26  H   UNL     1      46.918  -0.391   8.815  0.00  0.00    +0.000 HD
ATOM     27  H   UNL     1      47.952  -0.673   7.541  0.00  0.00    +0.000 HD
ENDBRANCH  19  20
ENDBRANCH   4  19
TORSDOF 5
ENDMDL
MODEL 8
REMARK VINA RESULT:    -6.158      2.395      4.088
REMARK INTER + INTRA:          -8.773
REMARK INTER:                  -7.938
REMARK INTRA:                  -0.835
REMARK UNBOUND:                -0.816
REMARK  Name = 
REMARK  6 active torsions:
REMARK  status: ('A' for Active; 'I' for Inactive)
REMARK    1  A    between atoms: C_1  and  O_2
REMARK    2  A    between atoms: O_2  and  C_3
REMARK    3  A    between atoms: N_9  and  C_10
REMARK    4  A    between atoms: C_10  and  C_11
REMARK    5  A    between atoms: C_14  and  C_15
REMARK    6  A    between atoms: C_15  and  N_16
REMARK                            x       y       z     vdW  Elec       q    Type
REMARK                         _______ _______ _______ _____ _____    ______ ____
ROOT
ATOM      1  C   UNL     1      47.170   6.428  12.909  0.00  0.00    +0.000 A 
ATOM      2  C   UNL     1      46.468   5.308  13.377  0.00  0.00    +0.000 A 
ATOM      3  C   UNL     1      45.212   4.984  12.851  0.00  0.00    +0.000 A 
ATOM      4  C   UNL     1      44.646   5.766  11.836  0.00  0.00    +0.000 A 
ATOM      5  C   UNL     1      45.288   6.953  11.462  0.00  0.00    +0.000 A 
ATOM      6  C   UNL     1      46.541   7.277  11.990  0.00  0.00    +0.000 A 
ENDROOT
BRANCH   1   7
ATOM      7  C   UNL     1      48.616   6.653  13.292  0.00  0.00    +0.000 C 
BRANCH   7  14
ATOM      8  C   UNL     1      48.452   5.344  17.683  0.00  0.00    +0.000 A 
ATOM      9  C   UNL     1      48.407   6.420  18.566  0.00  0.00    +0.000 A 
ATOM     10  C   UNL     1      48.501   7.733  18.091  0.00  0.00    +0.000 A 
ATOM     11  C   UNL     1      48.627   7.970  16.708  0.00  0.00    +0.000 A 
ATOM     12  C   UNL     1      48.747   9.150  15.929  0.00  0.00    +0.000 A 
ATOM     13  C   UNL     1      48.812   8.772  14.608  0.00  0.00    +0.000 A 
ATOM     14  N   UNL     1      48.709   7.404  14.547  0.00  0.00    +0.000 N 
ATOM     15  C   UNL     1      48.658   6.881  15.828  0.00  0.00    +0.000 A 
ATOM     16  C   UNL     1      48.610   5.558  16.305  0.00  0.00    +0.000 A 
BRANCH   8  18
ATOM     17  C   UNL     1      47.389   3.257  17.391  0.00  0.00    +0.000 C 
ATOM     18  O   UNL     1      48.383   4.027  18.064  0.00  0.00    +0.000 OA
ENDBRANCH   8  18
ENDBRANCH   7  14
ENDBRANCH   1   7
BRANCH   4  19
ATOM     19  C   UNL     1      43.454   5.269  11.057  0.00  0.00    +0.000 C 
BRANCH  19  20
ATOM     20  N   UNL     1      43.796   4.796   9.736  0.00  0.00    +0.000 N 
ATOM     21  C   UNL     1      44.197   3.523   9.512  0.00  0.00    +0.000 C 
ATOM     22  N   UNL     1      44.213   2.528  10.321  0.00  0.00    +0.000 NA
ATOM     23  N   UNL     1      44.594   3.335   8.241  0.00  0.00    +0.000 N 
ATOM     24  H   UNL     1      44.326   5.473   9.194  0.00  0.00    +0.000 HD
ATOM     25  H   UNL     1      43.885   2.813  11.243  0.00  0.00    +0.000 HD
ATOM     26  H   UNL     1      43.941   3.720   7.570  0.00  0.00    +0.000 HD
ATOM     27  H   UNL     1      44.716   2.338   8.081  0.00  0.00    +0.000 HD
ENDBRANCH  19  20
ENDBRANCH   4  19
TORSDOF 5
ENDMDL
MODEL 9
REMARK VINA RESULT:    -5.975      3.512      4.795
REMARK INTER + INTRA:          -8.537
REMARK INTER:                  -8.002
REMARK INTRA:                  -0.535
REMARK UNBOUND:                -0.816
REMARK  Name = 
REMARK  6 active torsions:
REMARK  status: ('A' for Active; 'I' for Inactive)
REMARK    1  A    between atoms: C_1  and  O_2
REMARK    2  A    between atoms: O_2  and  C_3
REMARK    3  A    between atoms: N_9  and  C_10
REMARK    4  A    between atoms: C_10  and  C_11
REMARK    5  A    between atoms: C_14  and  C_15
REMARK    6  A    between atoms: C_15  and  N_16
REMARK                            x       y       z     vdW  Elec       q    Type
REMARK                         _______ _______ _______ _____ _____    ______ ____
ROOT
ATOM      1  C   UNL     1      47.018   6.185  12.652  0.00  0.00    +0.000 A 
ATOM      2  C   UNL     1      46.294   5.363  13.528  0.00  0.00    +0.000 A 
ATOM      3  C   UNL     1      45.198   4.623  13.069  0.00  0.00    +0.000 A 
ATOM      4  C   UNL     1      44.820   4.680  11.721  0.00  0.00    +0.000 A 
ATOM      5  C   UNL     1      45.461   5.597  10.879  0.00  0.00    +0.000 A 
ATOM      6  C   UNL     1      46.553   6.338  11.339  0.00  0.00    +0.000 A 
ENDROOT
BRANCH   1   7
ATOM      7  C   UNL     1      48.334   6.799  13.073  0.00  0.00    +0.000 C 
BRANCH   7  14
ATOM      8  C   UNL     1      51.688   8.863  10.725  0.00  0.00    +0.000 A 
ATOM      9  C   UNL     1      51.472  10.229  10.563  0.00  0.00    +0.000 A 
ATOM     10  C   UNL     1      50.286  10.819  11.015  0.00  0.00    +0.000 A 
ATOM     11  C   UNL     1      49.309  10.029  11.653  0.00  0.00    +0.000 A 
ATOM     12  C   UNL     1      48.034  10.315  12.205  0.00  0.00    +0.000 A 
ATOM     13  C   UNL     1      47.534   9.143  12.725  0.00  0.00    +0.000 A 
ATOM     14  N   UNL     1      48.469   8.155  12.536  0.00  0.00    +0.000 N 
ATOM     15  C   UNL     1      49.544   8.659  11.822  0.00  0.00    +0.000 A 
ATOM     16  C   UNL     1      50.714   8.054  11.329  0.00  0.00    +0.000 A 
BRANCH   8  18
ATOM     17  C   UNL     1      52.623   6.819  10.003  0.00  0.00    +0.000 C 
ATOM     18  O   UNL     1      52.812   8.202  10.298  0.00  0.00    +0.000 OA
ENDBRANCH   8  18
ENDBRANCH   7  14
ENDBRANCH   1   7
BRANCH   4  19
ATOM     19  C   UNL     1      43.849   3.676  11.152  0.00  0.00    +0.000 C 
BRANCH  19  20
ATOM     20  N   UNL     1      44.501   2.548  10.527  0.00  0.00    +0.000 N 
ATOM     21  C   UNL     1      44.623   2.447   9.183  0.00  0.00    +0.000 C 
ATOM     22  N   UNL     1      44.347   3.313   8.279  0.00  0.00    +0.000 NA
ATOM     23  N   UNL     1      45.137   1.260   8.811  0.00  0.00    +0.000 N 
ATOM     24  H   UNL     1      44.272   1.660  10.966  0.00  0.00    +0.000 HD
ATOM     25  H   UNL     1      43.971   4.161   8.702  0.00  0.00    +0.000 HD
ATOM     26  H   UNL     1      45.953   1.005   9.353  0.00  0.00    +0.000 HD
ATOM     27  H   UNL     1      45.369   1.300   7.822  0.00  0.00    +0.000 HD
ENDBRANCH  19  20
ENDBRANCH   4  19
TORSDOF 5
ENDMDL
