MODEL 1
REMARK VINA RESULT:    -8.066      0.000      0.000
REMARK INTER + INTRA:         -12.327
REMARK INTER:                 -11.131
REMARK INTRA:                  -1.196
REMARK UNBOUND:                -1.196
REMARK  Name = 
REMARK  8 active torsions:
REMARK  status: ('A' for Active; 'I' for Inactive)
REMARK    1  A    between atoms: C_1  and  C_2
REMARK    2  A    between atoms: C_2  and  C_3
REMARK    3  A    between atoms: C_7  and  C_8
REMARK    4  A    between atoms: C_8  and  C_9
REMARK    5  A    between atoms: C_9  and  N_10
REMARK    6  A    between atoms: N_10  and  C_11
REMARK    7  A    between atoms: C_14  and  C_15
REMARK    8  A    between atoms: C_23  and  O_24
REMARK                            x       y       z     vdW  Elec       q    Type
REMARK                         _______ _______ _______ _____ _____    ______ ____
ROOT
ATOM      1  C   UNL     1      43.774   5.884  12.099  0.00  0.00    +0.000 C 
ENDROOT
BRANCH   1   6
ATOM      2  C   UNL     1      47.463   6.735  12.687  0.00  0.00    +0.000 A 
ATOM      3  C   UNL     1      47.839   5.648  13.497  0.00  0.00    +0.000 A 
ATOM      4  C   UNL     1      46.931   4.640  13.833  0.00  0.00    +0.000 A 
ATOM      5  C   UNL     1      45.621   4.689  13.364  0.00  0.00    +0.000 A 
ATOM      6  C   UNL     1      45.211   5.750  12.556  0.00  0.00    +0.000 A 
ATOM      7  C   UNL     1      46.132   6.764  12.240  0.00  0.00    +0.000 A 
BRANCH   2   9
ATOM      8  C   UNL     1      49.528   7.304  11.421  0.00  0.00    +0.000 C 
ATOM      9  C   UNL     1      48.468   7.863  12.393  0.00  0.00    +0.000 C 
ATOM     10  C   UNL     1      47.771   9.113  11.787  0.00  0.00    +0.000 C 
ATOM     11  C   UNL     1      47.599  10.145  12.912  0.00  0.00    +0.000 C 
ATOM     12  C   UNL     1      48.231   9.540  14.156  0.00  0.00    +0.000 C 
ATOM     13  C   UNL     1      49.187   8.480  13.621  0.00  0.00    +0.000 C 
BRANCH  12  14
ATOM     14  O   UNL     1      47.236   8.989  15.008  0.00  0.00    +0.000 OA
ATOM     15  H   UNL     1      47.031   8.086  14.705  0.00  0.00    +0.000 HD
ENDBRANCH  12  14
ENDBRANCH   2   9
ENDBRANCH   1   6
BRANCH   1  16
ATOM     16  C   UNL     1      43.411   4.706  11.191  0.00  0.00    +0.000 C 
BRANCH  16  17
ATOM     17  N   UNL     1      43.764   4.959   9.787  0.00  0.00    +0.000 N 
ATOM     18  H   UNL     1      44.120   5.901   9.638  0.00  0.00    +0.000 HD
BRANCH  17  19
ATOM     19  C   UNL     1      44.603   3.992   9.197  0.00  0.00    +0.000 A 
ATOM     20  C   UNL     1      45.536   4.377   8.232  0.00  0.00    +0.000 A 
ATOM     21  C   UNL     1      46.366   3.424   7.632  0.00  0.00    +0.000 A 
ATOM     22  C   UNL     1      46.208   2.093   7.992  0.00  0.00    +0.000 A 
ATOM     23  N   UNL     1      45.274   1.656   8.872  0.00  0.00    +0.000 NA
ATOM     24  C   UNL     1      44.491   2.614   9.426  0.00  0.00    +0.000 A 
BRANCH  22  25
ATOM     25  C   UNL     1      47.110   1.046   7.415  0.00  0.00    +0.000 C 
ATOM     26  N   UNL     1      46.777  -0.247   7.722  0.00  0.00    +0.000 N 
ATOM     27  O   UNL     1      48.080   1.316   6.722  0.00  0.00    +0.000 OA
ATOM     28  H   UNL     1      45.967  -0.428   8.305  0.00  0.00    +0.000 HD
ATOM     29  H   UNL     1      47.350  -1.005   7.383  0.00  0.00    +0.000 HD
ENDBRANCH  22  25
ENDBRANCH  17  19
ENDBRANCH  16  17
ENDBRANCH   1  16
TORSDOF 7
ENDMDL
MODEL 2
REMARK VINA RESULT:    -7.841      1.082      1.610
REMARK INTER + INTRA:         -12.016
REMARK INTER:                 -11.748
REMARK INTRA:                  -0.268
REMARK UNBOUND:                -1.196
REMARK  Name = 
REMARK  8 active torsions:
REMARK  status: ('A' for Active; 'I' for Inactive)
REMARK    1  A    between atoms: C_1  and  C_2
REMARK    2  A    between atoms: C_2  and  C_3
REMARK    3  A    between atoms: C_7  and  C_8
REMARK    4  A    between atoms: C_8  and  C_9
REMARK    5  A    between atoms: C_9  and  N_10
REMARK    6  A    between atoms: N_10  and  C_11
REMARK    7  A    between atoms: C_14  and  C_15
REMARK    8  A    between atoms: C_23  and  O_24
REMARK                            x       y       z     vdW  Elec       q    Type
REMARK                         _______ _______ _______ _____ _____    ______ ____
ROOT
ATOM      1  C   UNL     1      43.174   5.375  12.260  0.00  0.00    +0.000 C 
ENDROOT
BRANCH   1   6
ATOM      2  C   UNL     1      46.550   7.038  12.973  0.00  0.00    +0.000 A 
ATOM      3  C   UNL     1      47.234   5.961  13.565  0.00  0.00    +0.000 A 
ATOM      4  C   UNL     1      46.632   4.709  13.715  0.00  0.00    +0.000 A 
ATOM      5  C   UNL     1      45.329   4.497  13.271  0.00  0.00    +0.000 A 
ATOM      6  C   UNL     1      44.619   5.541  12.676  0.00  0.00    +0.000 A 
ATOM      7  C   UNL     1      45.233   6.799  12.547  0.00  0.00    +0.000 A 
BRANCH   2   9
ATOM      8  C   UNL     1      46.118   9.450  12.540  0.00  0.00    +0.000 C 
ATOM      9  C   UNL     1      47.217   8.423  12.887  0.00  0.00    +0.000 C 
ATOM     10  C   UNL     1      47.927   8.805  14.215  0.00  0.00    +0.000 C 
ATOM     11  C   UNL     1      49.431   8.548  14.033  0.00  0.00    +0.000 C 
ATOM     12  C   UNL     1      49.619   8.070  12.601  0.00  0.00    +0.000 C 
ATOM     13  C   UNL     1      48.377   8.565  11.868  0.00  0.00    +0.000 C 
BRANCH  12  14
ATOM     14  O   UNL     1      49.744   6.655  12.556  0.00  0.00    +0.000 OA
ATOM     15  H   UNL     1      50.662   6.431  12.317  0.00  0.00    +0.000 HD
ENDBRANCH  12  14
ENDBRANCH   2   9
ENDBRANCH   1   6
BRANCH   1  16
ATOM     16  C   UNL     1      43.080   4.367  11.111  0.00  0.00    +0.000 C 
BRANCH  16  17
ATOM     17  N   UNL     1      43.757   4.845   9.899  0.00  0.00    +0.000 N 
ATOM     18  H   UNL     1      44.238   5.731  10.044  0.00  0.00    +0.000 HD
BRANCH  17  19
ATOM     19  C   UNL     1      44.595   3.903   9.269  0.00  0.00    +0.000 A 
ATOM     20  C   UNL     1      45.459   4.311   8.250  0.00  0.00    +0.000 A 
ATOM     21  C   UNL     1      46.287   3.382   7.612  0.00  0.00    +0.000 A 
ATOM     22  C   UNL     1      46.196   2.050   7.989  0.00  0.00    +0.000 A 
ATOM     23  N   UNL     1      45.330   1.589   8.924  0.00  0.00    +0.000 NA
ATOM     24  C   UNL     1      44.545   2.524   9.514  0.00  0.00    +0.000 A 
BRANCH  22  25
ATOM     25  C   UNL     1      47.101   1.030   7.370  0.00  0.00    +0.000 C 
ATOM     26  N   UNL     1      46.816  -0.273   7.685  0.00  0.00    +0.000 N 
ATOM     27  O   UNL     1      48.033   1.328   6.638  0.00  0.00    +0.000 OA
ATOM     28  H   UNL     1      46.037  -0.478   8.301  0.00  0.00    +0.000 HD
ATOM     29  H   UNL     1      47.394  -1.015   7.319  0.00  0.00    +0.000 HD
ENDBRANCH  22  25
ENDBRANCH  17  19
ENDBRANCH  16  17
ENDBRANCH   1  16
TORSDOF 7
ENDMDL
MODEL 3
REMARK VINA RESULT:    -7.768      0.950      1.632
REMARK INTER + INTRA:         -11.916
REMARK INTER:                 -11.019
REMARK INTRA:                  -0.897
REMARK UNBOUND:                -1.196
REMARK  Name = 
REMARK  8 active torsions:
REMARK  status: ('A' for Active; 'I' for Inactive)
REMARK    1  A    between atoms: C_1  and  C_2
REMARK    2  A    between atoms: C_2  and  C_3
REMARK    3  A    between atoms: C_7  and  C_8
REMARK    4  A    between atoms: C_8  and  C_9
REMARK    5  A    between atoms: C_9  and  N_10
REMARK    6  A    between atoms: N_10  and  C_11
REMARK    7  A    between atoms: C_14  and  C_15
REMARK    8  A    between atoms: C_23  and  O_24
REMARK                            x       y       z     vdW  Elec       q    Type
REMARK                         _______ _______ _______ _____ _____    ______ ____
ROOT
ATOM      1  C   UNL     1      45.080   4.900  11.893  0.00  0.00    +0.000 C 
ENDROOT
BRANCH   1   6
ATOM      2  C   UNL     1      47.244   8.026  12.364  0.00  0.00    +0.000 A 
ATOM      3  C   UNL     1      46.307   9.024  12.037  0.00  0.00    +0.000 A 
ATOM      4  C   UNL     1      44.991   8.704  11.693  0.00  0.00    +0.000 A 
ATOM      5  C   UNL     1      44.573   7.376  11.671  0.00  0.00    +0.000 A 
ATOM      6  C   UNL     1      45.472   6.359  11.991  0.00  0.00    +0.000 A 
ATOM      7  C   UNL     1      46.797   6.695  12.320  0.00  0.00    +0.000 A 
BRANCH   2   9
ATOM      8  C   UNL     1      49.594   7.749  11.595  0.00  0.00    +0.000 C 
ATOM      9  C   UNL     1      48.703   8.407  12.671  0.00  0.00    +0.000 C 
ATOM     10  C   UNL     1      48.907   9.948  12.685  0.00  0.00    +0.000 C 
ATOM     11  C   UNL     1      48.933  10.403  14.152  0.00  0.00    +0.000 C 
ATOM     12  C   UNL     1      48.801   9.146  14.999  0.00  0.00    +0.000 C 
ATOM     13  C   UNL     1      49.236   8.016  14.073  0.00  0.00    +0.000 C 
BRANCH  12  14
ATOM     14  O   UNL     1      47.465   8.986  15.455  0.00  0.00    +0.000 OA
ATOM     15  H   UNL     1      47.200   8.056  15.326  0.00  0.00    +0.000 HD
ENDBRANCH  12  14
ENDBRANCH   2   9
ENDBRANCH   1   6
BRANCH   1  16
ATOM     16  C   UNL     1      43.680   4.782  11.284  0.00  0.00    +0.000 C 
BRANCH  16  17
ATOM     17  N   UNL     1      43.711   4.816   9.816  0.00  0.00    +0.000 N 
ATOM     18  H   UNL     1      43.865   5.754   9.450  0.00  0.00    +0.000 HD
BRANCH  17  19
ATOM     19  C   UNL     1      44.576   3.881   9.213  0.00  0.00    +0.000 A 
ATOM     20  C   UNL     1      45.506   4.305   8.261  0.00  0.00    +0.000 A 
ATOM     21  C   UNL     1      46.361   3.383   7.649  0.00  0.00    +0.000 A 
ATOM     22  C   UNL     1      46.233   2.042   7.983  0.00  0.00    +0.000 A 
ATOM     23  N   UNL     1      45.304   1.568   8.849  0.00  0.00    +0.000 NA
ATOM     24  C   UNL     1      44.495   2.496   9.415  0.00  0.00    +0.000 A 
BRANCH  22  25
ATOM     25  C   UNL     1      47.162   1.028   7.393  0.00  0.00    +0.000 C 
ATOM     26  N   UNL     1      46.837  -0.280   7.643  0.00  0.00    +0.000 N 
ATOM     27  O   UNL     1      48.147   1.334   6.737  0.00  0.00    +0.000 OA
ATOM     28  H   UNL     1      46.014  -0.491   8.196  0.00  0.00    +0.000 HD
ATOM     29  H   UNL     1      47.428  -1.018   7.291  0.00  0.00    +0.000 HD
ENDBRANCH  22  25
ENDBRANCH  17  19
ENDBRANCH  16  17
ENDBRANCH   1  16
TORSDOF 7
ENDMDL
MODEL 4
REMARK VINA RESULT:    -7.439      2.665      4.055
REMARK INTER + INTRA:         -11.462
REMARK INTER:                 -10.639
REMARK INTRA:                  -0.822
REMARK UNBOUND:                -1.196
REMARK  Name = 
REMARK  8 active torsions:
REMARK  status: ('A' for Active; 'I' for Inactive)
REMARK    1  A    between atoms: C_1  and  C_2
REMARK    2  A    between atoms: C_2  and  C_3
REMARK    3  A    between atoms: C_7  and  C_8
REMARK    4  A    between atoms: C_8  and  C_9
REMARK    5  A    between atoms: C_9  and  N_10
REMARK    6  A    between atoms: N_10  and  C_11
REMARK    7  A    between atoms: C_14  and  C_15
REMARK    8  A    between atoms: C_23  and  O_24
REMARK                            x       y       z     vdW  Elec       q    Type
REMARK                         _______ _______ _______ _____ _____    ______ ____
ROOT
ATOM      1  C   UNL     1      45.292   4.558  12.663  0.00  0.00    +0.000 C 
ENDROOT
BRANCH   1   6
ATOM      2  C   UNL     1      47.830   5.513  15.369  0.00  0.00    +0.000 A 
ATOM      3  C   UNL     1      48.647   6.395  14.638  0.00  0.00    +0.000 A 
ATOM      4  C   UNL     1      48.378   6.701  13.302  0.00  0.00    +0.000 A 
ATOM      5  C   UNL     1      47.279   6.136  12.659  0.00  0.00    +0.000 A 
ATOM      6  C   UNL     1      46.444   5.258  13.351  0.00  0.00    +0.000 A 
ATOM      7  C   UNL     1      46.737   4.949  14.691  0.00  0.00    +0.000 A 
BRANCH   2   9
ATOM      8  C   UNL     1      48.535   6.452  17.563  0.00  0.00    +0.000 C 
ATOM      9  C   UNL     1      48.195   5.144  16.818  0.00  0.00    +0.000 C 
ATOM     10  C   UNL     1      47.037   4.391  17.531  0.00  0.00    +0.000 C 
ATOM     11  C   UNL     1      47.375   2.892  17.520  0.00  0.00    +0.000 C 
ATOM     12  C   UNL     1      48.739   2.761  16.858  0.00  0.00    +0.000 C 
ATOM     13  C   UNL     1      49.366   4.143  16.999  0.00  0.00    +0.000 C 
BRANCH  12  14
ATOM     14  O   UNL     1      48.602   2.365  15.500  0.00  0.00    +0.000 OA
ATOM     15  H   UNL     1      49.439   2.552  15.035  0.00  0.00    +0.000 HD
ENDBRANCH  12  14
ENDBRANCH   2   9
ENDBRANCH   1   6
BRANCH   1  16
ATOM     16  C   UNL     1      44.790   5.415  11.498  0.00  0.00    +0.000 C 
BRANCH  16  17
ATOM     17  N   UNL     1      44.055   4.622  10.503  0.00  0.00    +0.000 N 
ATOM     18  H   UNL     1      43.297   5.145  10.069  0.00  0.00    +0.000 HD
BRANCH  17  19
ATOM     19  C   UNL     1      44.857   3.981   9.537  0.00  0.00    +0.000 A 
ATOM     20  C   UNL     1      44.980   2.590   9.545  0.00  0.00    +0.000 A 
ATOM     21  C   UNL     1      45.781   1.946   8.597  0.00  0.00    +0.000 A 
ATOM     22  C   UNL     1      46.475   2.726   7.681  0.00  0.00    +0.000 A 
ATOM     23  N   UNL     1      46.444   4.081   7.670  0.00  0.00    +0.000 NA
ATOM     24  C   UNL     1      45.657   4.662   8.609  0.00  0.00    +0.000 A 
BRANCH  22  25
ATOM     25  C   UNL     1      47.302   2.077   6.615  0.00  0.00    +0.000 C 
ATOM     26  N   UNL     1      48.150   2.915   5.940  0.00  0.00    +0.000 N 
ATOM     27  O   UNL     1      47.230   0.885   6.354  0.00  0.00    +0.000 OA
ATOM     28  H   UNL     1      48.175   3.899   6.185  0.00  0.00    +0.000 HD
ATOM     29  H   UNL     1      48.726   2.552   5.196  0.00  0.00    +0.000 HD
ENDBRANCH  22  25
ENDBRANCH  17  19
ENDBRANCH  16  17
ENDBRANCH   1  16
TORSDOF 7
ENDMDL
MODEL 5
REMARK VINA RESULT:    -7.303      2.271      3.465
REMARK INTER + INTRA:         -11.273
REMARK INTER:                 -10.722
REMARK INTRA:                  -0.551
REMARK UNBOUND:                -1.196
REMARK  Name = 
REMARK  8 active torsions:
REMARK  status: ('A' for Active; 'I' for Inactive)
REMARK    1  A    between atoms: C_1  and  C_2
REMARK    2  A    between atoms: C_2  and  C_3
REMARK    3  A    between atoms: C_7  and  C_8
REMARK    4  A    between atoms: C_8  and  C_9
REMARK    5  A    between atoms: C_9  and  N_10
REMARK    6  A    between atoms: N_10  and  C_11
REMARK    7  A    between atoms: C_14  and  C_15
REMARK    8  A    between atoms: C_23  and  O_24
REMARK                            x       y       z     vdW  Elec       q    Type
REMARK                         _______ _______ _______ _____ _____    ______ ____
ROOT
ATOM      1  C   UNL     1      45.260   4.723  12.478  0.00  0.00    +0.000 C 
ENDROOT
BRANCH   1   6
ATOM      2  C   UNL     1      47.715   5.144  15.389  0.00  0.00    +0.000 A 
ATOM      3  C   UNL     1      48.455   6.248  14.928  0.00  0.00    +0.000 A 
ATOM      4  C   UNL     1      48.159   6.868  13.711  0.00  0.00    +0.000 A 
ATOM      5  C   UNL     1      47.109   6.403  12.922  0.00  0.00    +0.000 A 
ATOM      6  C   UNL     1      46.351   5.311  13.347  0.00  0.00    +0.000 A 
ATOM      7  C   UNL     1      46.672   4.689  14.566  0.00  0.00    +0.000 A 
BRANCH   2   9
ATOM      8  C   UNL     1      47.931   2.923  16.489  0.00  0.00    +0.000 C 
ATOM      9  C   UNL     1      48.112   4.441  16.699  0.00  0.00    +0.000 C 
ATOM     10  C   UNL     1      49.575   4.769  17.110  0.00  0.00    +0.000 C 
ATOM     11  C   UNL     1      49.525   5.843  18.207  0.00  0.00    +0.000 C 
ATOM     12  C   UNL     1      48.053   6.113  18.482  0.00  0.00    +0.000 C 
ATOM     13  C   UNL     1      47.335   4.869  17.972  0.00  0.00    +0.000 C 
BRANCH  12  14
ATOM     14  O   UNL     1      47.625   7.294  17.817  0.00  0.00    +0.000 OA
ATOM     15  H   UNL     1      46.651   7.295  17.778  0.00  0.00    +0.000 HD
ENDBRANCH  12  14
ENDBRANCH   2   9
ENDBRANCH   1   6
BRANCH   1  16
ATOM     16  C   UNL     1      44.989   5.652  11.292  0.00  0.00    +0.000 C 
BRANCH  16  17
ATOM     17  N   UNL     1      44.231   4.983  10.226  0.00  0.00    +0.000 N 
ATOM     18  H   UNL     1      43.764   5.642   9.606  0.00  0.00    +0.000 HD
BRANCH  17  19
ATOM     19  C   UNL     1      44.948   4.012   9.499  0.00  0.00    +0.000 A 
ATOM     20  C   UNL     1      45.731   4.396   8.409  0.00  0.00    +0.000 A 
ATOM     21  C   UNL     1      46.438   3.439   7.674  0.00  0.00    +0.000 A 
ATOM     22  C   UNL     1      46.308   2.104   8.033  0.00  0.00    +0.000 A 
ATOM     23  N   UNL     1      45.511   1.670   9.040  0.00  0.00    +0.000 NA
ATOM     24  C   UNL     1      44.842   2.632   9.722  0.00  0.00    +0.000 A 
BRANCH  22  25
ATOM     25  C   UNL     1      47.088   1.051   7.309  0.00  0.00    +0.000 C 
ATOM     26  N   UNL     1      46.748  -0.241   7.612  0.00  0.00    +0.000 N 
ATOM     27  O   UNL     1      47.971   1.315   6.507  0.00  0.00    +0.000 OA
ATOM     28  H   UNL     1      46.012  -0.417   8.287  0.00  0.00    +0.000 HD
ATOM     29  H   UNL     1      47.243  -1.004   7.175  0.00  0.00    +0.000 HD
ENDBRANCH  22  25
ENDBRANCH  17  19
ENDBRANCH  16  17
ENDBRANCH   1  16
TORSDOF 7
ENDMDL
MODEL 6
REMARK VINA RESULT:    -6.939      4.858      7.638
REMARK INTER + INTRA:         -10.772
REMARK INTER:                  -9.846
REMARK INTRA:                  -0.925
REMARK UNBOUND:                -1.196
REMARK  Name = 
REMARK  8 active torsions:
REMARK  status: ('A' for Active; 'I' for Inactive)
REMARK    1  A    between atoms: C_1  and  C_2
REMARK    2  A    between atoms: C_2  and  C_3
REMARK    3  A    between atoms: C_7  and  C_8
REMARK    4  A    between atoms: C_8  and  C_9
REMARK    5  A    between atoms: C_9  and  N_10
REMARK    6  A    between atoms: N_10  and  C_11
REMARK    7  A    between atoms: C_14  and  C_15
REMARK    8  A    between atoms: C_23  and  O_24
REMARK                            x       y       z     vdW  Elec       q    Type
REMARK                         _______ _______ _______ _____ _____    ______ ____
ROOT
ATOM      1  C   UNL     1      48.715   6.813  14.283  0.00  0.00    +0.000 C 
ENDROOT
BRANCH   1   6
ATOM      2  C   UNL     1      45.690   6.414  11.966  0.00  0.00    +0.000 A 
ATOM      3  C   UNL     1      45.144   7.708  12.050  0.00  0.00    +0.000 A 
ATOM      4  C   UNL     1      45.749   8.706  12.819  0.00  0.00    +0.000 A 
ATOM      5  C   UNL     1      46.920   8.438  13.523  0.00  0.00    +0.000 A 
ATOM      6  C   UNL     1      47.492   7.166  13.463  0.00  0.00    +0.000 A 
ATOM      7  C   UNL     1      46.863   6.169  12.698  0.00  0.00    +0.000 A 
BRANCH   2   9
ATOM      8  C   UNL     1      45.575   5.286   9.751  0.00  0.00    +0.000 C 
ATOM      9  C   UNL     1      44.961   5.319  11.167  0.00  0.00    +0.000 C 
ATOM     10  C   UNL     1      45.081   3.928  11.851  0.00  0.00    +0.000 C 
ATOM     11  C   UNL     1      43.764   3.657  12.595  0.00  0.00    +0.000 C 
ATOM     12  C   UNL     1      42.855   4.844  12.314  0.00  0.00    +0.000 C 
ATOM     13  C   UNL     1      43.422   5.466  11.043  0.00  0.00    +0.000 C 
BRANCH  12  14
ATOM     14  O   UNL     1      42.861   5.751  13.408  0.00  0.00    +0.000 OA
ATOM     15  H   UNL     1      43.764   5.795  13.772  0.00  0.00    +0.000 HD
ENDBRANCH  12  14
ENDBRANCH   2   9
ENDBRANCH   1   6
BRANCH   1  16
ATOM     16  C   UNL     1      48.688   7.581  15.607  0.00  0.00    +0.000 C 
BRANCH  16  17
ATOM     17  N   UNL     1      48.254   6.736  16.728  0.00  0.00    +0.000 N 
ATOM     18  H   UNL     1      47.263   6.504  16.682  0.00  0.00    +0.000 HD
BRANCH  17  19
ATOM     19  C   UNL     1      49.040   5.588  16.954  0.00  0.00    +0.000 A 
ATOM     20  C   UNL     1      50.402   5.720  17.231  0.00  0.00    +0.000 A 
ATOM     21  C   UNL     1      51.193   4.587  17.446  0.00  0.00    +0.000 A 
ATOM     22  C   UNL     1      50.598   3.338  17.336  0.00  0.00    +0.000 A 
ATOM     23  N   UNL     1      49.297   3.150  17.005  0.00  0.00    +0.000 NA
ATOM     24  C   UNL     1      48.570   4.276  16.802  0.00  0.00    +0.000 A 
BRANCH  22  25
ATOM     25  C   UNL     1      51.394   2.100  17.610  0.00  0.00    +0.000 C 
ATOM     26  N   UNL     1      52.393   2.239  18.537  0.00  0.00    +0.000 N 
ATOM     27  O   UNL     1      51.178   1.036  17.048  0.00  0.00    +0.000 OA
ATOM     28  H   UNL     1      52.542   3.140  18.977  0.00  0.00    +0.000 HD
ATOM     29  H   UNL     1      52.982   1.451  18.760  0.00  0.00    +0.000 HD
ENDBRANCH  22  25
ENDBRANCH  17  19
ENDBRANCH  16  17
ENDBRANCH   1  16
TORSDOF 7
ENDMDL
MODEL 7
REMARK VINA RESULT:    -6.893      5.369      7.936
REMARK INTER + INTRA:         -10.708
REMARK INTER:                  -9.958
REMARK INTRA:                  -0.750
REMARK UNBOUND:                -1.196
REMARK  Name = 
REMARK  8 active torsions:
REMARK  status: ('A' for Active; 'I' for Inactive)
REMARK    1  A    between atoms: C_1  and  C_2
REMARK    2  A    between atoms: C_2  and  C_3
REMARK    3  A    between atoms: C_7  and  C_8
REMARK    4  A    between atoms: C_8  and  C_9
REMARK    5  A    between atoms: C_9  and  N_10
REMARK    6  A    between atoms: N_10  and  C_11
REMARK    7  A    between atoms: C_14  and  C_15
REMARK    8  A    between atoms: C_23  and  O_24
REMARK                            x       y       z     vdW  Elec       q    Type
REMARK                         _______ _______ _______ _____ _____    ______ ____
ROOT
ATOM      1  C   UNL     1      47.355   4.354  15.302  0.00  0.00    +0.000 C 
ENDROOT
BRANCH   1   6
ATOM      2  C   UNL     1      45.917   5.483  11.935  0.00  0.00    +0.000 A 
ATOM      3  C   UNL     1      46.560   6.727  11.798  0.00  0.00    +0.000 A 
ATOM      4  C   UNL     1      47.462   7.191  12.760  0.00  0.00    +0.000 A 
ATOM      5  C   UNL     1      47.751   6.421  13.884  0.00  0.00    +0.000 A 
ATOM      6  C   UNL     1      47.134   5.181  14.053  0.00  0.00    +0.000 A 
ATOM      7  C   UNL     1      46.217   4.735  13.085  0.00  0.00    +0.000 A 
BRANCH   2   9
ATOM      8  C   UNL     1      45.525   5.164   9.499  0.00  0.00    +0.000 C 
ATOM      9  C   UNL     1      44.877   5.033  10.894  0.00  0.00    +0.000 C 
ATOM     10  C   UNL     1      44.402   3.575  11.145  0.00  0.00    +0.000 C 
ATOM     11  C   UNL     1      43.036   3.641  11.846  0.00  0.00    +0.000 C 
ATOM     12  C   UNL     1      42.679   5.115  11.962  0.00  0.00    +0.000 C 
ATOM     13  C   UNL     1      43.528   5.798  10.895  0.00  0.00    +0.000 C 
BRANCH  12  14
ATOM     14  O   UNL     1      42.962   5.600  13.268  0.00  0.00    +0.000 OA
ATOM     15  H   UNL     1      42.124   5.860  13.693  0.00  0.00    +0.000 HD
ENDBRANCH  12  14
ENDBRANCH   2   9
ENDBRANCH   1   6
BRANCH   1  16
ATOM     16  C   UNL     1      48.223   5.137  16.291  0.00  0.00    +0.000 C 
BRANCH  16  17
ATOM     17  N   UNL     1      48.439   4.399  17.543  0.00  0.00    +0.000 N 
ATOM     18  H   UNL     1      47.610   3.888  17.842  0.00  0.00    +0.000 HD
BRANCH  17  19
ATOM     19  C   UNL     1      49.585   3.580  17.566  0.00  0.00    +0.000 A 
ATOM     20  C   UNL     1      50.824   4.125  17.906  0.00  0.00    +0.000 A 
ATOM     21  C   UNL     1      51.969   3.323  17.922  0.00  0.00    +0.000 A 
ATOM     22  C   UNL     1      51.846   1.991  17.554  0.00  0.00    +0.000 A 
ATOM     23  N   UNL     1      50.681   1.426  17.151  0.00  0.00    +0.000 NA
ATOM     24  C   UNL     1      49.598   2.242  17.148  0.00  0.00    +0.000 A 
BRANCH  22  25
ATOM     25  C   UNL     1      53.034   1.082  17.607  0.00  0.00    +0.000 C 
ATOM     26  N   UNL     1      52.806  -0.149  18.164  0.00  0.00    +0.000 N 
ATOM     27  O   UNL     1      54.136   1.408  17.190  0.00  0.00    +0.000 OA
ATOM     28  H   UNL     1      51.878  -0.378  18.502  0.00  0.00    +0.000 HD
ATOM     29  H   UNL     1      53.565  -0.808  18.249  0.00  0.00    +0.000 HD
ENDBRANCH  22  25
ENDBRANCH  17  19
ENDBRANCH  16  17
ENDBRANCH   1  16
TORSDOF 7
ENDMDL
MODEL 8
REMARK VINA RESULT:    -6.713      3.627      5.699
REMARK INTER + INTRA:         -10.459
REMARK INTER:                  -9.223
REMARK INTRA:                  -1.236
REMARK UNBOUND:                -1.196
REMARK  Name = 
REMARK  8 active torsions:
REMARK  status: ('A' for Active; 'I' for Inactive)
REMARK    1  A    between atoms: C_1  and  C_2
REMARK    2  A    between atoms: C_2  and  C_3
REMARK    3  A    between atoms: C_7  and  C_8
REMARK    4  A    between atoms: C_8  and  C_9
REMARK    5  A    between atoms: C_9  and  N_10
REMARK    6  A    between atoms: N_10  and  C_11
REMARK    7  A    between atoms: C_14  and  C_15
REMARK    8  A    between atoms: C_23  and  O_24
REMARK                            x       y       z     vdW  Elec       q    Type
REMARK                         _______ _______ _______ _____ _____    ______ ____
ROOT
ATOM      1  C   UNL     1      48.680   6.761  13.218  0.00  0.00    +0.000 C 
ENDROOT
BRANCH   1   6
ATOM      2  C   UNL     1      48.636   6.056  16.983  0.00  0.00    +0.000 A 
ATOM      3  C   UNL     1      49.576   7.007  17.421  0.00  0.00    +0.000 A 
ATOM      4  C   UNL     1      50.200   7.882  16.527  0.00  0.00    +0.000 A 
ATOM      5  C   UNL     1      49.898   7.832  15.168  0.00  0.00    +0.000 A 
ATOM      6  C   UNL     1      48.969   6.903  14.696  0.00  0.00    +0.000 A 
ATOM      7  C   UNL     1      48.362   6.021  15.606  0.00  0.00    +0.000 A 
BRANCH   2   9
ATOM      8  C   UNL     1      47.151   5.870  18.971  0.00  0.00    +0.000 C 
ATOM      9  C   UNL     1      48.020   5.062  17.983  0.00  0.00    +0.000 C 
ATOM     10  C   UNL     1      47.172   3.974  17.267  0.00  0.00    +0.000 C 
ATOM     11  C   UNL     1      48.022   2.697  17.183  0.00  0.00    +0.000 C 
ATOM     12  C   UNL     1      49.336   3.004  17.885  0.00  0.00    +0.000 C 
ATOM     13  C   UNL     1      49.017   4.190  18.789  0.00  0.00    +0.000 C 
BRANCH  12  14
ATOM     14  O   UNL     1      50.353   3.304  16.939  0.00  0.00    +0.000 OA
ATOM     15  H   UNL     1      50.667   4.213  17.096  0.00  0.00    +0.000 HD
ENDBRANCH  12  14
ENDBRANCH   2   9
ENDBRANCH   1   6
BRANCH   1  16
ATOM     16  C   UNL     1      47.634   7.797  12.795  0.00  0.00    +0.000 C 
BRANCH  16  17
ATOM     17  N   UNL     1      46.294   7.469  13.300  0.00  0.00    +0.000 N 
ATOM     18  H   UNL     1      45.657   8.262  13.258  0.00  0.00    +0.000 HD
BRANCH  17  19
ATOM     19  C   UNL     1      45.712   6.312  12.746  0.00  0.00    +0.000 A 
ATOM     20  C   UNL     1      45.435   6.257  11.379  0.00  0.00    +0.000 A 
ATOM     21  C   UNL     1      44.847   5.116  10.822  0.00  0.00    +0.000 A 
ATOM     22  C   UNL     1      44.514   4.067  11.667  0.00  0.00    +0.000 A 
ATOM     23  N   UNL     1      44.699   4.094  13.009  0.00  0.00    +0.000 NA
ATOM     24  C   UNL     1      45.268   5.220  13.505  0.00  0.00    +0.000 A 
BRANCH  22  25
ATOM     25  C   UNL     1      43.932   2.807  11.107  0.00  0.00    +0.000 C 
ATOM     26  N   UNL     1      44.571   2.306  10.003  0.00  0.00    +0.000 N 
ATOM     27  O   UNL     1      42.953   2.257  11.590  0.00  0.00    +0.000 OA
ATOM     28  H   UNL     1      45.377   2.796   9.630  0.00  0.00    +0.000 HD
ATOM     29  H   UNL     1      44.225   1.469   9.560  0.00  0.00    +0.000 HD
ENDBRANCH  22  25
ENDBRANCH  17  19
ENDBRANCH  16  17
ENDBRANCH   1  16
TORSDOF 7
ENDMDL
MODEL 9
REMARK VINA RESULT:    -6.690      4.355      7.380
REMARK INTER + INTRA:         -10.428
REMARK INTER:                  -9.300
REMARK INTRA:                  -1.128
REMARK UNBOUND:                -1.196
REMARK  Name = 
REMARK  8 active torsions:
REMARK  status: ('A' for Active; 'I' for Inactive)
REMARK    1  A    between atoms: C_1  and  C_2
REMARK    2  A    between atoms: C_2  and  C_3
REMARK    3  A    between atoms: C_7  and  C_8
REMARK    4  A    between atoms: C_8  and  C_9
REMARK    5  A    between atoms: C_9  and  N_10
REMARK    6  A    between atoms: N_10  and  C_11
REMARK    7  A    between atoms: C_14  and  C_15
REMARK    8  A    between atoms: C_23  and  O_24
REMARK                            x       y       z     vdW  Elec       q    Type
REMARK                         _______ _______ _______ _____ _____    ______ ____
ROOT
ATOM      1  C   UNL     1      48.672   8.175  12.601  0.00  0.00    +0.000 C 
ENDROOT
BRANCH   1   6
ATOM      2  C   UNL     1      45.418   6.602  11.330  0.00  0.00    +0.000 A 
ATOM      3  C   UNL     1      44.567   7.721  11.385  0.00  0.00    +0.000 A 
ATOM      4  C   UNL     1      45.032   8.972  11.801  0.00  0.00    +0.000 A 
ATOM      5  C   UNL     1      46.365   9.139  12.170  0.00  0.00    +0.000 A 
ATOM      6  C   UNL     1      47.240   8.053  12.126  0.00  0.00    +0.000 A 
ATOM      7  C   UNL     1      46.753   6.798  11.721  0.00  0.00    +0.000 A 
BRANCH   2   9
ATOM      8  C   UNL     1      45.310   4.932   9.489  0.00  0.00    +0.000 C 
ATOM      9  C   UNL     1      44.857   5.224  10.935  0.00  0.00    +0.000 C 
ATOM     10  C   UNL     1      45.342   4.106  11.899  0.00  0.00    +0.000 C 
ATOM     11  C   UNL     1      44.201   3.808  12.884  0.00  0.00    +0.000 C 
ATOM     12  C   UNL     1      43.035   4.698  12.478  0.00  0.00    +0.000 C 
ATOM     13  C   UNL     1      43.318   5.057  11.024  0.00  0.00    +0.000 C 
BRANCH  12  14
ATOM     14  O   UNL     1      42.965   5.845  13.314  0.00  0.00    +0.000 OA
ATOM     15  H   UNL     1      43.573   6.523  12.965  0.00  0.00    +0.000 HD
ENDBRANCH  12  14
ENDBRANCH   2   9
ENDBRANCH   1   6
BRANCH   1  16
ATOM     16  C   UNL     1      48.695   8.420  14.112  0.00  0.00    +0.000 C 
BRANCH  16  17
ATOM     17  N   UNL     1      49.698   7.590  14.792  0.00  0.00    +0.000 N 
ATOM     18  H   UNL     1      50.362   8.143  15.332  0.00  0.00    +0.000 HD
BRANCH  17  19
ATOM     19  C   UNL     1      49.177   6.524  15.554  0.00  0.00    +0.000 A 
ATOM     20  C   UNL     1      48.011   5.878  15.141  0.00  0.00    +0.000 A 
ATOM     21  C   UNL     1      47.480   4.827  15.895  0.00  0.00    +0.000 A 
ATOM     22  C   UNL     1      48.118   4.475  17.076  0.00  0.00    +0.000 A 
ATOM     23  N   UNL     1      49.214   5.112  17.558  0.00  0.00    +0.000 NA
ATOM     24  C   UNL     1      49.691   6.126  16.796  0.00  0.00    +0.000 A 
BRANCH  22  25
ATOM     25  C   UNL     1      47.616   3.322  17.888  0.00  0.00    +0.000 C 
ATOM     26  N   UNL     1      48.266   3.116  19.077  0.00  0.00    +0.000 N 
ATOM     27  O   UNL     1      46.695   2.606  17.523  0.00  0.00    +0.000 OA
ATOM     28  H   UNL     1      49.029   3.730  19.340  0.00  0.00    +0.000 HD
ATOM     29  H   UNL     1      47.994   2.346  19.669  0.00  0.00    +0.000 HD
ENDBRANCH  22  25
ENDBRANCH  17  19
ENDBRANCH  16  17
ENDBRANCH   1  16
TORSDOF 7
ENDMDL
