MODEL 1
REMARK VINA RESULT:    -7.986      0.000      0.000
REMARK INTER + INTRA:         -11.041
REMARK INTER:                 -10.553
REMARK INTRA:                  -0.487
REMARK UNBOUND:                -0.487
REMARK  Name = 
REMARK  6 active torsions:
REMARK  status: ('A' for Active; 'I' for Inactive)
REMARK    1  A    between atoms: C_2  and  C_18
REMARK    2  A    between atoms: N_3  and  C_4
REMARK    3  A    between atoms: C_4  and  C_5
REMARK    4  A    between atoms: C_8  and  C_9
REMARK    5  A    between atoms: C_9  and  C_10
REMARK    6  A    between atoms: C_13  and  O_14
REMARK                            x       y       z     vdW  Elec       q    Type
REMARK                         _______ _______ _______ _____ _____    ______ ____
ROOT
ATOM      1  O   UNL     1      46.896   3.206  13.997  0.00  0.00    +0.000 OA
ATOM      2  C   UNL     1      46.654   4.372  14.294  0.00  0.00    +0.000 C 
ATOM      3  N   UNL     1      45.507   5.013  13.901  0.00  0.00    +0.000 N 
ATOM      4  H   UNL     1      45.442   6.016  14.016  0.00  0.00    +0.000 HD
ENDROOT
BRANCH   2   5
ATOM      5  C   UNL     1      47.551   5.147  15.155  0.00  0.00    +0.000 A 
ATOM      6  C   UNL     1      48.292   6.198  14.629  0.00  0.00    +0.000 A 
ATOM      7  S   UNL     1      49.274   6.983  15.785  0.00  0.00    +0.000 S 
ATOM      8  C   UNL     1      48.717   5.968  17.030  0.00  0.00    +0.000 A 
ATOM      9  N   UNL     1      49.148   6.123  18.311  0.00  0.00    +0.000 NA
ATOM     10  C   UNL     1      48.615   5.307  19.156  0.00  0.00    +0.000 A 
ATOM     11  N   UNL     1      47.705   4.333  18.835  0.00  0.00    +0.000 N 
ATOM     12  C   UNL     1      47.304   4.088  17.545  0.00  0.00    +0.000 A 
ATOM     13  O   UNL     1      46.603   3.111  17.276  0.00  0.00    +0.000 OA
ATOM     14  C   UNL     1      47.824   5.017  16.567  0.00  0.00    +0.000 A 
ATOM     15  H   UNL     1      47.358   3.697  19.537  0.00  0.00    +0.000 HD
ENDBRANCH   2   5
BRANCH   3  16
ATOM     16  C   UNL     1      44.524   4.407  13.043  0.00  0.00    +0.000 C 
BRANCH  16  17
ATOM     17  C   UNL     1      44.925   4.475  11.601  0.00  0.00    +0.000 A 
ATOM     18  C   UNL     1      45.619   5.579  11.101  0.00  0.00    +0.000 A 
ATOM     19  C   UNL     1      46.017   5.602   9.767  0.00  0.00    +0.000 A 
ATOM     20  C   UNL     1      45.723   4.510   8.958  0.00  0.00    +0.000 A 
ATOM     21  N   UNL     1      45.023   3.441   9.410  0.00  0.00    +0.000 NA
ATOM     22  C   UNL     1      44.630   3.452  10.709  0.00  0.00    +0.000 A 
BRANCH  20  23
ATOM     23  C   UNL     1      46.166   4.465   7.517  0.00  0.00    +0.000 C 
BRANCH  23  24
ATOM     24  C   UNL     1      46.105   3.069   6.864  0.00  0.00    +0.000 C 
ATOM     25  C   UNL     1      46.439   3.068   5.359  0.00  0.00    +0.000 C 
ATOM     26  C   UNL     1      47.560   2.046   5.164  0.00  0.00    +0.000 C 
ATOM     27  C   UNL     1      48.268   2.005   6.509  0.00  0.00    +0.000 C 
ATOM     28  C   UNL     1      47.123   2.110   7.508  0.00  0.00    +0.000 C 
BRANCH  27  29
ATOM     29  O   UNL     1      49.166   3.099   6.656  0.00  0.00    +0.000 OA
ATOM     30  H   UNL     1      48.657   3.918   6.787  0.00  0.00    +0.000 HD
ENDBRANCH  27  29
ENDBRANCH  23  24
ENDBRANCH  20  23
ENDBRANCH  16  17
ENDBRANCH   3  16
TORSDOF 6
ENDMDL
MODEL 2
REMARK VINA RESULT:    -7.418      4.324      8.915
REMARK INTER + INTRA:         -10.291
REMARK INTER:                  -9.422
REMARK INTRA:                  -0.869
REMARK UNBOUND:                -0.487
REMARK  Name = 
REMARK  6 active torsions:
REMARK  status: ('A' for Active; 'I' for Inactive)
REMARK    1  A    between atoms: C_2  and  C_18
REMARK    2  A    between atoms: N_3  and  C_4
REMARK    3  A    between atoms: C_4  and  C_5
REMARK    4  A    between atoms: C_8  and  C_9
REMARK    5  A    between atoms: C_9  and  C_10
REMARK    6  A    between atoms: C_13  and  O_14
REMARK                            x       y       z     vdW  Elec       q    Type
REMARK                         _______ _______ _______ _____ _____    ______ ____
ROOT
ATOM      1  O   UNL     1      49.422   6.822  14.156  0.00  0.00    +0.000 OA
ATOM      2  C   UNL     1      48.293   6.474  14.488  0.00  0.00    +0.000 C 
ATOM      3  N   UNL     1      47.939   6.263  15.795  0.00  0.00    +0.000 N 
ATOM      4  H   UNL     1      47.059   5.804  15.997  0.00  0.00    +0.000 HD
ENDROOT
BRANCH   2   5
ATOM      5  C   UNL     1      47.217   6.323  13.506  0.00  0.00    +0.000 A 
ATOM      6  C   UNL     1      46.737   7.429  12.817  0.00  0.00    +0.000 A 
ATOM      7  S   UNL     1      45.489   7.054  11.712  0.00  0.00    +0.000 S 
ATOM      8  C   UNL     1      45.572   5.399  12.094  0.00  0.00    +0.000 A 
ATOM      9  N   UNL     1      44.774   4.492  11.470  0.00  0.00    +0.000 NA
ATOM     10  C   UNL     1      44.971   3.269  11.833  0.00  0.00    +0.000 A 
ATOM     11  N   UNL     1      45.880   2.871  12.780  0.00  0.00    +0.000 N 
ATOM     12  C   UNL     1      46.648   3.760  13.491  0.00  0.00    +0.000 A 
ATOM     13  O   UNL     1      47.342   3.380  14.435  0.00  0.00    +0.000 OA
ATOM     14  C   UNL     1      46.511   5.138  13.077  0.00  0.00    +0.000 A 
ATOM     15  H   UNL     1      45.954   1.902  13.050  0.00  0.00    +0.000 HD
ENDBRANCH   2   5
BRANCH   3  16
ATOM     16  C   UNL     1      48.873   6.352  16.887  0.00  0.00    +0.000 C 
BRANCH  16  17
ATOM     17  C   UNL     1      49.665   5.090  17.047  0.00  0.00    +0.000 A 
ATOM     18  C   UNL     1      51.044   5.132  17.262  0.00  0.00    +0.000 A 
ATOM     19  C   UNL     1      51.752   3.948  17.448  0.00  0.00    +0.000 A 
ATOM     20  C   UNL     1      51.063   2.740  17.428  0.00  0.00    +0.000 A 
ATOM     21  N   UNL     1      49.731   2.671  17.189  0.00  0.00    +0.000 NA
ATOM     22  C   UNL     1      49.067   3.838  16.991  0.00  0.00    +0.000 A 
BRANCH  20  23
ATOM     23  C   UNL     1      51.774   1.432  17.665  0.00  0.00    +0.000 C 
BRANCH  23  24
ATOM     24  C   UNL     1      53.312   1.507  17.583  0.00  0.00    +0.000 C 
ATOM     25  C   UNL     1      54.006   1.656  18.951  0.00  0.00    +0.000 C 
ATOM     26  C   UNL     1      55.031   0.525  19.044  0.00  0.00    +0.000 C 
ATOM     27  C   UNL     1      54.474  -0.562  18.137  0.00  0.00    +0.000 C 
ATOM     28  C   UNL     1      53.899   0.224  16.966  0.00  0.00    +0.000 C 
BRANCH  27  29
ATOM     29  O   UNL     1      53.455  -1.309  18.790  0.00  0.00    +0.000 OA
ATOM     30  H   UNL     1      53.705  -2.249  18.807  0.00  0.00    +0.000 HD
ENDBRANCH  27  29
ENDBRANCH  23  24
ENDBRANCH  20  23
ENDBRANCH  16  17
ENDBRANCH   3  16
TORSDOF 6
ENDMDL
MODEL 3
REMARK VINA RESULT:    -7.350      3.985      5.758
REMARK INTER + INTRA:         -10.201
REMARK INTER:                  -9.297
REMARK INTRA:                  -0.904
REMARK UNBOUND:                -0.487
REMARK  Name = 
REMARK  6 active torsions:
REMARK  status: ('A' for Active; 'I' for Inactive)
REMARK    1  A    between atoms: C_2  and  C_18
REMARK    2  A    between atoms: N_3  and  C_4
REMARK    3  A    between atoms: C_4  and  C_5
REMARK    4  A    between atoms: C_8  and  C_9
REMARK    5  A    between atoms: C_9  and  C_10
REMARK    6  A    between atoms: C_13  and  O_14
REMARK                            x       y       z     vdW  Elec       q    Type
REMARK                         _______ _______ _______ _____ _____    ______ ____
ROOT
ATOM      1  O   UNL     1      49.725   6.086  18.881  0.00  0.00    +0.000 OA
ATOM      2  C   UNL     1      50.323   5.500  17.984  0.00  0.00    +0.000 C 
ATOM      3  N   UNL     1      50.011   5.662  16.659  0.00  0.00    +0.000 N 
ATOM      4  H   UNL     1      50.408   5.024  15.980  0.00  0.00    +0.000 HD
ENDROOT
BRANCH   2   5
ATOM      5  C   UNL     1      51.467   4.630  18.266  0.00  0.00    +0.000 A 
ATOM      6  C   UNL     1      52.581   5.129  18.928  0.00  0.00    +0.000 A 
ATOM      7  S   UNL     1      53.807   3.965  19.170  0.00  0.00    +0.000 S 
ATOM      8  C   UNL     1      52.877   2.749  18.430  0.00  0.00    +0.000 A 
ATOM      9  N   UNL     1      53.337   1.473  18.330  0.00  0.00    +0.000 NA
ATOM     10  C   UNL     1      52.511   0.650  17.778  0.00  0.00    +0.000 A 
ATOM     11  N   UNL     1      51.273   0.990  17.296  0.00  0.00    +0.000 N 
ATOM     12  C   UNL     1      50.802   2.279  17.302  0.00  0.00    +0.000 A 
ATOM     13  O   UNL     1      49.753   2.572  16.727  0.00  0.00    +0.000 OA
ATOM     14  C   UNL     1      51.664   3.230  17.969  0.00  0.00    +0.000 A 
ATOM     15  H   UNL     1      50.692   0.306  16.835  0.00  0.00    +0.000 HD
ENDBRANCH   2   5
BRANCH   3  16
ATOM     16  C   UNL     1      48.909   6.467  16.204  0.00  0.00    +0.000 C 
BRANCH  16  17
ATOM     17  C   UNL     1      48.035   5.723  15.240  0.00  0.00    +0.000 A 
ATOM     18  C   UNL     1      47.815   6.210  13.949  0.00  0.00    +0.000 A 
ATOM     19  C   UNL     1      47.032   5.480  13.059  0.00  0.00    +0.000 A 
ATOM     20  C   UNL     1      46.492   4.268  13.474  0.00  0.00    +0.000 A 
ATOM     21  N   UNL     1      46.664   3.791  14.730  0.00  0.00    +0.000 NA
ATOM     22  C   UNL     1      47.416   4.529  15.585  0.00  0.00    +0.000 A 
BRANCH  20  23
ATOM     23  C   UNL     1      45.671   3.419  12.536  0.00  0.00    +0.000 C 
BRANCH  23  24
ATOM     24  C   UNL     1      44.145   3.585  12.681  0.00  0.00    +0.000 C 
ATOM     25  C   UNL     1      43.709   4.989  13.143  0.00  0.00    +0.000 C 
ATOM     26  C   UNL     1      42.693   5.489  12.116  0.00  0.00    +0.000 C 
ATOM     27  C   UNL     1      43.058   4.750  10.837  0.00  0.00    +0.000 C 
ATOM     28  C   UNL     1      43.431   3.360  11.335  0.00  0.00    +0.000 C 
BRANCH  27  29
ATOM     29  O   UNL     1      44.161   5.363  10.181  0.00  0.00    +0.000 OA
ATOM     30  H   UNL     1      43.935   6.282   9.961  0.00  0.00    +0.000 HD
ENDBRANCH  27  29
ENDBRANCH  23  24
ENDBRANCH  20  23
ENDBRANCH  16  17
ENDBRANCH   3  16
TORSDOF 6
ENDMDL
MODEL 4
REMARK VINA RESULT:    -7.315      3.481      8.832
REMARK INTER + INTRA:         -10.154
REMARK INTER:                  -8.964
REMARK INTRA:                  -1.190
REMARK UNBOUND:                -0.487
REMARK  Name = 
REMARK  6 active torsions:
REMARK  status: ('A' for Active; 'I' for Inactive)
REMARK    1  A    between atoms: C_2  and  C_18
REMARK    2  A    between atoms: N_3  and  C_4
REMARK    3  A    between atoms: C_4  and  C_5
REMARK    4  A    between atoms: C_8  and  C_9
REMARK    5  A    between atoms: C_9  and  C_10
REMARK    6  A    between atoms: C_13  and  O_14
REMARK                            x       y       z     vdW  Elec       q    Type
REMARK                         _______ _______ _______ _____ _____    ______ ____
ROOT
ATOM      1  O   UNL     1      45.631   7.858  11.800  0.00  0.00    +0.000 OA
ATOM      2  C   UNL     1      46.264   6.844  11.521  0.00  0.00    +0.000 C 
ATOM      3  N   UNL     1      47.576   6.671  11.876  0.00  0.00    +0.000 N 
ATOM      4  H   UNL     1      48.098   5.906  11.467  0.00  0.00    +0.000 HD
ENDROOT
BRANCH   2   5
ATOM      5  C   UNL     1      45.635   5.711  10.839  0.00  0.00    +0.000 A 
ATOM      6  C   UNL     1      45.813   5.526   9.474  0.00  0.00    +0.000 A 
ATOM      7  S   UNL     1      45.008   4.150   8.862  0.00  0.00    +0.000 S 
ATOM      8  C   UNL     1      44.424   3.737  10.404  0.00  0.00    +0.000 A 
ATOM      9  N   UNL     1      43.669   2.622  10.596  0.00  0.00    +0.000 NA
ATOM     10  C   UNL     1      43.326   2.413  11.822  0.00  0.00    +0.000 A 
ATOM     11  N   UNL     1      43.650   3.231  12.874  0.00  0.00    +0.000 N 
ATOM     12  C   UNL     1      44.339   4.408  12.715  0.00  0.00    +0.000 A 
ATOM     13  O   UNL     1      44.482   5.189  13.657  0.00  0.00    +0.000 OA
ATOM     14  C   UNL     1      44.803   4.655  11.368  0.00  0.00    +0.000 A 
ATOM     15  H   UNL     1      43.312   3.035  13.805  0.00  0.00    +0.000 HD
ENDBRANCH   2   5
BRANCH   3  16
ATOM     16  C   UNL     1      48.352   7.687  12.536  0.00  0.00    +0.000 C 
BRANCH  16  17
ATOM     17  C   UNL     1      48.905   7.205  13.843  0.00  0.00    +0.000 A 
ATOM     18  C   UNL     1      50.106   7.713  14.345  0.00  0.00    +0.000 A 
ATOM     19  C   UNL     1      50.578   7.280  15.581  0.00  0.00    +0.000 A 
ATOM     20  C   UNL     1      49.833   6.352  16.299  0.00  0.00    +0.000 A 
ATOM     21  N   UNL     1      48.682   5.820  15.820  0.00  0.00    +0.000 NA
ATOM     22  C   UNL     1      48.252   6.244  14.605  0.00  0.00    +0.000 A 
BRANCH  20  23
ATOM     23  C   UNL     1      50.278   5.880  17.661  0.00  0.00    +0.000 C 
BRANCH  23  24
ATOM     24  C   UNL     1      49.660   6.648  18.846  0.00  0.00    +0.000 C 
ATOM     25  C   UNL     1      48.769   7.834  18.428  0.00  0.00    +0.000 C 
ATOM     26  C   UNL     1      47.417   7.624  19.111  0.00  0.00    +0.000 C 
ATOM     27  C   UNL     1      47.327   6.119  19.311  0.00  0.00    +0.000 C 
ATOM     28  C   UNL     1      48.752   5.733  19.688  0.00  0.00    +0.000 C 
BRANCH  27  29
ATOM     29  O   UNL     1      46.928   5.460  18.115  0.00  0.00    +0.000 OA
ATOM     30  H   UNL     1      46.330   4.726  18.335  0.00  0.00    +0.000 HD
ENDBRANCH  27  29
ENDBRANCH  23  24
ENDBRANCH  20  23
ENDBRANCH  16  17
ENDBRANCH   3  16
TORSDOF 6
ENDMDL
MODEL 5
REMARK VINA RESULT:    -7.070      4.187      9.308
REMARK INTER + INTRA:          -9.831
REMARK INTER:                  -9.111
REMARK INTRA:                  -0.720
REMARK UNBOUND:                -0.487
REMARK  Name = 
REMARK  6 active torsions:
REMARK  status: ('A' for Active; 'I' for Inactive)
REMARK    1  A    between atoms: C_2  and  C_18
REMARK    2  A    between atoms: N_3  and  C_4
REMARK    3  A    between atoms: C_4  and  C_5
REMARK    4  A    between atoms: C_8  and  C_9
REMARK    5  A    between atoms: C_9  and  C_10
REMARK    6  A    between atoms: C_13  and  O_14
REMARK                            x       y       z     vdW  Elec       q    Type
REMARK                         _______ _______ _______ _____ _____    ______ ____
ROOT
ATOM      1  O   UNL     1      47.349   3.076  14.128  0.00  0.00    +0.000 OA
ATOM      2  C   UNL     1      46.890   4.117  14.585  0.00  0.00    +0.000 C 
ATOM      3  N   UNL     1      46.779   4.348  15.932  0.00  0.00    +0.000 N 
ATOM      4  H   UNL     1      46.230   5.137  16.251  0.00  0.00    +0.000 HD
ENDROOT
BRANCH   2   5
ATOM      5  C   UNL     1      46.486   5.225  13.716  0.00  0.00    +0.000 A 
ATOM      6  C   UNL     1      47.333   6.308  13.521  0.00  0.00    +0.000 A 
ATOM      7  S   UNL     1      46.692   7.494  12.472  0.00  0.00    +0.000 S 
ATOM      8  C   UNL     1      45.278   6.584  12.218  0.00  0.00    +0.000 A 
ATOM      9  N   UNL     1      44.299   7.024  11.382  0.00  0.00    +0.000 NA
ATOM     10  C   UNL     1      43.301   6.215  11.257  0.00  0.00    +0.000 A 
ATOM     11  N   UNL     1      43.181   5.015  11.910  0.00  0.00    +0.000 N 
ATOM     12  C   UNL     1      44.105   4.570  12.823  0.00  0.00    +0.000 A 
ATOM     13  O   UNL     1      43.891   3.563  13.499  0.00  0.00    +0.000 OA
ATOM     14  C   UNL     1      45.275   5.411  12.952  0.00  0.00    +0.000 A 
ATOM     15  H   UNL     1      42.353   4.448  11.802  0.00  0.00    +0.000 HD
ENDBRANCH   2   5
BRANCH   3  16
ATOM     16  C   UNL     1      47.114   3.365  16.928  0.00  0.00    +0.000 C 
BRANCH  16  17
ATOM     17  C   UNL     1      48.597   3.224  17.095  0.00  0.00    +0.000 A 
ATOM     18  C   UNL     1      49.364   4.275  17.603  0.00  0.00    +0.000 A 
ATOM     19  C   UNL     1      50.734   4.107  17.786  0.00  0.00    +0.000 A 
ATOM     20  C   UNL     1      51.311   2.882  17.468  0.00  0.00    +0.000 A 
ATOM     21  N   UNL     1      50.594   1.858  16.944  0.00  0.00    +0.000 NA
ATOM     22  C   UNL     1      49.264   2.054  16.756  0.00  0.00    +0.000 A 
BRANCH  20  23
ATOM     23  C   UNL     1      52.782   2.633  17.687  0.00  0.00    +0.000 C 
BRANCH  23  24
ATOM     24  C   UNL     1      53.500   3.699  18.538  0.00  0.00    +0.000 C 
ATOM     25  C   UNL     1      53.500   3.396  20.050  0.00  0.00    +0.000 C 
ATOM     26  C   UNL     1      54.959   3.444  20.503  0.00  0.00    +0.000 C 
ATOM     27  C   UNL     1      55.752   3.100  19.251  0.00  0.00    +0.000 C 
ATOM     28  C   UNL     1      54.984   3.816  18.147  0.00  0.00    +0.000 C 
BRANCH  27  29
ATOM     29  O   UNL     1      55.774   1.697  19.020  0.00  0.00    +0.000 OA
ATOM     30  H   UNL     1      56.679   1.421  18.798  0.00  0.00    +0.000 HD
ENDBRANCH  27  29
ENDBRANCH  23  24
ENDBRANCH  20  23
ENDBRANCH  16  17
ENDBRANCH   3  16
TORSDOF 6
ENDMDL
MODEL 6
REMARK VINA RESULT:    -7.009      2.174      3.424
REMARK INTER + INTRA:          -9.750
REMARK INTER:                  -8.627
REMARK INTRA:                  -1.123
REMARK UNBOUND:                -0.487
REMARK  Name = 
REMARK  6 active torsions:
REMARK  status: ('A' for Active; 'I' for Inactive)
REMARK    1  A    between atoms: C_2  and  C_18
REMARK    2  A    between atoms: N_3  and  C_4
REMARK    3  A    between atoms: C_4  and  C_5
REMARK    4  A    between atoms: C_8  and  C_9
REMARK    5  A    between atoms: C_9  and  C_10
REMARK    6  A    between atoms: C_13  and  O_14
REMARK                            x       y       z     vdW  Elec       q    Type
REMARK                         _______ _______ _______ _____ _____    ______ ____
ROOT
ATOM      1  O   UNL     1      46.458   3.702  14.253  0.00  0.00    +0.000 OA
ATOM      2  C   UNL     1      46.472   4.899  13.985  0.00  0.00    +0.000 C 
ATOM      3  N   UNL     1      45.420   5.534  13.377  0.00  0.00    +0.000 N 
ATOM      4  H   UNL     1      45.554   6.470  13.016  0.00  0.00    +0.000 HD
ENDROOT
BRANCH   2   5
ATOM      5  C   UNL     1      47.600   5.756  14.360  0.00  0.00    +0.000 A 
ATOM      6  C   UNL     1      48.105   5.723  15.653  0.00  0.00    +0.000 A 
ATOM      7  S   UNL     1      49.420   6.785  15.897  0.00  0.00    +0.000 S 
ATOM      8  C   UNL     1      49.378   7.299  14.277  0.00  0.00    +0.000 A 
ATOM      9  N   UNL     1      50.276   8.203  13.802  0.00  0.00    +0.000 NA
ATOM     10  C   UNL     1      50.149   8.472  12.546  0.00  0.00    +0.000 A 
ATOM     11  N   UNL     1      49.191   7.936  11.725  0.00  0.00    +0.000 N 
ATOM     12  C   UNL     1      48.216   7.082  12.179  0.00  0.00    +0.000 A 
ATOM     13  O   UNL     1      47.286   6.740  11.449  0.00  0.00    +0.000 OA
ATOM     14  C   UNL     1      48.353   6.699  13.567  0.00  0.00    +0.000 A 
ATOM     15  H   UNL     1      49.117   8.222  10.760  0.00  0.00    +0.000 HD
ENDBRANCH   2   5
BRANCH   3  16
ATOM     16  C   UNL     1      44.240   4.843  12.928  0.00  0.00    +0.000 C 
BRANCH  16  17
ATOM     17  C   UNL     1      44.404   4.305  11.539  0.00  0.00    +0.000 A 
ATOM     18  C   UNL     1      44.780   2.976  11.325  0.00  0.00    +0.000 A 
ATOM     19  C   UNL     1      44.886   2.487  10.026  0.00  0.00    +0.000 A 
ATOM     20  C   UNL     1      44.602   3.336   8.962  0.00  0.00    +0.000 A 
ATOM     21  N   UNL     1      44.268   4.637   9.142  0.00  0.00    +0.000 NA
ATOM     22  C   UNL     1      44.189   5.094  10.417  0.00  0.00    +0.000 A 
BRANCH  20  23
ATOM     23  C   UNL     1      44.663   2.846   7.537  0.00  0.00    +0.000 C 
BRANCH  23  24
ATOM     24  C   UNL     1      45.857   3.378   6.719  0.00  0.00    +0.000 C 
ATOM     25  C   UNL     1      47.146   3.563   7.543  0.00  0.00    +0.000 C 
ATOM     26  C   UNL     1      48.242   2.780   6.819  0.00  0.00    +0.000 C 
ATOM     27  C   UNL     1      47.490   1.690   6.069  0.00  0.00    +0.000 C 
ATOM     28  C   UNL     1      46.234   2.404   5.588  0.00  0.00    +0.000 C 
BRANCH  27  29
ATOM     29  O   UNL     1      47.156   0.607   6.928  0.00  0.00    +0.000 OA
ATOM     30  H   UNL     1      47.575   0.742   7.796  0.00  0.00    +0.000 HD
ENDBRANCH  27  29
ENDBRANCH  23  24
ENDBRANCH  20  23
ENDBRANCH  16  17
ENDBRANCH   3  16
TORSDOF 6
ENDMDL
MODEL 7
REMARK VINA RESULT:    -6.947      2.989      8.870
REMARK INTER + INTRA:          -9.668
REMARK INTER:                  -8.495
REMARK INTRA:                  -1.173
REMARK UNBOUND:                -0.487
REMARK  Name = 
REMARK  6 active torsions:
REMARK  status: ('A' for Active; 'I' for Inactive)
REMARK    1  A    between atoms: C_2  and  C_18
REMARK    2  A    between atoms: N_3  and  C_4
REMARK    3  A    between atoms: C_4  and  C_5
REMARK    4  A    between atoms: C_8  and  C_9
REMARK    5  A    between atoms: C_9  and  C_10
REMARK    6  A    between atoms: C_13  and  O_14
REMARK                            x       y       z     vdW  Elec       q    Type
REMARK                         _______ _______ _______ _____ _____    ______ ____
ROOT
ATOM      1  O   UNL     1      44.206   7.452  11.608  0.00  0.00    +0.000 OA
ATOM      2  C   UNL     1      45.008   6.525  11.622  0.00  0.00    +0.000 C 
ATOM      3  N   UNL     1      46.325   6.691  11.964  0.00  0.00    +0.000 N 
ATOM      4  H   UNL     1      46.978   5.938  11.784  0.00  0.00    +0.000 HD
ENDROOT
BRANCH   2   5
ATOM      5  C   UNL     1      44.595   5.149  11.335  0.00  0.00    +0.000 A 
ATOM      6  C   UNL     1      43.820   4.445  12.248  0.00  0.00    +0.000 A 
ATOM      7  S   UNL     1      43.435   2.862  11.736  0.00  0.00    +0.000 S 
ATOM      8  C   UNL     1      44.262   3.076  10.266  0.00  0.00    +0.000 A 
ATOM      9  N   UNL     1      44.299   2.090   9.329  0.00  0.00    +0.000 NA
ATOM     10  C   UNL     1      44.930   2.405   8.249  0.00  0.00    +0.000 A 
ATOM     11  N   UNL     1      45.548   3.609   8.026  0.00  0.00    +0.000 N 
ATOM     12  C   UNL     1      45.604   4.601   8.974  0.00  0.00    +0.000 A 
ATOM     13  O   UNL     1      46.293   5.606   8.796  0.00  0.00    +0.000 OA
ATOM     14  C   UNL     1      44.857   4.323  10.180  0.00  0.00    +0.000 A 
ATOM     15  H   UNL     1      46.064   3.776   7.175  0.00  0.00    +0.000 HD
ENDBRANCH   2   5
BRANCH   3  16
ATOM     16  C   UNL     1      46.904   7.975  12.260  0.00  0.00    +0.000 C 
BRANCH  16  17
ATOM     17  C   UNL     1      47.836   7.910  13.432  0.00  0.00    +0.000 A 
ATOM     18  C   UNL     1      47.968   8.994  14.304  0.00  0.00    +0.000 A 
ATOM     19  C   UNL     1      48.810   8.895  15.408  0.00  0.00    +0.000 A 
ATOM     20  C   UNL     1      49.496   7.706  15.627  0.00  0.00    +0.000 A 
ATOM     21  N   UNL     1      49.410   6.653  14.779  0.00  0.00    +0.000 NA
ATOM     22  C   UNL     1      48.598   6.781  13.699  0.00  0.00    +0.000 A 
BRANCH  20  23
ATOM     23  C   UNL     1      50.389   7.531  16.830  0.00  0.00    +0.000 C 
BRANCH  23  24
ATOM     24  C   UNL     1      49.686   6.968  18.081  0.00  0.00    +0.000 C 
ATOM     25  C   UNL     1      48.167   6.769  17.910  0.00  0.00    +0.000 C 
ATOM     26  C   UNL     1      47.875   5.313  18.276  0.00  0.00    +0.000 C 
ATOM     27  C   UNL     1      49.180   4.586  17.991  0.00  0.00    +0.000 C 
ATOM     28  C   UNL     1      50.239   5.579  18.451  0.00  0.00    +0.000 C 
BRANCH  27  29
ATOM     29  O   UNL     1      49.324   4.304  16.604  0.00  0.00    +0.000 OA
ATOM     30  H   UNL     1      50.065   4.821  16.245  0.00  0.00    +0.000 HD
ENDBRANCH  27  29
ENDBRANCH  23  24
ENDBRANCH  20  23
ENDBRANCH  16  17
ENDBRANCH   3  16
TORSDOF 6
ENDMDL
MODEL 8
REMARK VINA RESULT:    -6.819      4.109      8.272
REMARK INTER + INTRA:          -9.499
REMARK INTER:                  -8.286
REMARK INTRA:                  -1.213
REMARK UNBOUND:                -0.487
REMARK  Name = 
REMARK  6 active torsions:
REMARK  status: ('A' for Active; 'I' for Inactive)
REMARK    1  A    between atoms: C_2  and  C_18
REMARK    2  A    between atoms: N_3  and  C_4
REMARK    3  A    between atoms: C_4  and  C_5
REMARK    4  A    between atoms: C_8  and  C_9
REMARK    5  A    between atoms: C_9  and  C_10
REMARK    6  A    between atoms: C_13  and  O_14
REMARK                            x       y       z     vdW  Elec       q    Type
REMARK                         _______ _______ _______ _____ _____    ______ ____
ROOT
ATOM      1  O   UNL     1      47.779   7.166  11.808  0.00  0.00    +0.000 OA
ATOM      2  C   UNL     1      46.758   7.323  12.471  0.00  0.00    +0.000 C 
ATOM      3  N   UNL     1      46.700   8.164  13.552  0.00  0.00    +0.000 N 
ATOM      4  H   UNL     1      45.898   8.117  14.167  0.00  0.00    +0.000 HD
ENDROOT
BRANCH   2   5
ATOM      5  C   UNL     1      45.500   6.667  12.108  0.00  0.00    +0.000 A 
ATOM      6  C   UNL     1      44.491   7.385  11.479  0.00  0.00    +0.000 A 
ATOM      7  S   UNL     1      43.105   6.450  11.131  0.00  0.00    +0.000 S 
ATOM      8  C   UNL     1      43.819   5.050  11.778  0.00  0.00    +0.000 A 
ATOM      9  N   UNL     1      43.164   3.857  11.769  0.00  0.00    +0.000 NA
ATOM     10  C   UNL     1      43.841   2.873  12.260  0.00  0.00    +0.000 A 
ATOM     11  N   UNL     1      45.105   2.977  12.780  0.00  0.00    +0.000 N 
ATOM     12  C   UNL     1      45.771   4.173  12.883  0.00  0.00    +0.000 A 
ATOM     13  O   UNL     1      46.839   4.251  13.489  0.00  0.00    +0.000 OA
ATOM     14  C   UNL     1      45.081   5.297  12.288  0.00  0.00    +0.000 A 
ATOM     15  H   UNL     1      45.563   2.176  13.189  0.00  0.00    +0.000 HD
ENDBRANCH   2   5
BRANCH   3  16
ATOM     16  C   UNL     1      47.845   8.875  14.056  0.00  0.00    +0.000 C 
BRANCH  16  17
ATOM     17  C   UNL     1      48.540   8.114  15.144  0.00  0.00    +0.000 A 
ATOM     18  C   UNL     1      48.408   8.493  16.482  0.00  0.00    +0.000 A 
ATOM     19  C   UNL     1      49.030   7.747  17.478  0.00  0.00    +0.000 A 
ATOM     20  C   UNL     1      49.767   6.623  17.118  0.00  0.00    +0.000 A 
ATOM     21  N   UNL     1      49.937   6.254  15.825  0.00  0.00    +0.000 NA
ATOM     22  C   UNL     1      49.336   7.009  14.871  0.00  0.00    +0.000 A 
BRANCH  20  23
ATOM     23  C   UNL     1      50.427   5.756  18.160  0.00  0.00    +0.000 C 
BRANCH  23  24
ATOM     24  C   UNL     1      49.493   4.731  18.835  0.00  0.00    +0.000 C 
ATOM     25  C   UNL     1      47.996   5.081  18.725  0.00  0.00    +0.000 C 
ATOM     26  C   UNL     1      47.308   3.859  18.117  0.00  0.00    +0.000 C 
ATOM     27  C   UNL     1      48.402   3.175  17.311  0.00  0.00    +0.000 C 
ATOM     28  C   UNL     1      49.635   3.341  18.189  0.00  0.00    +0.000 C 
BRANCH  27  29
ATOM     29  O   UNL     1      48.591   3.809  16.052  0.00  0.00    +0.000 OA
ATOM     30  H   UNL     1      48.343   3.194  15.340  0.00  0.00    +0.000 HD
ENDBRANCH  27  29
ENDBRANCH  23  24
ENDBRANCH  20  23
ENDBRANCH  16  17
ENDBRANCH   3  16
TORSDOF 6
ENDMDL
MODEL 9
REMARK VINA RESULT:    -6.443      3.712      5.557
REMARK INTER + INTRA:          -9.003
REMARK INTER:                  -8.261
REMARK INTRA:                  -0.742
REMARK UNBOUND:                -0.487
REMARK  Name = 
REMARK  6 active torsions:
REMARK  status: ('A' for Active; 'I' for Inactive)
REMARK    1  A    between atoms: C_2  and  C_18
REMARK    2  A    between atoms: N_3  and  C_4
REMARK    3  A    between atoms: C_4  and  C_5
REMARK    4  A    between atoms: C_8  and  C_9
REMARK    5  A    between atoms: C_9  and  C_10
REMARK    6  A    between atoms: C_13  and  O_14
REMARK                            x       y       z     vdW  Elec       q    Type
REMARK                         _______ _______ _______ _____ _____    ______ ____
ROOT
ATOM      1  O   UNL     1      49.228   6.228  18.096  0.00  0.00    +0.000 OA
ATOM      2  C   UNL     1      50.219   6.160  17.375  0.00  0.00    +0.000 C 
ATOM      3  N   UNL     1      50.446   7.035  16.345  0.00  0.00    +0.000 N 
ATOM      4  H   UNL     1      51.175   6.825  15.675  0.00  0.00    +0.000 HD
ENDROOT
BRANCH   2   5
ATOM      5  C   UNL     1      51.271   5.169  17.611  0.00  0.00    +0.000 A 
ATOM      6  C   UNL     1      52.538   5.574  18.010  0.00  0.00    +0.000 A 
ATOM      7  S   UNL     1      53.626   4.277  18.239  0.00  0.00    +0.000 S 
ATOM      8  C   UNL     1      52.432   3.132  17.847  0.00  0.00    +0.000 A 
ATOM      9  N   UNL     1      52.698   1.799  17.876  0.00  0.00    +0.000 NA
ATOM     10  C   UNL     1      51.689   1.046  17.591  0.00  0.00    +0.000 A 
ATOM     11  N   UNL     1      50.441   1.506  17.257  0.00  0.00    +0.000 N 
ATOM     12  C   UNL     1      50.150   2.843  17.136  0.00  0.00    +0.000 A 
ATOM     13  O   UNL     1      49.064   3.214  16.689  0.00  0.00    +0.000 OA
ATOM     14  C   UNL     1      51.230   3.729  17.507  0.00  0.00    +0.000 A 
ATOM     15  H   UNL     1      49.705   0.865  17.001  0.00  0.00    +0.000 HD
ENDBRANCH   2   5
BRANCH   3  16
ATOM     16  C   UNL     1      49.510   8.060  15.964  0.00  0.00    +0.000 C 
BRANCH  16  17
ATOM     17  C   UNL     1      48.606   7.608  14.858  0.00  0.00    +0.000 A 
ATOM     18  C   UNL     1      47.726   8.500  14.240  0.00  0.00    +0.000 A 
ATOM     19  C   UNL     1      46.925   8.065  13.188  0.00  0.00    +0.000 A 
ATOM     20  C   UNL     1      47.028   6.745  12.764  0.00  0.00    +0.000 A 
ATOM     21  N   UNL     1      47.849   5.852  13.368  0.00  0.00    +0.000 NA
ATOM     22  C   UNL     1      48.606   6.295  14.404  0.00  0.00    +0.000 A 
BRANCH  20  23
ATOM     23  C   UNL     1      46.213   6.234  11.603  0.00  0.00    +0.000 C 
BRANCH  23  24
ATOM     24  C   UNL     1      45.592   4.838  11.812  0.00  0.00    +0.000 C 
ATOM     25  C   UNL     1      44.554   4.780  12.951  0.00  0.00    +0.000 C 
ATOM     26  C   UNL     1      43.278   4.194  12.346  0.00  0.00    +0.000 C 
ATOM     27  C   UNL     1      43.362   4.554  10.871  0.00  0.00    +0.000 C 
ATOM     28  C   UNL     1      44.840   4.370  10.552  0.00  0.00    +0.000 C 
BRANCH  27  29
ATOM     29  O   UNL     1      42.962   5.900  10.643  0.00  0.00    +0.000 OA
ATOM     30  H   UNL     1      43.477   6.491  11.217  0.00  0.00    +0.000 HD
ENDBRANCH  27  29
ENDBRANCH  23  24
ENDBRANCH  20  23
ENDBRANCH  16  17
ENDBRANCH   3  16
TORSDOF 6
ENDMDL
