MODEL 1
REMARK VINA RESULT:    -8.217      0.000      0.000
REMARK INTER + INTRA:         -12.695
REMARK INTER:                 -11.579
REMARK INTRA:                  -1.116
REMARK UNBOUND:                -1.116
REMARK  Name = 
REMARK  7 active torsions:
REMARK  status: ('A' for Active; 'I' for Inactive)
REMARK    1  A    between atoms: C_2  and  C_19
REMARK    2  A    between atoms: N_3  and  C_4
REMARK    3  A    between atoms: C_4  and  C_5
REMARK    4  A    between atoms: C_8  and  C_9
REMARK    5  A    between atoms: C_9  and  N_10
REMARK    6  A    between atoms: N_10  and  C_11
REMARK    7  A    between atoms: C_11  and  C_12
REMARK                            x       y       z     vdW  Elec       q    Type
REMARK                         _______ _______ _______ _____ _____    ______ ____
ROOT
ATOM      1  C   UNL     1      46.456   7.540  12.743  0.00  0.00    +0.000 C 
ENDROOT
BRANCH   1   2
ATOM      2  C   UNL     1      45.799   6.403  11.998  0.00  0.00    +0.000 A 
ATOM      3  C   UNL     1      46.086   6.195  10.652  0.00  0.00    +0.000 A 
ATOM      4  C   UNL     1      45.461   5.149   9.983  0.00  0.00    +0.000 A 
ATOM      5  C   UNL     1      44.561   4.329  10.669  0.00  0.00    +0.000 A 
ATOM      6  C   UNL     1      44.315   4.629  12.004  0.00  0.00    +0.000 A 
ATOM      7  N   UNL     1      44.908   5.638  12.679  0.00  0.00    +0.000 NA
BRANCH   5   8
ATOM      8  C   UNL     1      43.900   3.146  10.014  0.00  0.00    +0.000 C 
BRANCH   8   9
ATOM      9  N   UNL     1      44.458   2.795   8.701  0.00  0.00    +0.000 NA
ATOM     10  H   UNL     1      45.023   3.578   8.368  0.00  0.00    +0.000 HD
BRANCH   9  11
ATOM     11  C   UNL     1      45.332   1.617   8.779  0.00  0.00    +0.000 C 
BRANCH  11  12
ATOM     12  C   UNL     1      46.469   1.754   7.832  0.00  0.00    +0.000 A 
ATOM     13  N   UNL     1      47.213   0.797   7.318  0.00  0.00    +0.000 NA
ATOM     14  N   UNL     1      48.148   1.383   6.495  0.00  0.00    +0.000 NA
ATOM     15  C   UNL     1      47.956   2.679   6.534  0.00  0.00    +0.000 A 
ATOM     16  N   UNL     1      46.912   2.960   7.358  0.00  0.00    +0.000 N 
ATOM     17  H   UNL     1      46.543   3.866   7.604  0.00  0.00    +0.000 HD
ENDBRANCH  11  12
ENDBRANCH   9  11
ENDBRANCH   8   9
ENDBRANCH   5   8
ENDBRANCH   1   2
BRANCH   1  20
ATOM     18  O   UNL     1      49.021   6.501  13.173  0.00  0.00    +0.000 OA
ATOM     19  C   UNL     1      48.278   6.652  14.138  0.00  0.00    +0.000 C 
ATOM     20  N   UNL     1      46.992   7.107  14.013  0.00  0.00    +0.000 N 
ATOM     21  H   UNL     1      46.513   7.479  14.827  0.00  0.00    +0.000 HD
BRANCH  19  22
ATOM     22  C   UNL     1      48.703   6.298  15.495  0.00  0.00    +0.000 A 
ATOM     23  C   UNL     1      49.628   7.089  16.163  0.00  0.00    +0.000 A 
ATOM     24  S   UNL     1      50.000   6.521  17.729  0.00  0.00    +0.000 S 
ATOM     25  C   UNL     1      48.915   5.219  17.575  0.00  0.00    +0.000 A 
ATOM     26  N   UNL     1      48.725   4.336  18.592  0.00  0.00    +0.000 NA
ATOM     27  C   UNL     1      47.850   3.418  18.345  0.00  0.00    +0.000 A 
ATOM     28  N   UNL     1      47.156   3.295  17.172  0.00  0.00    +0.000 N 
ATOM     29  C   UNL     1      47.356   4.125  16.097  0.00  0.00    +0.000 A 
ATOM     30  O   UNL     1      46.796   3.922  15.028  0.00  0.00    +0.000 OA
ATOM     31  C   UNL     1      48.300   5.201  16.336  0.00  0.00    +0.000 A 
ATOM     32  H   UNL     1      46.505   2.537  17.024  0.00  0.00    +0.000 HD
ENDBRANCH  19  22
ENDBRANCH   1  20
TORSDOF 7
ENDMDL
MODEL 2
REMARK VINA RESULT:    -7.297      2.070      3.342
REMARK INTER + INTRA:         -11.398
REMARK INTER:                 -10.426
REMARK INTRA:                  -0.972
REMARK UNBOUND:                -1.116
REMARK  Name = 
REMARK  7 active torsions:
REMARK  status: ('A' for Active; 'I' for Inactive)
REMARK    1  A    between atoms: C_2  and  C_19
REMARK    2  A    between atoms: N_3  and  C_4
REMARK    3  A    between atoms: C_4  and  C_5
REMARK    4  A    between atoms: C_8  and  C_9
REMARK    5  A    between atoms: C_9  and  N_10
REMARK    6  A    between atoms: N_10  and  C_11
REMARK    7  A    between atoms: C_11  and  C_12
REMARK                            x       y       z     vdW  Elec       q    Type
REMARK                         _______ _______ _______ _____ _____    ______ ____
ROOT
ATOM      1  C   UNL     1      47.132   3.951  14.951  0.00  0.00    +0.000 C 
ENDROOT
BRANCH   1   2
ATOM      2  C   UNL     1      46.472   4.255  13.628  0.00  0.00    +0.000 A 
ATOM      3  C   UNL     1      46.608   5.515  13.055  0.00  0.00    +0.000 A 
ATOM      4  C   UNL     1      45.982   5.776  11.842  0.00  0.00    +0.000 A 
ATOM      5  C   UNL     1      45.231   4.774  11.221  0.00  0.00    +0.000 A 
ATOM      6  C   UNL     1      45.127   3.555  11.881  0.00  0.00    +0.000 A 
ATOM      7  N   UNL     1      45.724   3.274  13.060  0.00  0.00    +0.000 NA
BRANCH   5   8
ATOM      8  C   UNL     1      44.580   4.978   9.880  0.00  0.00    +0.000 C 
BRANCH   8   9
ATOM      9  N   UNL     1      45.465   4.722   8.736  0.00  0.00    +0.000 NA
ATOM     10  H   UNL     1      46.415   4.583   9.085  0.00  0.00    +0.000 HD
BRANCH   9  11
ATOM     11  C   UNL     1      45.077   3.507   8.007  0.00  0.00    +0.000 C 
BRANCH  11  12
ATOM     12  C   UNL     1      46.283   2.796   7.508  0.00  0.00    +0.000 A 
ATOM     13  N   UNL     1      46.656   1.560   7.764  0.00  0.00    +0.000 NA
ATOM     14  N   UNL     1      47.834   1.325   7.093  0.00  0.00    +0.000 NA
ATOM     15  C   UNL     1      48.152   2.424   6.451  0.00  0.00    +0.000 A 
ATOM     16  N   UNL     1      47.207   3.374   6.680  0.00  0.00    +0.000 N 
ATOM     17  H   UNL     1      47.189   4.324   6.341  0.00  0.00    +0.000 HD
ENDBRANCH  11  12
ENDBRANCH   9  11
ENDBRANCH   8   9
ENDBRANCH   5   8
ENDBRANCH   1   2
BRANCH   1  20
ATOM     18  O   UNL     1      49.112   4.094  16.927  0.00  0.00    +0.000 OA
ATOM     19  C   UNL     1      48.594   5.136  16.536  0.00  0.00    +0.000 C 
ATOM     20  N   UNL     1      47.585   5.155  15.610  0.00  0.00    +0.000 N 
ATOM     21  H   UNL     1      47.381   6.016  15.113  0.00  0.00    +0.000 HD
BRANCH  19  22
ATOM     22  C   UNL     1      48.987   6.437  17.083  0.00  0.00    +0.000 A 
ATOM     23  C   UNL     1      48.829   6.699  18.437  0.00  0.00    +0.000 A 
ATOM     24  S   UNL     1      49.342   8.263  18.889  0.00  0.00    +0.000 S 
ATOM     25  C   UNL     1      49.820   8.628  17.297  0.00  0.00    +0.000 A 
ATOM     26  N   UNL     1      50.380   9.827  16.985  0.00  0.00    +0.000 NA
ATOM     27  C   UNL     1      50.720   9.951  15.746  0.00  0.00    +0.000 A 
ATOM     28  N   UNL     1      50.543   8.991  14.786  0.00  0.00    +0.000 N 
ATOM     29  C   UNL     1      49.930   7.789  15.039  0.00  0.00    +0.000 A 
ATOM     30  O   UNL     1      49.692   6.999  14.136  0.00  0.00    +0.000 OA
ATOM     31  C   UNL     1      49.565   7.582  16.427  0.00  0.00    +0.000 A 
ATOM     32  H   UNL     1      50.802   9.157  13.824  0.00  0.00    +0.000 HD
ENDBRANCH  19  22
ENDBRANCH   1  20
TORSDOF 7
ENDMDL
MODEL 3
REMARK VINA RESULT:    -7.260      2.472      3.011
REMARK INTER + INTRA:         -11.346
REMARK INTER:                 -10.639
REMARK INTRA:                  -0.707
REMARK UNBOUND:                -1.116
REMARK  Name = 
REMARK  7 active torsions:
REMARK  status: ('A' for Active; 'I' for Inactive)
REMARK    1  A    between atoms: C_2  and  C_19
REMARK    2  A    between atoms: N_3  and  C_4
REMARK    3  A    between atoms: C_4  and  C_5
REMARK    4  A    between atoms: C_8  and  C_9
REMARK    5  A    between atoms: C_9  and  N_10
REMARK    6  A    between atoms: N_10  and  C_11
REMARK    7  A    between atoms: C_11  and  C_12
REMARK                            x       y       z     vdW  Elec       q    Type
REMARK                         _______ _______ _______ _____ _____    ______ ____
ROOT
ATOM      1  C   UNL     1      47.223   4.126  14.911  0.00  0.00    +0.000 C 
ENDROOT
BRANCH   1   2
ATOM      2  C   UNL     1      46.504   4.320  13.598  0.00  0.00    +0.000 A 
ATOM      3  C   UNL     1      46.549   5.554  12.956  0.00  0.00    +0.000 A 
ATOM      4  C   UNL     1      45.870   5.714  11.753  0.00  0.00    +0.000 A 
ATOM      5  C   UNL     1      45.159   4.639  11.212  0.00  0.00    +0.000 A 
ATOM      6  C   UNL     1      45.147   3.453  11.938  0.00  0.00    +0.000 A 
ATOM      7  N   UNL     1      45.797   3.269  13.108  0.00  0.00    +0.000 NA
BRANCH   5   8
ATOM      8  C   UNL     1      44.455   4.734   9.885  0.00  0.00    +0.000 C 
BRANCH   8   9
ATOM      9  N   UNL     1      45.350   4.664   8.723  0.00  0.00    +0.000 NA
ATOM     10  H   UNL     1      46.305   4.522   9.056  0.00  0.00    +0.000 HD
BRANCH   9  11
ATOM     11  C   UNL     1      45.014   3.537   7.842  0.00  0.00    +0.000 C 
BRANCH  11  12
ATOM     12  C   UNL     1      46.247   2.819   7.428  0.00  0.00    +0.000 A 
ATOM     13  N   UNL     1      46.584   1.574   7.693  0.00  0.00    +0.000 NA
ATOM     14  N   UNL     1      47.809   1.334   7.114  0.00  0.00    +0.000 NA
ATOM     15  C   UNL     1      48.190   2.439   6.517  0.00  0.00    +0.000 A 
ATOM     16  N   UNL     1      47.241   3.397   6.685  0.00  0.00    +0.000 N 
ATOM     17  H   UNL     1      47.260   4.353   6.362  0.00  0.00    +0.000 HD
ENDBRANCH  11  12
ENDBRANCH   9  11
ENDBRANCH   8   9
ENDBRANCH   5   8
ENDBRANCH   1   2
BRANCH   1  20
ATOM     18  O   UNL     1      49.348   4.634  16.663  0.00  0.00    +0.000 OA
ATOM     19  C   UNL     1      48.595   5.558  16.367  0.00  0.00    +0.000 C 
ATOM     20  N   UNL     1      47.503   5.387  15.557  0.00  0.00    +0.000 N 
ATOM     21  H   UNL     1      47.079   6.197  15.117  0.00  0.00    +0.000 HD
BRANCH  19  22
ATOM     22  C   UNL     1      48.784   6.904  16.913  0.00  0.00    +0.000 A 
ATOM     23  C   UNL     1      49.369   7.894  16.135  0.00  0.00    +0.000 A 
ATOM     24  S   UNL     1      49.506   9.395  16.937  0.00  0.00    +0.000 S 
ATOM     25  C   UNL     1      48.759   8.778  18.337  0.00  0.00    +0.000 A 
ATOM     26  N   UNL     1      48.537   9.565  19.423  0.00  0.00    +0.000 NA
ATOM     27  C   UNL     1      47.936   8.970  20.399  0.00  0.00    +0.000 A 
ATOM     28  N   UNL     1      47.546   7.658  20.394  0.00  0.00    +0.000 N 
ATOM     29  C   UNL     1      47.800   6.809  19.346  0.00  0.00    +0.000 A 
ATOM     30  O   UNL     1      47.533   5.617  19.418  0.00  0.00    +0.000 OA
ATOM     31  C   UNL     1      48.438   7.438  18.205  0.00  0.00    +0.000 A 
ATOM     32  H   UNL     1      47.106   7.238  21.200  0.00  0.00    +0.000 HD
ENDBRANCH  19  22
ENDBRANCH   1  20
TORSDOF 7
ENDMDL
MODEL 4
REMARK VINA RESULT:    -7.222      1.840      2.179
REMARK INTER + INTRA:         -11.293
REMARK INTER:                 -10.441
REMARK INTRA:                  -0.852
REMARK UNBOUND:                -1.116
REMARK  Name = 
REMARK  7 active torsions:
REMARK  status: ('A' for Active; 'I' for Inactive)
REMARK    1  A    between atoms: C_2  and  C_19
REMARK    2  A    between atoms: N_3  and  C_4
REMARK    3  A    between atoms: C_4  and  C_5
REMARK    4  A    between atoms: C_8  and  C_9
REMARK    5  A    between atoms: C_9  and  N_10
REMARK    6  A    between atoms: N_10  and  C_11
REMARK    7  A    between atoms: C_11  and  C_12
REMARK                            x       y       z     vdW  Elec       q    Type
REMARK                         _______ _______ _______ _____ _____    ______ ____
ROOT
ATOM      1  C   UNL     1      48.320   6.775  13.827  0.00  0.00    +0.000 C 
ENDROOT
BRANCH   1   2
ATOM      2  C   UNL     1      47.262   5.957  13.125  0.00  0.00    +0.000 A 
ATOM      3  C   UNL     1      46.722   6.403  11.923  0.00  0.00    +0.000 A 
ATOM      4  C   UNL     1      45.741   5.639  11.300  0.00  0.00    +0.000 A 
ATOM      5  C   UNL     1      45.317   4.444  11.888  0.00  0.00    +0.000 A 
ATOM      6  C   UNL     1      45.893   4.093  13.104  0.00  0.00    +0.000 A 
ATOM      7  N   UNL     1      46.848   4.815  13.731  0.00  0.00    +0.000 NA
BRANCH   5   8
ATOM      8  C   UNL     1      44.303   3.547  11.232  0.00  0.00    +0.000 C 
BRANCH   8   9
ATOM      9  N   UNL     1      44.885   2.513  10.365  0.00  0.00    +0.000 NA
ATOM     10  H   UNL     1      44.359   1.648  10.494  0.00  0.00    +0.000 HD
BRANCH   9  11
ATOM     11  C   UNL     1      44.800   2.880   8.946  0.00  0.00    +0.000 C 
BRANCH  11  12
ATOM     12  C   UNL     1      45.931   2.283   8.189  0.00  0.00    +0.000 A 
ATOM     13  N   UNL     1      46.317   1.024   8.171  0.00  0.00    +0.000 NA
ATOM     14  N   UNL     1      47.406   0.926   7.337  0.00  0.00    +0.000 NA
ATOM     15  C   UNL     1      47.661   2.126   6.873  0.00  0.00    +0.000 A 
ATOM     16  N   UNL     1      46.760   3.010   7.378  0.00  0.00    +0.000 N 
ATOM     17  H   UNL     1      46.715   4.006   7.222  0.00  0.00    +0.000 HD
ENDBRANCH  11  12
ENDBRANCH   9  11
ENDBRANCH   8   9
ENDBRANCH   5   8
ENDBRANCH   1   2
BRANCH   1  20
ATOM     18  O   UNL     1      49.721   8.326  15.690  0.00  0.00    +0.000 OA
ATOM     19  C   UNL     1      48.891   7.520  16.101  0.00  0.00    +0.000 C 
ATOM     20  N   UNL     1      48.196   6.688  15.263  0.00  0.00    +0.000 N 
ATOM     21  H   UNL     1      47.342   6.250  15.593  0.00  0.00    +0.000 HD
BRANCH  19  22
ATOM     22  C   UNL     1      48.627   7.355  17.533  0.00  0.00    +0.000 A 
ATOM     23  C   UNL     1      48.112   8.412  18.271  0.00  0.00    +0.000 A 
ATOM     24  S   UNL     1      47.870   8.034  19.918  0.00  0.00    +0.000 S 
ATOM     25  C   UNL     1      48.415   6.438  19.689  0.00  0.00    +0.000 A 
ATOM     26  N   UNL     1      48.439   5.547  20.716  0.00  0.00    +0.000 NA
ATOM     27  C   UNL     1      48.847   4.366  20.389  0.00  0.00    +0.000 A 
ATOM     28  N   UNL     1      49.243   3.996  19.132  0.00  0.00    +0.000 N 
ATOM     29  C   UNL     1      49.291   4.874  18.077  0.00  0.00    +0.000 A 
ATOM     30  O   UNL     1      49.750   4.537  16.994  0.00  0.00    +0.000 OA
ATOM     31  C   UNL     1      48.804   6.206  18.382  0.00  0.00    +0.000 A 
ATOM     32  H   UNL     1      49.582   3.064  18.941  0.00  0.00    +0.000 HD
ENDBRANCH  19  22
ENDBRANCH   1  20
TORSDOF 7
ENDMDL
MODEL 5
REMARK VINA RESULT:    -7.087      3.305      7.705
REMARK INTER + INTRA:         -11.102
REMARK INTER:                  -9.962
REMARK INTRA:                  -1.140
REMARK UNBOUND:                -1.116
REMARK  Name = 
REMARK  7 active torsions:
REMARK  status: ('A' for Active; 'I' for Inactive)
REMARK    1  A    between atoms: C_2  and  C_19
REMARK    2  A    between atoms: N_3  and  C_4
REMARK    3  A    between atoms: C_4  and  C_5
REMARK    4  A    between atoms: C_8  and  C_9
REMARK    5  A    between atoms: C_9  and  N_10
REMARK    6  A    between atoms: N_10  and  C_11
REMARK    7  A    between atoms: C_11  and  C_12
REMARK                            x       y       z     vdW  Elec       q    Type
REMARK                         _______ _______ _______ _____ _____    ______ ____
ROOT
ATOM      1  C   UNL     1      48.292   7.947  12.256  0.00  0.00    +0.000 C 
ENDROOT
BRANCH   1   2
ATOM      2  C   UNL     1      48.946   7.559  13.561  0.00  0.00    +0.000 A 
ATOM      3  C   UNL     1      50.251   7.961  13.831  0.00  0.00    +0.000 A 
ATOM      4  C   UNL     1      50.837   7.582  15.034  0.00  0.00    +0.000 A 
ATOM      5  C   UNL     1      50.111   6.811  15.945  0.00  0.00    +0.000 A 
ATOM      6  C   UNL     1      48.824   6.433  15.577  0.00  0.00    +0.000 A 
ATOM      7  N   UNL     1      48.230   6.786  14.416  0.00  0.00    +0.000 NA
BRANCH   5   8
ATOM      8  C   UNL     1      50.671   6.422  17.286  0.00  0.00    +0.000 C 
BRANCH   8   9
ATOM      9  N   UNL     1      49.692   5.808  18.193  0.00  0.00    +0.000 NA
ATOM     10  H   UNL     1      48.810   5.695  17.690  0.00  0.00    +0.000 HD
BRANCH   9  11
ATOM     11  C   UNL     1      50.123   4.477  18.640  0.00  0.00    +0.000 C 
BRANCH  11  12
ATOM     12  C   UNL     1      49.710   3.442  17.656  0.00  0.00    +0.000 A 
ATOM     13  N   UNL     1      50.478   2.596  17.003  0.00  0.00    +0.000 NA
ATOM     14  N   UNL     1      49.672   1.825  16.198  0.00  0.00    +0.000 NA
ATOM     15  C   UNL     1      48.435   2.224  16.375  0.00  0.00    +0.000 A 
ATOM     16  N   UNL     1      48.409   3.236  17.283  0.00  0.00    +0.000 N 
ATOM     17  H   UNL     1      47.609   3.759  17.605  0.00  0.00    +0.000 HD
ENDBRANCH  11  12
ENDBRANCH   9  11
ENDBRANCH   8   9
ENDBRANCH   5   8
ENDBRANCH   1   2
BRANCH   1  20
ATOM     18  O   UNL     1      45.532   7.887  11.790  0.00  0.00    +0.000 OA
ATOM     19  C   UNL     1      46.208   6.921  11.447  0.00  0.00    +0.000 C 
ATOM     20  N   UNL     1      47.556   6.846  11.681  0.00  0.00    +0.000 N 
ATOM     21  H   UNL     1      48.117   6.187  11.151  0.00  0.00    +0.000 HD
BRANCH  19  22
ATOM     22  C   UNL     1      45.601   5.750  10.809  0.00  0.00    +0.000 A 
ATOM     23  C   UNL     1      45.791   5.520   9.453  0.00  0.00    +0.000 A 
ATOM     24  S   UNL     1      45.011   4.110   8.889  0.00  0.00    +0.000 S 
ATOM     25  C   UNL     1      44.422   3.747  10.444  0.00  0.00    +0.000 A 
ATOM     26  N   UNL     1      43.680   2.631  10.673  0.00  0.00    +0.000 NA
ATOM     27  C   UNL     1      43.328   2.469  11.905  0.00  0.00    +0.000 A 
ATOM     28  N   UNL     1      43.639   3.325  12.927  0.00  0.00    +0.000 N 
ATOM     29  C   UNL     1      44.334   4.493  12.735  0.00  0.00    +0.000 A 
ATOM     30  O   UNL     1      44.502   5.286  13.650  0.00  0.00    +0.000 OA
ATOM     31  C   UNL     1      44.790   4.703  11.373  0.00  0.00    +0.000 A 
ATOM     32  H   UNL     1      43.309   3.162  13.867  0.00  0.00    +0.000 HD
ENDBRANCH  19  22
ENDBRANCH   1  20
TORSDOF 7
ENDMDL
MODEL 6
REMARK VINA RESULT:    -6.901      2.765      8.221
REMARK INTER + INTRA:         -10.841
REMARK INTER:                  -9.588
REMARK INTRA:                  -1.253
REMARK UNBOUND:                -1.116
REMARK  Name = 
REMARK  7 active torsions:
REMARK  status: ('A' for Active; 'I' for Inactive)
REMARK    1  A    between atoms: C_2  and  C_19
REMARK    2  A    between atoms: N_3  and  C_4
REMARK    3  A    between atoms: C_4  and  C_5
REMARK    4  A    between atoms: C_8  and  C_9
REMARK    5  A    between atoms: C_9  and  N_10
REMARK    6  A    between atoms: N_10  and  C_11
REMARK    7  A    between atoms: C_11  and  C_12
REMARK                            x       y       z     vdW  Elec       q    Type
REMARK                         _______ _______ _______ _____ _____    ______ ____
ROOT
ATOM      1  C   UNL     1      47.861   7.743  12.426  0.00  0.00    +0.000 C 
ENDROOT
BRANCH   1   2
ATOM      2  C   UNL     1      48.389   7.787  13.840  0.00  0.00    +0.000 A 
ATOM      3  C   UNL     1      47.956   8.779  14.714  0.00  0.00    +0.000 A 
ATOM      4  C   UNL     1      48.465   8.807  16.008  0.00  0.00    +0.000 A 
ATOM      5  C   UNL     1      49.396   7.844  16.406  0.00  0.00    +0.000 A 
ATOM      6  C   UNL     1      49.791   6.908  15.456  0.00  0.00    +0.000 A 
ATOM      7  N   UNL     1      49.314   6.857  14.193  0.00  0.00    +0.000 NA
BRANCH   5   8
ATOM      8  C   UNL     1      49.935   7.787  17.810  0.00  0.00    +0.000 C 
BRANCH   8   9
ATOM      9  N   UNL     1      49.820   6.469  18.447  0.00  0.00    +0.000 NA
ATOM     10  H   UNL     1      50.380   6.471  19.301  0.00  0.00    +0.000 HD
BRANCH   9  11
ATOM     11  C   UNL     1      48.433   6.165  18.824  0.00  0.00    +0.000 C 
BRANCH  11  12
ATOM     12  C   UNL     1      47.972   4.927  18.143  0.00  0.00    +0.000 A 
ATOM     13  N   UNL     1      46.733   4.549  17.906  0.00  0.00    +0.000 NA
ATOM     14  N   UNL     1      46.777   3.337  17.256  0.00  0.00    +0.000 NA
ATOM     15  C   UNL     1      48.039   3.004  17.119  0.00  0.00    +0.000 A 
ATOM     16  N   UNL     1      48.826   3.972  17.659  0.00  0.00    +0.000 N 
ATOM     17  H   UNL     1      49.832   3.988  17.725  0.00  0.00    +0.000 HD
ENDBRANCH  11  12
ENDBRANCH   9  11
ENDBRANCH   8   9
ENDBRANCH   5   8
ENDBRANCH   1   2
BRANCH   1  20
ATOM     18  O   UNL     1      45.076   7.511  12.600  0.00  0.00    +0.000 OA
ATOM     19  C   UNL     1      45.727   6.533  12.244  0.00  0.00    +0.000 C 
ATOM     20  N   UNL     1      47.095   6.544  12.179  0.00  0.00    +0.000 N 
ATOM     21  H   UNL     1      47.573   5.837  11.628  0.00  0.00    +0.000 HD
BRANCH  19  22
ATOM     22  C   UNL     1      45.080   5.260  11.917  0.00  0.00    +0.000 A 
ATOM     23  C   UNL     1      44.383   4.562  12.895  0.00  0.00    +0.000 A 
ATOM     24  S   UNL     1      43.697   3.105  12.329  0.00  0.00    +0.000 S 
ATOM     25  C   UNL     1      44.281   3.377  10.754  0.00  0.00    +0.000 A 
ATOM     26  N   UNL     1      44.021   2.503   9.745  0.00  0.00    +0.000 NA
ATOM     27  C   UNL     1      44.502   2.853   8.599  0.00  0.00    +0.000 A 
ATOM     28  N   UNL     1      45.228   3.991   8.369  0.00  0.00    +0.000 N 
ATOM     29  C   UNL     1      45.566   4.872   9.366  0.00  0.00    +0.000 A 
ATOM     30  O   UNL     1      46.304   5.822   9.146  0.00  0.00    +0.000 OA
ATOM     31  C   UNL     1      45.014   4.547  10.668  0.00  0.00    +0.000 A 
ATOM     32  H   UNL     1      45.605   4.197   7.456  0.00  0.00    +0.000 HD
ENDBRANCH  19  22
ENDBRANCH   1  20
TORSDOF 7
ENDMDL
MODEL 7
REMARK VINA RESULT:    -6.878      2.267      3.265
REMARK INTER + INTRA:         -10.808
REMARK INTER:                  -9.951
REMARK INTRA:                  -0.857
REMARK UNBOUND:                -1.116
REMARK  Name = 
REMARK  7 active torsions:
REMARK  status: ('A' for Active; 'I' for Inactive)
REMARK    1  A    between atoms: C_2  and  C_19
REMARK    2  A    between atoms: N_3  and  C_4
REMARK    3  A    between atoms: C_4  and  C_5
REMARK    4  A    between atoms: C_8  and  C_9
REMARK    5  A    between atoms: C_9  and  N_10
REMARK    6  A    between atoms: N_10  and  C_11
REMARK    7  A    between atoms: C_11  and  C_12
REMARK                            x       y       z     vdW  Elec       q    Type
REMARK                         _______ _______ _______ _____ _____    ______ ____
ROOT
ATOM      1  C   UNL     1      46.935   4.042  15.396  0.00  0.00    +0.000 C 
ENDROOT
BRANCH   1   2
ATOM      2  C   UNL     1      46.484   4.569  14.055  0.00  0.00    +0.000 A 
ATOM      3  C   UNL     1      47.184   5.604  13.443  0.00  0.00    +0.000 A 
ATOM      4  C   UNL     1      46.744   6.082  12.214  0.00  0.00    +0.000 A 
ATOM      5  C   UNL     1      45.613   5.518  11.617  0.00  0.00    +0.000 A 
ATOM      6  C   UNL     1      44.961   4.508  12.316  0.00  0.00    +0.000 A 
ATOM      7  N   UNL     1      45.366   4.024  13.510  0.00  0.00    +0.000 NA
BRANCH   5   8
ATOM      8  C   UNL     1      45.125   5.952  10.262  0.00  0.00    +0.000 C 
BRANCH   8   9
ATOM      9  N   UNL     1      45.667   5.166   9.146  0.00  0.00    +0.000 NA
ATOM     10  H   UNL     1      46.570   4.782   9.428  0.00  0.00    +0.000 HD
BRANCH   9  11
ATOM     11  C   UNL     1      44.792   4.038   8.799  0.00  0.00    +0.000 C 
BRANCH  11  12
ATOM     12  C   UNL     1      45.602   2.873   8.356  0.00  0.00    +0.000 A 
ATOM     13  N   UNL     1      45.489   1.618   8.737  0.00  0.00    +0.000 NA
ATOM     14  N   UNL     1      46.446   0.885   8.073  0.00  0.00    +0.000 NA
ATOM     15  C   UNL     1      47.121   1.711   7.311  0.00  0.00    +0.000 A 
ATOM     16  N   UNL     1      46.627   2.970   7.453  0.00  0.00    +0.000 N 
ATOM     17  H   UNL     1      46.954   3.817   7.014  0.00  0.00    +0.000 HD
ENDBRANCH  11  12
ENDBRANCH   9  11
ENDBRANCH   8   9
ENDBRANCH   5   8
ENDBRANCH   1   2
BRANCH   1  20
ATOM     18  O   UNL     1      46.790   4.743  18.103  0.00  0.00    +0.000 OA
ATOM     19  C   UNL     1      47.684   5.229  17.416  0.00  0.00    +0.000 C 
ATOM     20  N   UNL     1      47.800   4.979  16.074  0.00  0.00    +0.000 N 
ATOM     21  H   UNL     1      48.683   5.160  15.608  0.00  0.00    +0.000 HD
BRANCH  19  22
ATOM     22  C   UNL     1      48.663   6.161  17.982  0.00  0.00    +0.000 A 
ATOM     23  C   UNL     1      48.239   7.357  18.546  0.00  0.00    +0.000 A 
ATOM     24  S   UNL     1      49.517   8.311  19.152  0.00  0.00    +0.000 S 
ATOM     25  C   UNL     1      50.674   7.144  18.709  0.00  0.00    +0.000 A 
ATOM     26  N   UNL     1      51.996   7.325  18.971  0.00  0.00    +0.000 NA
ATOM     27  C   UNL     1      52.752   6.344  18.605  0.00  0.00    +0.000 A 
ATOM     28  N   UNL     1      52.310   5.203  17.992  0.00  0.00    +0.000 N 
ATOM     29  C   UNL     1      50.995   4.999  17.654  0.00  0.00    +0.000 A 
ATOM     30  O   UNL     1      50.651   4.016  17.013  0.00  0.00    +0.000 OA
ATOM     31  C   UNL     1      50.095   6.055  18.080  0.00  0.00    +0.000 A 
ATOM     32  H   UNL     1      52.953   4.481  17.700  0.00  0.00    +0.000 HD
ENDBRANCH  19  22
ENDBRANCH   1  20
TORSDOF 7
ENDMDL
MODEL 8
REMARK VINA RESULT:    -6.585      3.567      8.208
REMARK INTER + INTRA:         -10.395
REMARK INTER:                  -9.547
REMARK INTRA:                  -0.848
REMARK UNBOUND:                -1.116
REMARK  Name = 
REMARK  7 active torsions:
REMARK  status: ('A' for Active; 'I' for Inactive)
REMARK    1  A    between atoms: C_2  and  C_19
REMARK    2  A    between atoms: N_3  and  C_4
REMARK    3  A    between atoms: C_4  and  C_5
REMARK    4  A    between atoms: C_8  and  C_9
REMARK    5  A    between atoms: C_9  and  N_10
REMARK    6  A    between atoms: N_10  and  C_11
REMARK    7  A    between atoms: C_11  and  C_12
REMARK                            x       y       z     vdW  Elec       q    Type
REMARK                         _______ _______ _______ _____ _____    ______ ____
ROOT
ATOM      1  C   UNL     1      48.279   7.453  14.241  0.00  0.00    +0.000 C 
ENDROOT
BRANCH   1   2
ATOM      2  C   UNL     1      48.737   6.596  15.396  0.00  0.00    +0.000 A 
ATOM      3  C   UNL     1      49.870   6.953  16.121  0.00  0.00    +0.000 A 
ATOM      4  C   UNL     1      50.280   6.143  17.174  0.00  0.00    +0.000 A 
ATOM      5  C   UNL     1      49.551   4.991  17.486  0.00  0.00    +0.000 A 
ATOM      6  C   UNL     1      48.449   4.700  16.689  0.00  0.00    +0.000 A 
ATOM      7  N   UNL     1      48.028   5.468  15.661  0.00  0.00    +0.000 NA
BRANCH   5   8
ATOM      8  C   UNL     1      49.911   4.110  18.651  0.00  0.00    +0.000 C 
BRANCH   8   9
ATOM      9  N   UNL     1      51.229   3.470  18.537  0.00  0.00    +0.000 NA
ATOM     10  H   UNL     1      51.480   3.080  19.447  0.00  0.00    +0.000 HD
BRANCH   9  11
ATOM     11  C   UNL     1      51.218   2.367  17.568  0.00  0.00    +0.000 C 
BRANCH  11  12
ATOM     12  C   UNL     1      52.396   1.485  17.775  0.00  0.00    +0.000 A 
ATOM     13  N   UNL     1      53.667   1.780  17.600  0.00  0.00    +0.000 NA
ATOM     14  N   UNL     1      54.408   0.662  17.908  0.00  0.00    +0.000 NA
ATOM     15  C   UNL     1      53.572  -0.287  18.255  0.00  0.00    +0.000 A 
ATOM     16  N   UNL     1      52.298   0.184  18.189  0.00  0.00    +0.000 N 
ATOM     17  H   UNL     1      51.442  -0.317  18.375  0.00  0.00    +0.000 HD
ENDBRANCH  11  12
ENDBRANCH   9  11
ENDBRANCH   8   9
ENDBRANCH   5   8
ENDBRANCH   1   2
BRANCH   1  20
ATOM     18  O   UNL     1      47.698   6.971  11.544  0.00  0.00    +0.000 OA
ATOM     19  C   UNL     1      46.828   6.753  12.382  0.00  0.00    +0.000 C 
ATOM     20  N   UNL     1      47.010   7.007  13.715  0.00  0.00    +0.000 N 
ATOM     21  H   UNL     1      46.398   6.565  14.394  0.00  0.00    +0.000 HD
BRANCH  19  22
ATOM     22  C   UNL     1      45.504   6.255  11.998  0.00  0.00    +0.000 A 
ATOM     23  C   UNL     1      44.571   7.118  11.441  0.00  0.00    +0.000 A 
ATOM     24  S   UNL     1      43.090   6.360  11.058  0.00  0.00    +0.000 S 
ATOM     25  C   UNL     1      43.661   4.849  11.596  0.00  0.00    +0.000 A 
ATOM     26  N   UNL     1      42.884   3.735  11.522  0.00  0.00    +0.000 NA
ATOM     27  C   UNL     1      43.458   2.656  11.938  0.00  0.00    +0.000 A 
ATOM     28  N   UNL     1      44.734   2.589  12.430  0.00  0.00    +0.000 N 
ATOM     29  C   UNL     1      45.535   3.694  12.579  0.00  0.00    +0.000 A 
ATOM     30  O   UNL     1      46.629   3.614  13.120  0.00  0.00    +0.000 OA
ATOM     31  C   UNL     1      44.951   4.928  12.087  0.00  0.00    +0.000 A 
ATOM     32  H   UNL     1      45.120   1.720  12.770  0.00  0.00    +0.000 HD
ENDBRANCH  19  22
ENDBRANCH   1  20
TORSDOF 7
ENDMDL
MODEL 9
REMARK VINA RESULT:    -6.575      3.380      5.672
REMARK INTER + INTRA:         -10.382
REMARK INTER:                  -9.503
REMARK INTRA:                  -0.879
REMARK UNBOUND:                -1.116
REMARK  Name = 
REMARK  7 active torsions:
REMARK  status: ('A' for Active; 'I' for Inactive)
REMARK    1  A    between atoms: C_2  and  C_19
REMARK    2  A    between atoms: N_3  and  C_4
REMARK    3  A    between atoms: C_4  and  C_5
REMARK    4  A    between atoms: C_8  and  C_9
REMARK    5  A    between atoms: C_9  and  N_10
REMARK    6  A    between atoms: N_10  and  C_11
REMARK    7  A    between atoms: C_11  and  C_12
REMARK                            x       y       z     vdW  Elec       q    Type
REMARK                         _______ _______ _______ _____ _____    ______ ____
ROOT
ATOM      1  C   UNL     1      47.808   3.385  17.474  0.00  0.00    +0.000 C 
ENDROOT
BRANCH   1   2
ATOM      2  C   UNL     1      47.688   4.220  16.223  0.00  0.00    +0.000 A 
ATOM      3  C   UNL     1      48.315   5.460  16.151  0.00  0.00    +0.000 A 
ATOM      4  C   UNL     1      48.181   6.218  14.993  0.00  0.00    +0.000 A 
ATOM      5  C   UNL     1      47.425   5.724  13.926  0.00  0.00    +0.000 A 
ATOM      6  C   UNL     1      46.812   4.488  14.099  0.00  0.00    +0.000 A 
ATOM      7  N   UNL     1      46.924   3.731  15.212  0.00  0.00    +0.000 NA
BRANCH   5   8
ATOM      8  C   UNL     1      47.294   6.471  12.627  0.00  0.00    +0.000 C 
BRANCH   8   9
ATOM      9  N   UNL     1      45.907   6.704  12.203  0.00  0.00    +0.000 NA
ATOM     10  H   UNL     1      45.759   7.711  12.114  0.00  0.00    +0.000 HD
BRANCH   9  11
ATOM     11  C   UNL     1      45.626   6.095  10.897  0.00  0.00    +0.000 C 
BRANCH  11  12
ATOM     12  C   UNL     1      44.646   4.987  11.042  0.00  0.00    +0.000 A 
ATOM     13  N   UNL     1      43.334   5.073  11.115  0.00  0.00    +0.000 NA
ATOM     14  N   UNL     1      42.833   3.798  11.248  0.00  0.00    +0.000 NA
ATOM     15  C   UNL     1      43.850   2.970  11.259  0.00  0.00    +0.000 A 
ATOM     16  N   UNL     1      45.008   3.670  11.131  0.00  0.00    +0.000 N 
ATOM     17  H   UNL     1      45.951   3.312  11.129  0.00  0.00    +0.000 HD
ENDBRANCH  11  12
ENDBRANCH   9  11
ENDBRANCH   8   9
ENDBRANCH   5   8
ENDBRANCH   1   2
BRANCH   1  20
ATOM     18  O   UNL     1      49.529   1.659  16.095  0.00  0.00    +0.000 OA
ATOM     19  C   UNL     1      49.971   2.292  17.049  0.00  0.00    +0.000 C 
ATOM     20  N   UNL     1      49.188   3.121  17.809  0.00  0.00    +0.000 N 
ATOM     21  H   UNL     1      49.629   3.824  18.393  0.00  0.00    +0.000 HD
BRANCH  19  22
ATOM     22  C   UNL     1      51.366   2.158  17.476  0.00  0.00    +0.000 A 
ATOM     23  C   UNL     1      51.930   0.898  17.627  0.00  0.00    +0.000 A 
ATOM     24  S   UNL     1      53.561   0.941  18.128  0.00  0.00    +0.000 S 
ATOM     25  C   UNL     1      53.575   2.643  18.128  0.00  0.00    +0.000 A 
ATOM     26  N   UNL     1      54.699   3.339  18.445  0.00  0.00    +0.000 NA
ATOM     27  C   UNL     1      54.570   4.622  18.373  0.00  0.00    +0.000 A 
ATOM     28  N   UNL     1      53.418   5.274  18.024  0.00  0.00    +0.000 N 
ATOM     29  C   UNL     1      52.243   4.618  17.753  0.00  0.00    +0.000 A 
ATOM     30  O   UNL     1      51.207   5.235  17.549  0.00  0.00    +0.000 OA
ATOM     31  C   UNL     1      52.344   3.170  17.779  0.00  0.00    +0.000 A 
ATOM     32  H   UNL     1      53.368   6.283  18.015  0.00  0.00    +0.000 HD
ENDBRANCH  19  22
ENDBRANCH   1  20
TORSDOF 7
ENDMDL
