MODEL 1
REMARK VINA RESULT:    -8.045      0.000      0.000
REMARK INTER + INTRA:         -11.721
REMARK INTER:                 -10.867
REMARK INTRA:                  -0.854
REMARK UNBOUND:                -0.854
REMARK  Name = 
REMARK  7 active torsions:
REMARK  status: ('A' for Active; 'I' for Inactive)
REMARK    1  A    between atoms: C_1  and  O_2
REMARK    2  A    between atoms: O_2  and  C_3
REMARK    3  A    between atoms: C_5  and  C_6
REMARK    4  A    between atoms: C_11  and  C_12
REMARK    5  A    between atoms: C_12  and  N_13
REMARK    6  A    between atoms: N_13  and  C_14
REMARK    7  A    between atoms: C_19  and  C_20
REMARK                            x       y       z     vdW  Elec       q    Type
REMARK                         _______ _______ _______ _____ _____    ______ ____
ROOT
ATOM      1  C   UNL     1      43.746   5.170   9.977  0.00  0.00    +0.000 C 
ENDROOT
BRANCH   1   7
ATOM      2  C   UNL     1      44.378   2.723   9.606  0.00  0.00    +0.000 A 
ATOM      3  C   UNL     1      45.180   1.758   8.981  0.00  0.00    +0.000 A 
ATOM      4  C   UNL     1      46.197   2.124   8.086  0.00  0.00    +0.000 A 
ATOM      5  C   UNL     1      46.400   3.477   7.807  0.00  0.00    +0.000 A 
ATOM      6  C   UNL     1      45.600   4.447   8.423  0.00  0.00    +0.000 A 
ATOM      7  C   UNL     1      44.578   4.084   9.320  0.00  0.00    +0.000 A 
BRANCH   4   8
ATOM      8  C   UNL     1      47.006   1.022   7.486  0.00  0.00    +0.000 C 
ATOM      9  N   UNL     1      46.683  -0.271   7.781  0.00  0.00    +0.000 N 
ATOM     10  O   UNL     1      47.945   1.257   6.732  0.00  0.00    +0.000 OA
ATOM     11  H   UNL     1      45.915  -0.566   8.361  0.00  0.00    +0.000 HD
ATOM     12  H   UNL     1      47.236  -0.989   7.329  0.00  0.00    +0.000 HD
ENDBRANCH   4   8
BRANCH   2  14
ATOM     13  C   UNL     1      43.756   2.043  11.799  0.00  0.00    +0.000 C 
ATOM     14  O   UNL     1      43.368   2.423  10.482  0.00  0.00    +0.000 OA
ENDBRANCH   2  14
ENDBRANCH   1   7
BRANCH   1  15
ATOM     15  N   UNL     1      43.914   5.118  11.428  0.00  0.00    +0.000 N 
ATOM     16  H   UNL     1      43.091   5.473  11.914  0.00  0.00    +0.000 HD
BRANCH  15  17
ATOM     17  C   UNL     1      45.093   5.561  12.031  0.00  0.00    +0.000 A 
ATOM     18  C   UNL     1      45.866   6.621  11.554  0.00  0.00    +0.000 A 
ATOM     19  C   UNL     1      47.072   6.972  12.171  0.00  0.00    +0.000 A 
ATOM     20  C   UNL     1      47.557   6.247  13.264  0.00  0.00    +0.000 A 
ATOM     21 CL   UNL     1      49.035   6.812  13.961  0.00  0.00    +0.000 Cl
ATOM     22  C   UNL     1      46.828   5.150  13.740  0.00  0.00    +0.000 A 
ATOM     23  C   UNL     1      45.610   4.822  13.110  0.00  0.00    +0.000 A 
BRANCH  22  24
ATOM     24  C   UNL     1      47.221   4.293  14.892  0.00  0.00    +0.000 C 
ATOM     25  N   UNL     1      47.225   4.825  16.147  0.00  0.00    +0.000 N 
ATOM     26  O   UNL     1      47.562   3.127  14.723  0.00  0.00    +0.000 OA
ATOM     27  H   UNL     1      46.874   5.749  16.357  0.00  0.00    +0.000 HD
ATOM     28  H   UNL     1      47.431   4.201  16.918  0.00  0.00    +0.000 HD
ENDBRANCH  22  24
ENDBRANCH  15  17
ENDBRANCH   1  15
TORSDOF 6
ENDMDL
MODEL 2
REMARK VINA RESULT:    -8.001      2.793      6.827
REMARK INTER + INTRA:         -11.661
REMARK INTER:                 -10.647
REMARK INTRA:                  -1.014
REMARK UNBOUND:                -0.854
REMARK  Name = 
REMARK  7 active torsions:
REMARK  status: ('A' for Active; 'I' for Inactive)
REMARK    1  A    between atoms: C_1  and  O_2
REMARK    2  A    between atoms: O_2  and  C_3
REMARK    3  A    between atoms: C_5  and  C_6
REMARK    4  A    between atoms: C_11  and  C_12
REMARK    5  A    between atoms: C_12  and  N_13
REMARK    6  A    between atoms: N_13  and  C_14
REMARK    7  A    between atoms: C_19  and  C_20
REMARK                            x       y       z     vdW  Elec       q    Type
REMARK                         _______ _______ _______ _____ _____    ______ ____
ROOT
ATOM      1  C   UNL     1      43.668   5.085  10.754  0.00  0.00    +0.000 C 
ENDROOT
BRANCH   1   7
ATOM      2  C   UNL     1      45.494   6.491  11.858  0.00  0.00    +0.000 A 
ATOM      3  C   UNL     1      46.507   6.628  12.817  0.00  0.00    +0.000 A 
ATOM      4  C   UNL     1      46.826   5.582  13.695  0.00  0.00    +0.000 A 
ATOM      5  C   UNL     1      46.107   4.387  13.616  0.00  0.00    +0.000 A 
ATOM      6  C   UNL     1      45.091   4.243  12.663  0.00  0.00    +0.000 A 
ATOM      7  C   UNL     1      44.767   5.291  11.782  0.00  0.00    +0.000 A 
BRANCH   4   8
ATOM      8  C   UNL     1      47.931   5.822  14.669  0.00  0.00    +0.000 C 
ATOM      9  N   UNL     1      47.759   5.444  15.970  0.00  0.00    +0.000 N 
ATOM     10  O   UNL     1      48.987   6.342  14.323  0.00  0.00    +0.000 OA
ATOM     11  H   UNL     1      46.945   4.984  16.344  0.00  0.00    +0.000 HD
ATOM     12  H   UNL     1      48.543   5.596  16.592  0.00  0.00    +0.000 HD
ENDBRANCH   4   8
BRANCH   2  14
ATOM     13  C   UNL     1      44.652   8.694  11.548  0.00  0.00    +0.000 C 
ATOM     14  O   UNL     1      45.136   7.480  10.980  0.00  0.00    +0.000 OA
ENDBRANCH   2  14
ENDBRANCH   1   7
BRANCH   1  15
ATOM     15  N   UNL     1      44.249   4.968   9.419  0.00  0.00    +0.000 N 
ATOM     16  H   UNL     1      43.657   5.403   8.712  0.00  0.00    +0.000 HD
BRANCH  15  17
ATOM     17  C   UNL     1      44.776   3.756   8.967  0.00  0.00    +0.000 A 
ATOM     18  C   UNL     1      44.515   2.520   9.561  0.00  0.00    +0.000 A 
ATOM     19  C   UNL     1      45.127   1.351   9.097  0.00  0.00    +0.000 A 
ATOM     20  C   UNL     1      46.048   1.391   8.045  0.00  0.00    +0.000 A 
ATOM     21 CL   UNL     1      46.697  -0.128   7.538  0.00  0.00    +0.000 Cl
ATOM     22  C   UNL     1      46.366   2.621   7.457  0.00  0.00    +0.000 A 
ATOM     23  C   UNL     1      45.728   3.785   7.933  0.00  0.00    +0.000 A 
BRANCH  22  24
ATOM     24  C   UNL     1      47.323   2.814   6.332  0.00  0.00    +0.000 C 
ATOM     25  N   UNL     1      48.653   2.612   6.548  0.00  0.00    +0.000 N 
ATOM     26  O   UNL     1      46.932   3.172   5.226  0.00  0.00    +0.000 OA
ATOM     27  H   UNL     1      49.024   2.236   7.410  0.00  0.00    +0.000 HD
ATOM     28  H   UNL     1      49.272   2.685   5.749  0.00  0.00    +0.000 HD
ENDBRANCH  22  24
ENDBRANCH  15  17
ENDBRANCH   1  15
TORSDOF 6
ENDMDL
MODEL 3
REMARK VINA RESULT:    -7.845      2.686      6.616
REMARK INTER + INTRA:         -11.451
REMARK INTER:                 -10.789
REMARK INTRA:                  -0.661
REMARK UNBOUND:                -0.854
REMARK  Name = 
REMARK  7 active torsions:
REMARK  status: ('A' for Active; 'I' for Inactive)
REMARK    1  A    between atoms: C_1  and  O_2
REMARK    2  A    between atoms: O_2  and  C_3
REMARK    3  A    between atoms: C_5  and  C_6
REMARK    4  A    between atoms: C_11  and  C_12
REMARK    5  A    between atoms: C_12  and  N_13
REMARK    6  A    between atoms: N_13  and  C_14
REMARK    7  A    between atoms: C_19  and  C_20
REMARK                            x       y       z     vdW  Elec       q    Type
REMARK                         _______ _______ _______ _____ _____    ______ ____
ROOT
ATOM      1  C   UNL     1      43.913   5.217  10.574  0.00  0.00    +0.000 C 
ENDROOT
BRANCH   1   7
ATOM      2  C   UNL     1      45.226   4.719  12.708  0.00  0.00    +0.000 A 
ATOM      3  C   UNL     1      46.288   5.010  13.575  0.00  0.00    +0.000 A 
ATOM      4  C   UNL     1      47.176   6.064  13.312  0.00  0.00    +0.000 A 
ATOM      5  C   UNL     1      47.001   6.825  12.155  0.00  0.00    +0.000 A 
ATOM      6  C   UNL     1      45.945   6.539  11.281  0.00  0.00    +0.000 A 
ATOM      7  C   UNL     1      45.053   5.482  11.541  0.00  0.00    +0.000 A 
BRANCH   4   8
ATOM      8  C   UNL     1      48.265   6.302  14.306  0.00  0.00    +0.000 C 
ATOM      9  N   UNL     1      48.009   6.091  15.630  0.00  0.00    +0.000 N 
ATOM     10  O   UNL     1      49.379   6.676  13.954  0.00  0.00    +0.000 OA
ATOM     11  H   UNL     1      47.141   5.756  16.013  0.00  0.00    +0.000 HD
ATOM     12  H   UNL     1      48.782   6.234  16.267  0.00  0.00    +0.000 HD
ENDBRANCH   4   8
BRANCH   2  14
ATOM     13  C   UNL     1      43.118   4.038  13.575  0.00  0.00    +0.000 C 
ATOM     14  O   UNL     1      44.333   3.700  12.912  0.00  0.00    +0.000 OA
ENDBRANCH   2  14
ENDBRANCH   1   7
BRANCH   1  15
ATOM     15  N   UNL     1      44.436   5.029   9.224  0.00  0.00    +0.000 N 
ATOM     16  H   UNL     1      43.817   5.432   8.521  0.00  0.00    +0.000 HD
BRANCH  15  17
ATOM     17  C   UNL     1      44.936   3.791   8.811  0.00  0.00    +0.000 A 
ATOM     18  C   UNL     1      44.649   2.582   9.447  0.00  0.00    +0.000 A 
ATOM     19  C   UNL     1      45.235   1.384   9.021  0.00  0.00    +0.000 A 
ATOM     20  C   UNL     1      46.153   1.370   7.966  0.00  0.00    +0.000 A 
ATOM     21 CL   UNL     1      46.768  -0.180   7.509  0.00  0.00    +0.000 Cl
ATOM     22  C   UNL     1      46.496   2.572   7.336  0.00  0.00    +0.000 A 
ATOM     23  C   UNL     1      45.884   3.764   7.775  0.00  0.00    +0.000 A 
BRANCH  22  24
ATOM     24  C   UNL     1      47.453   2.706   6.203  0.00  0.00    +0.000 C 
ATOM     25  N   UNL     1      48.785   2.534   6.433  0.00  0.00    +0.000 N 
ATOM     26  O   UNL     1      47.060   2.990   5.076  0.00  0.00    +0.000 OA
ATOM     27  H   UNL     1      49.158   2.217   7.318  0.00  0.00    +0.000 HD
ATOM     28  H   UNL     1      49.405   2.564   5.633  0.00  0.00    +0.000 HD
ENDBRANCH  22  24
ENDBRANCH  15  17
ENDBRANCH   1  15
TORSDOF 6
ENDMDL
MODEL 4
REMARK VINA RESULT:    -7.106      1.863      2.244
REMARK INTER + INTRA:         -10.452
REMARK INTER:                  -9.799
REMARK INTRA:                  -0.654
REMARK UNBOUND:                -0.854
REMARK  Name = 
REMARK  7 active torsions:
REMARK  status: ('A' for Active; 'I' for Inactive)
REMARK    1  A    between atoms: C_1  and  O_2
REMARK    2  A    between atoms: O_2  and  C_3
REMARK    3  A    between atoms: C_5  and  C_6
REMARK    4  A    between atoms: C_11  and  C_12
REMARK    5  A    between atoms: C_12  and  N_13
REMARK    6  A    between atoms: N_13  and  C_14
REMARK    7  A    between atoms: C_19  and  C_20
REMARK                            x       y       z     vdW  Elec       q    Type
REMARK                         _______ _______ _______ _____ _____    ______ ____
ROOT
ATOM      1  C   UNL     1      44.202   5.329   9.938  0.00  0.00    +0.000 C 
ENDROOT
BRANCH   1   7
ATOM      2  C   UNL     1      44.610   2.839   9.536  0.00  0.00    +0.000 A 
ATOM      3  C   UNL     1      45.291   1.814   8.867  0.00  0.00    +0.000 A 
ATOM      4  C   UNL     1      46.277   2.097   7.910  0.00  0.00    +0.000 A 
ATOM      5  C   UNL     1      46.571   3.430   7.614  0.00  0.00    +0.000 A 
ATOM      6  C   UNL     1      45.892   4.460   8.275  0.00  0.00    +0.000 A 
ATOM      7  C   UNL     1      44.901   4.180   9.234  0.00  0.00    +0.000 A 
BRANCH   4   8
ATOM      8  C   UNL     1      46.956   0.935   7.265  0.00  0.00    +0.000 C 
ATOM      9  N   UNL     1      46.651  -0.327   7.688  0.00  0.00    +0.000 N 
ATOM     10  O   UNL     1      47.772   1.092   6.362  0.00  0.00    +0.000 OA
ATOM     11  H   UNL     1      45.976  -0.560   8.397  0.00  0.00    +0.000 HD
ATOM     12  H   UNL     1      47.110  -1.089   7.204  0.00  0.00    +0.000 HD
ENDBRANCH   4   8
BRANCH   2  14
ATOM     13  C   UNL     1      44.073   2.340  11.799  0.00  0.00    +0.000 C 
ATOM     14  O   UNL     1      43.634   2.621  10.473  0.00  0.00    +0.000 OA
ENDBRANCH   2  14
ENDBRANCH   1   7
BRANCH   1  15
ATOM     15  N   UNL     1      45.183   6.317  10.378  0.00  0.00    +0.000 N 
ATOM     16  H   UNL     1      45.787   6.614   9.612  0.00  0.00    +0.000 HD
BRANCH  15  17
ATOM     17  C   UNL     1      45.909   6.134  11.557  0.00  0.00    +0.000 A 
ATOM     18  C   UNL     1      45.524   5.273  12.587  0.00  0.00    +0.000 A 
ATOM     19  C   UNL     1      46.265   5.185  13.771  0.00  0.00    +0.000 A 
ATOM     20  C   UNL     1      47.396   5.983  13.971  0.00  0.00    +0.000 A 
ATOM     21 CL   UNL     1      48.247   5.745  15.457  0.00  0.00    +0.000 Cl
ATOM     22  C   UNL     1      47.783   6.889  12.976  0.00  0.00    +0.000 A 
ATOM     23  C   UNL     1      47.028   6.952  11.787  0.00  0.00    +0.000 A 
BRANCH  22  24
ATOM     24  C   UNL     1      48.962   7.796  13.053  0.00  0.00    +0.000 C 
ATOM     25  N   UNL     1      50.209   7.286  12.849  0.00  0.00    +0.000 N 
ATOM     26  O   UNL     1      48.826   8.985  13.319  0.00  0.00    +0.000 OA
ATOM     27  H   UNL     1      50.376   6.336  12.543  0.00  0.00    +0.000 HD
ATOM     28  H   UNL     1      50.985   7.937  12.840  0.00  0.00    +0.000 HD
ENDBRANCH  22  24
ENDBRANCH  15  17
ENDBRANCH   1  15
TORSDOF 6
ENDMDL
MODEL 5
REMARK VINA RESULT:    -7.075      2.184      2.440
REMARK INTER + INTRA:         -10.410
REMARK INTER:                  -9.520
REMARK INTRA:                  -0.889
REMARK UNBOUND:                -0.854
REMARK  Name = 
REMARK  7 active torsions:
REMARK  status: ('A' for Active; 'I' for Inactive)
REMARK    1  A    between atoms: C_1  and  O_2
REMARK    2  A    between atoms: O_2  and  C_3
REMARK    3  A    between atoms: C_5  and  C_6
REMARK    4  A    between atoms: C_11  and  C_12
REMARK    5  A    between atoms: C_12  and  N_13
REMARK    6  A    between atoms: N_13  and  C_14
REMARK    7  A    between atoms: C_19  and  C_20
REMARK                            x       y       z     vdW  Elec       q    Type
REMARK                         _______ _______ _______ _____ _____    ______ ____
ROOT
ATOM      1  C   UNL     1      43.835   5.420  10.276  0.00  0.00    +0.000 C 
ENDROOT
BRANCH   1   7
ATOM      2  C   UNL     1      44.339   2.946   9.887  0.00  0.00    +0.000 A 
ATOM      3  C   UNL     1      45.064   1.945   9.228  0.00  0.00    +0.000 A 
ATOM      4  C   UNL     1      46.047   2.262   8.279  0.00  0.00    +0.000 A 
ATOM      5  C   UNL     1      46.294   3.603   7.980  0.00  0.00    +0.000 A 
ATOM      6  C   UNL     1      45.571   4.610   8.631  0.00  0.00    +0.000 A 
ATOM      7  C   UNL     1      44.583   4.296   9.582  0.00  0.00    +0.000 A 
BRANCH   4   8
ATOM      8  C   UNL     1      46.775   1.123   7.644  0.00  0.00    +0.000 C 
ATOM      9  N   UNL     1      47.799   1.392   6.782  0.00  0.00    +0.000 N 
ATOM     10  O   UNL     1      46.476  -0.042   7.887  0.00  0.00    +0.000 OA
ATOM     11  H   UNL     1      48.139   2.309   6.543  0.00  0.00    +0.000 HD
ATOM     12  H   UNL     1      48.287   0.593   6.397  0.00  0.00    +0.000 HD
ENDBRANCH   4   8
BRANCH   2  14
ATOM     13  C   UNL     1      43.804   2.410  12.142  0.00  0.00    +0.000 C 
ATOM     14  O   UNL     1      43.364   2.695  10.817  0.00  0.00    +0.000 OA
ENDBRANCH   2  14
ENDBRANCH   1   7
BRANCH   1  15
ATOM     15  N   UNL     1      44.425   5.679  11.587  0.00  0.00    +0.000 N 
ATOM     16  H   UNL     1      43.748   5.546  12.337  0.00  0.00    +0.000 HD
BRANCH  15  17
ATOM     17  C   UNL     1      45.216   6.809  11.809  0.00  0.00    +0.000 A 
ATOM     18  C   UNL     1      44.733   8.118  11.784  0.00  0.00    +0.000 A 
ATOM     19  C   UNL     1      45.593   9.210  11.952  0.00  0.00    +0.000 A 
ATOM     20  C   UNL     1      46.969   9.021  12.115  0.00  0.00    +0.000 A 
ATOM     21 CL   UNL     1      47.913  10.449  12.357  0.00  0.00    +0.000 Cl
ATOM     22  C   UNL     1      47.492   7.723  12.099  0.00  0.00    +0.000 A 
ATOM     23  C   UNL     1      46.605   6.638  11.940  0.00  0.00    +0.000 A 
BRANCH  22  24
ATOM     24  C   UNL     1      48.930   7.374  12.263  0.00  0.00    +0.000 C 
ATOM     25  N   UNL     1      49.386   6.986  13.487  0.00  0.00    +0.000 N 
ATOM     26  O   UNL     1      49.710   7.454  11.319  0.00  0.00    +0.000 OA
ATOM     27  H   UNL     1      48.778   6.820  14.277  0.00  0.00    +0.000 HD
ATOM     28  H   UNL     1      50.353   6.690  13.553  0.00  0.00    +0.000 HD
ENDBRANCH  22  24
ENDBRANCH  15  17
ENDBRANCH   1  15
TORSDOF 6
ENDMDL
MODEL 6
REMARK VINA RESULT:    -6.520      3.681      7.737
REMARK INTER + INTRA:          -9.661
REMARK INTER:                  -8.906
REMARK INTRA:                  -0.754
REMARK UNBOUND:                -0.854
REMARK  Name = 
REMARK  7 active torsions:
REMARK  status: ('A' for Active; 'I' for Inactive)
REMARK    1  A    between atoms: C_1  and  O_2
REMARK    2  A    between atoms: O_2  and  C_3
REMARK    3  A    between atoms: C_5  and  C_6
REMARK    4  A    between atoms: C_11  and  C_12
REMARK    5  A    between atoms: C_12  and  N_13
REMARK    6  A    between atoms: N_13  and  C_14
REMARK    7  A    between atoms: C_19  and  C_20
REMARK                            x       y       z     vdW  Elec       q    Type
REMARK                         _______ _______ _______ _____ _____    ______ ____
ROOT
ATOM      1  C   UNL     1      47.207   4.456  16.286  0.00  0.00    +0.000 C 
ENDROOT
BRANCH   1   7
ATOM      2  C   UNL     1      49.504   4.382  17.402  0.00  0.00    +0.000 A 
ATOM      3  C   UNL     1      50.664   3.675  17.746  0.00  0.00    +0.000 A 
ATOM      4  C   UNL     1      50.835   2.332  17.379  0.00  0.00    +0.000 A 
ATOM      5  C   UNL     1      49.818   1.689  16.670  0.00  0.00    +0.000 A 
ATOM      6  C   UNL     1      48.654   2.387  16.326  0.00  0.00    +0.000 A 
ATOM      7  C   UNL     1      48.478   3.734  16.694  0.00  0.00    +0.000 A 
BRANCH   4   8
ATOM      8  C   UNL     1      52.113   1.672  17.779  0.00  0.00    +0.000 C 
ATOM      9  N   UNL     1      52.087   0.366  18.175  0.00  0.00    +0.000 N 
ATOM     10  O   UNL     1      53.180   2.277  17.750  0.00  0.00    +0.000 OA
ATOM     11  H   UNL     1      51.270  -0.221  18.202  0.00  0.00    +0.000 HD
ATOM     12  H   UNL     1      52.978  -0.053  18.408  0.00  0.00    +0.000 HD
ENDBRANCH   4   8
BRANCH   2  14
ATOM     13  C   UNL     1      50.431   6.478  18.041  0.00  0.00    +0.000 C 
ATOM     14  O   UNL     1      49.281   5.692  17.739  0.00  0.00    +0.000 OA
ENDBRANCH   2  14
ENDBRANCH   1   7
BRANCH   1  15
ATOM     15  N   UNL     1      47.525   5.549  15.371  0.00  0.00    +0.000 N 
ATOM     16  H   UNL     1      47.390   6.459  15.810  0.00  0.00    +0.000 HD
BRANCH  15  17
ATOM     17  C   UNL     1      47.057   5.544  14.055  0.00  0.00    +0.000 A 
ATOM     18  C   UNL     1      47.324   6.552  13.127  0.00  0.00    +0.000 A 
ATOM     19  C   UNL     1      46.770   6.518  11.842  0.00  0.00    +0.000 A 
ATOM     20  C   UNL     1      45.903   5.489  11.462  0.00  0.00    +0.000 A 
ATOM     21 CL   UNL     1      45.324   5.540   9.834  0.00  0.00    +0.000 Cl
ATOM     22  C   UNL     1      45.578   4.487  12.384  0.00  0.00    +0.000 A 
ATOM     23  C   UNL     1      46.158   4.536  13.669  0.00  0.00    +0.000 A 
BRANCH  22  24
ATOM     24  C   UNL     1      44.674   3.334  12.117  0.00  0.00    +0.000 C 
ATOM     25  N   UNL     1      44.867   2.582  10.997  0.00  0.00    +0.000 N 
ATOM     26  O   UNL     1      43.748   3.070  12.877  0.00  0.00    +0.000 OA
ATOM     27  H   UNL     1      45.661   2.699  10.381  0.00  0.00    +0.000 HD
ATOM     28  H   UNL     1      44.281   1.765  10.876  0.00  0.00    +0.000 HD
ENDBRANCH  22  24
ENDBRANCH  15  17
ENDBRANCH   1  15
TORSDOF 6
ENDMDL
MODEL 7
REMARK VINA RESULT:    -6.327      4.022      5.668
REMARK INTER + INTRA:          -9.400
REMARK INTER:                  -8.499
REMARK INTRA:                  -0.901
REMARK UNBOUND:                -0.854
REMARK  Name = 
REMARK  7 active torsions:
REMARK  status: ('A' for Active; 'I' for Inactive)
REMARK    1  A    between atoms: C_1  and  O_2
REMARK    2  A    between atoms: O_2  and  C_3
REMARK    3  A    between atoms: C_5  and  C_6
REMARK    4  A    between atoms: C_11  and  C_12
REMARK    5  A    between atoms: C_12  and  N_13
REMARK    6  A    between atoms: N_13  and  C_14
REMARK    7  A    between atoms: C_19  and  C_20
REMARK                            x       y       z     vdW  Elec       q    Type
REMARK                         _______ _______ _______ _____ _____    ______ ____
ROOT
ATOM      1  C   UNL     1      48.280   7.466  13.783  0.00  0.00    +0.000 C 
ENDROOT
BRANCH   1   7
ATOM      2  C   UNL     1      46.637   5.677  12.992  0.00  0.00    +0.000 A 
ATOM      3  C   UNL     1      45.427   5.327  12.378  0.00  0.00    +0.000 A 
ATOM      4  C   UNL     1      44.550   6.305  11.884  0.00  0.00    +0.000 A 
ATOM      5  C   UNL     1      44.890   7.652  12.023  0.00  0.00    +0.000 A 
ATOM      6  C   UNL     1      46.095   8.011  12.639  0.00  0.00    +0.000 A 
ATOM      7  C   UNL     1      46.976   7.033  13.137  0.00  0.00    +0.000 A 
BRANCH   4   8
ATOM      8  C   UNL     1      43.294   5.829  11.233  0.00  0.00    +0.000 C 
ATOM      9  N   UNL     1      42.093   6.270  11.712  0.00  0.00    +0.000 N 
ATOM     10  O   UNL     1      43.321   5.060  10.277  0.00  0.00    +0.000 OA
ATOM     11  H   UNL     1      41.968   6.922  12.468  0.00  0.00    +0.000 HD
ATOM     12  H   UNL     1      41.267   5.948  11.223  0.00  0.00    +0.000 HD
ENDBRANCH   4   8
BRANCH   2  14
ATOM     13  C   UNL     1      46.993   3.507  13.901  0.00  0.00    +0.000 C 
ATOM     14  O   UNL     1      47.526   4.766  13.499  0.00  0.00    +0.000 OA
ENDBRANCH   2  14
ENDBRANCH   1   7
BRANCH   1  15
ATOM     15  N   UNL     1      48.157   7.416  15.238  0.00  0.00    +0.000 N 
ATOM     16  H   UNL     1      48.055   8.348  15.639  0.00  0.00    +0.000 HD
BRANCH  15  17
ATOM     17  C   UNL     1      49.013   6.623  16.005  0.00  0.00    +0.000 A 
ATOM     18  C   UNL     1      50.390   6.829  16.105  0.00  0.00    +0.000 A 
ATOM     19  C   UNL     1      51.200   5.956  16.840  0.00  0.00    +0.000 A 
ATOM     20  C   UNL     1      50.658   4.831  17.470  0.00  0.00    +0.000 A 
ATOM     21 CL   UNL     1      51.759   3.861  18.383  0.00  0.00    +0.000 Cl
ATOM     22  C   UNL     1      49.288   4.571  17.352  0.00  0.00    +0.000 A 
ATOM     23  C   UNL     1      48.489   5.470  16.615  0.00  0.00    +0.000 A 
BRANCH  22  24
ATOM     24  C   UNL     1      48.576   3.416  17.967  0.00  0.00    +0.000 C 
ATOM     25  N   UNL     1      48.404   3.385  19.319  0.00  0.00    +0.000 N 
ATOM     26  O   UNL     1      48.167   2.488  17.279  0.00  0.00    +0.000 OA
ATOM     27  H   UNL     1      48.643   4.158  19.926  0.00  0.00    +0.000 HD
ATOM     28  H   UNL     1      47.859   2.622  19.702  0.00  0.00    +0.000 HD
ENDBRANCH  22  24
ENDBRANCH  15  17
ENDBRANCH   1  15
TORSDOF 6
ENDMDL
MODEL 8
REMARK VINA RESULT:    -6.258      4.079      6.135
REMARK INTER + INTRA:          -9.307
REMARK INTER:                  -8.446
REMARK INTRA:                  -0.861
REMARK UNBOUND:                -0.854
REMARK  Name = 
REMARK  7 active torsions:
REMARK  status: ('A' for Active; 'I' for Inactive)
REMARK    1  A    between atoms: C_1  and  O_2
REMARK    2  A    between atoms: O_2  and  C_3
REMARK    3  A    between atoms: C_5  and  C_6
REMARK    4  A    between atoms: C_11  and  C_12
REMARK    5  A    between atoms: C_12  and  N_13
REMARK    6  A    between atoms: N_13  and  C_14
REMARK    7  A    between atoms: C_19  and  C_20
REMARK                            x       y       z     vdW  Elec       q    Type
REMARK                         _______ _______ _______ _____ _____    ______ ____
ROOT
ATOM      1  C   UNL     1      47.218   3.890  14.150  0.00  0.00    +0.000 C 
ENDROOT
BRANCH   1   7
ATOM      2  C   UNL     1      45.191   5.098  13.172  0.00  0.00    +0.000 A 
ATOM      3  C   UNL     1      44.627   6.232  12.573  0.00  0.00    +0.000 A 
ATOM      4  C   UNL     1      45.402   7.365  12.283  0.00  0.00    +0.000 A 
ATOM      5  C   UNL     1      46.758   7.361  12.613  0.00  0.00    +0.000 A 
ATOM      6  C   UNL     1      47.329   6.234  13.216  0.00  0.00    +0.000 A 
ATOM      7  C   UNL     1      46.554   5.096  13.511  0.00  0.00    +0.000 A 
BRANCH   4   8
ATOM      8  C   UNL     1      44.710   8.516  11.629  0.00  0.00    +0.000 C 
ATOM      9  N   UNL     1      43.578   8.281  10.904  0.00  0.00    +0.000 N 
ATOM     10  O   UNL     1      45.135   9.662  11.737  0.00  0.00    +0.000 OA
ATOM     11  H   UNL     1      43.135   7.385  10.782  0.00  0.00    +0.000 HD
ATOM     12  H   UNL     1      43.123   9.091  10.502  0.00  0.00    +0.000 HD
ENDBRANCH   4   8
BRANCH   2  14
ATOM     13  C   UNL     1      43.845   3.294  12.401  0.00  0.00    +0.000 C 
ATOM     14  O   UNL     1      44.481   3.968  13.484  0.00  0.00    +0.000 OA
ENDBRANCH   2  14
ENDBRANCH   1   7
BRANCH   1  15
ATOM     15  N   UNL     1      46.726   3.714  15.515  0.00  0.00    +0.000 N 
ATOM     16  H   UNL     1      45.811   4.145  15.643  0.00  0.00    +0.000 HD
BRANCH  15  17
ATOM     17  C   UNL     1      47.557   3.946  16.614  0.00  0.00    +0.000 A 
ATOM     18  C   UNL     1      47.296   4.895  17.604  0.00  0.00    +0.000 A 
ATOM     19  C   UNL     1      48.203   5.121  18.645  0.00  0.00    +0.000 A 
ATOM     20  C   UNL     1      49.415   4.426  18.705  0.00  0.00    +0.000 A 
ATOM     21 CL   UNL     1      50.425   4.765  20.067  0.00  0.00    +0.000 Cl
ATOM     22  C   UNL     1      49.727   3.499  17.704  0.00  0.00    +0.000 A 
ATOM     23  C   UNL     1      48.793   3.279  16.670  0.00  0.00    +0.000 A 
BRANCH  22  24
ATOM     24  C   UNL     1      50.974   2.688  17.641  0.00  0.00    +0.000 C 
ATOM     25  N   UNL     1      50.883   1.329  17.579  0.00  0.00    +0.000 N 
ATOM     26  O   UNL     1      52.077   3.224  17.670  0.00  0.00    +0.000 OA
ATOM     27  H   UNL     1      50.006   0.838  17.467  0.00  0.00    +0.000 HD
ATOM     28  H   UNL     1      51.744   0.808  17.469  0.00  0.00    +0.000 HD
ENDBRANCH  22  24
ENDBRANCH  15  17
ENDBRANCH   1  15
TORSDOF 6
ENDMDL
MODEL 9
REMARK VINA RESULT:    -6.162      3.963      5.864
REMARK INTER + INTRA:          -9.177
REMARK INTER:                  -8.365
REMARK INTRA:                  -0.812
REMARK UNBOUND:                -0.854
REMARK  Name = 
REMARK  7 active torsions:
REMARK  status: ('A' for Active; 'I' for Inactive)
REMARK    1  A    between atoms: C_1  and  O_2
REMARK    2  A    between atoms: O_2  and  C_3
REMARK    3  A    between atoms: C_5  and  C_6
REMARK    4  A    between atoms: C_11  and  C_12
REMARK    5  A    between atoms: C_12  and  N_13
REMARK    6  A    between atoms: N_13  and  C_14
REMARK    7  A    between atoms: C_19  and  C_20
REMARK                            x       y       z     vdW  Elec       q    Type
REMARK                         _______ _______ _______ _____ _____    ______ ____
ROOT
ATOM      1  C   UNL     1      48.188   7.140  13.646  0.00  0.00    +0.000 C 
ENDROOT
BRANCH   1   7
ATOM      2  C   UNL     1      45.791   7.443  12.817  0.00  0.00    +0.000 A 
ATOM      3  C   UNL     1      44.586   6.891  12.361  0.00  0.00    +0.000 A 
ATOM      4  C   UNL     1      44.421   5.504  12.233  0.00  0.00    +0.000 A 
ATOM      5  C   UNL     1      45.488   4.662  12.556  0.00  0.00    +0.000 A 
ATOM      6  C   UNL     1      46.696   5.205  13.008  0.00  0.00    +0.000 A 
ATOM      7  C   UNL     1      46.866   6.596  13.136  0.00  0.00    +0.000 A 
BRANCH   4   8
ATOM      8  C   UNL     1      43.094   5.015  11.754  0.00  0.00    +0.000 C 
ATOM      9  N   UNL     1      42.031   5.871  11.767  0.00  0.00    +0.000 N 
ATOM     10  O   UNL     1      42.946   3.869  11.344  0.00  0.00    +0.000 OA
ATOM     11  H   UNL     1      42.058   6.836  12.054  0.00  0.00    +0.000 HD
ATOM     12  H   UNL     1      41.157   5.511  11.406  0.00  0.00    +0.000 HD
ENDBRANCH   4   8
BRANCH   2  14
ATOM     13  C   UNL     1      45.130   9.655  12.243  0.00  0.00    +0.000 C 
ATOM     14  O   UNL     1      46.009   8.789  12.955  0.00  0.00    +0.000 OA
ENDBRANCH   2  14
ENDBRANCH   1   7
BRANCH   1  15
ATOM     15  N   UNL     1      48.138   7.295  15.098  0.00  0.00    +0.000 N 
ATOM     16  H   UNL     1      48.132   8.277  15.371  0.00  0.00    +0.000 HD
BRANCH  15  17
ATOM     17  C   UNL     1      48.966   6.540  15.931  0.00  0.00    +0.000 A 
ATOM     18  C   UNL     1      50.327   6.789  16.115  0.00  0.00    +0.000 A 
ATOM     19  C   UNL     1      51.114   5.953  16.915  0.00  0.00    +0.000 A 
ATOM     20  C   UNL     1      50.566   4.821  17.527  0.00  0.00    +0.000 A 
ATOM     21 CL   UNL     1      51.635   3.899  18.525  0.00  0.00    +0.000 Cl
ATOM     22  C   UNL     1      49.215   4.518  17.326  0.00  0.00    +0.000 A 
ATOM     23  C   UNL     1      48.438   5.380  16.525  0.00  0.00    +0.000 A 
BRANCH  22  24
ATOM     24  C   UNL     1      48.500   3.351  17.915  0.00  0.00    +0.000 C 
ATOM     25  N   UNL     1      48.385   3.255  19.269  0.00  0.00    +0.000 N 
ATOM     26  O   UNL     1      48.037   2.469  17.200  0.00  0.00    +0.000 OA
ATOM     27  H   UNL     1      48.671   3.990  19.903  0.00  0.00    +0.000 HD
ATOM     28  H   UNL     1      47.837   2.487  19.638  0.00  0.00    +0.000 HD
ENDBRANCH  22  24
ENDBRANCH  15  17
ENDBRANCH   1  15
TORSDOF 6
ENDMDL
