MODEL 1
REMARK VINA RESULT:    -8.683      0.000      0.000
REMARK INTER + INTRA:         -11.492
REMARK INTER:                 -10.713
REMARK INTRA:                  -0.779
REMARK UNBOUND:                -0.779
REMARK  Name = 
REMARK  4 active torsions:
REMARK  status: ('A' for Active; 'I' for Inactive)
REMARK    1  A    between atoms: C_2  and  C_4
REMARK    2  A    between atoms: C_7  and  N_8
REMARK    3  A    between atoms: N_8  and  C_9
REMARK    4  A    between atoms: C_9  and  C_10
REMARK                            x       y       z     vdW  Elec       q    Type
REMARK                         _______ _______ _______ _____ _____    ______ ____
ROOT
ATOM      1  C   UNL     1      43.613   4.384  11.521  0.00  0.00    +0.000 C 
ENDROOT
BRANCH   1   2
ATOM      2  C   UNL     1      44.870   4.534  12.347  0.00  0.00    +0.000 A 
ATOM      3  C   UNL     1      45.574   3.422  12.838  0.00  0.00    +0.000 A 
ATOM      4  C   UNL     1      46.795   3.645  13.460  0.00  0.00    +0.000 A 
ATOM      5  N   UNL     1      47.373   4.850  13.572  0.00  0.00    +0.000 NA
ATOM      6  C   UNL     1      46.728   5.922  13.057  0.00  0.00    +0.000 A 
ATOM      7  N   UNL     1      47.393   7.120  12.959  0.00  0.00    +0.000 N 
ATOM      8  C   UNL     1      46.700   8.404  13.031  0.00  0.00    +0.000 C 
ATOM      9  C   UNL     1      47.457   9.437  12.162  0.00  0.00    +0.000 C 
ATOM     10  N   UNL     1      48.905   9.536  12.457  0.00  0.00    +0.000 NA
ATOM     11  C   UNL     1      49.510   8.183  12.424  0.00  0.00    +0.000 C 
ATOM     12  C   UNL     1      48.798   7.170  13.347  0.00  0.00    +0.000 C 
ATOM     13  C   UNL     1      45.468   5.776  12.493  0.00  0.00    +0.000 A 
ATOM     14  H   UNL     1      49.008   9.897  13.404  0.00  0.00    +0.000 HD
ENDBRANCH   1   2
BRANCH   1  15
ATOM     15  N   UNL     1      43.801   4.739  10.112  0.00  0.00    +0.000 N 
ATOM     16  H   UNL     1      42.959   5.043   9.633  0.00  0.00    +0.000 HD
BRANCH  15  20
ATOM     17  C   UNL     1      46.451   2.471   7.724  0.00  0.00    +0.000 A 
ATOM     18  C   UNL     1      45.586   1.820   8.606  0.00  0.00    +0.000 A 
ATOM     19  C   UNL     1      44.698   2.559   9.392  0.00  0.00    +0.000 A 
ATOM     20  C   UNL     1      44.626   3.955   9.301  0.00  0.00    +0.000 A 
ATOM     21  C   UNL     1      45.519   4.595   8.421  0.00  0.00    +0.000 A 
ATOM     22  C   UNL     1      46.429   3.865   7.645  0.00  0.00    +0.000 A 
BRANCH  17  24
ATOM     23  N   UNL     1      48.519   2.401   6.461  0.00  0.00    +0.000 N 
ATOM     24  C   UNL     1      47.423   1.711   6.900  0.00  0.00    +0.000 C 
ATOM     25  O   UNL     1      47.272   0.524   6.650  0.00  0.00    +0.000 OA
ATOM     26  H   UNL     1      49.229   1.864   5.980  0.00  0.00    +0.000 HD
ATOM     27  H   UNL     1      48.790   3.287   6.861  0.00  0.00    +0.000 HD
ENDBRANCH  17  24
ENDBRANCH  15  20
ENDBRANCH   1  15
TORSDOF 4
ENDMDL
MODEL 2
REMARK VINA RESULT:    -8.610      1.755      3.052
REMARK INTER + INTRA:         -11.403
REMARK INTER:                 -10.780
REMARK INTRA:                  -0.623
REMARK UNBOUND:                -0.779
REMARK  Name = 
REMARK  4 active torsions:
REMARK  status: ('A' for Active; 'I' for Inactive)
REMARK    1  A    between atoms: C_2  and  C_4
REMARK    2  A    between atoms: C_7  and  N_8
REMARK    3  A    between atoms: N_8  and  C_9
REMARK    4  A    between atoms: C_9  and  C_10
REMARK                            x       y       z     vdW  Elec       q    Type
REMARK                         _______ _______ _______ _____ _____    ______ ____
ROOT
ATOM      1  C   UNL     1      44.046   4.886  11.546  0.00  0.00    +0.000 C 
ENDROOT
BRANCH   1   2
ATOM      2  C   UNL     1      45.403   5.369  12.005  0.00  0.00    +0.000 A 
ATOM      3  C   UNL     1      46.059   6.442  11.382  0.00  0.00    +0.000 A 
ATOM      4  C   UNL     1      47.230   6.914  11.959  0.00  0.00    +0.000 A 
ATOM      5  N   UNL     1      47.746   6.447  13.105  0.00  0.00    +0.000 NA
ATOM      6  C   UNL     1      47.095   5.446  13.741  0.00  0.00    +0.000 A 
ATOM      7  N   UNL     1      47.473   5.105  15.017  0.00  0.00    +0.000 N 
ATOM      8  C   UNL     1      47.324   3.748  15.538  0.00  0.00    +0.000 C 
ATOM      9  C   UNL     1      47.070   3.818  17.063  0.00  0.00    +0.000 C 
ATOM     10  N   UNL     1      48.062   4.625  17.810  0.00  0.00    +0.000 NA
ATOM     11  C   UNL     1      48.194   5.958  17.174  0.00  0.00    +0.000 C 
ATOM     12  C   UNL     1      48.519   5.888  15.665  0.00  0.00    +0.000 C 
ATOM     13  C   UNL     1      45.961   4.878  13.175  0.00  0.00    +0.000 A 
ATOM     14  H   UNL     1      48.965   4.158  17.736  0.00  0.00    +0.000 HD
ENDBRANCH   1   2
BRANCH   1  15
ATOM     15  N   UNL     1      43.897   4.878  10.089  0.00  0.00    +0.000 N 
ATOM     16  H   UNL     1      42.941   4.967   9.758  0.00  0.00    +0.000 HD
BRANCH  15  20
ATOM     17  C   UNL     1      46.343   2.295   7.807  0.00  0.00    +0.000 A 
ATOM     18  C   UNL     1      45.472   1.760   8.757  0.00  0.00    +0.000 A 
ATOM     19  C   UNL     1      44.650   2.605   9.509  0.00  0.00    +0.000 A 
ATOM     20  C   UNL     1      44.653   3.992   9.317  0.00  0.00    +0.000 A 
ATOM     21  C   UNL     1      45.552   4.514   8.369  0.00  0.00    +0.000 A 
ATOM     22  C   UNL     1      46.396   3.679   7.625  0.00  0.00    +0.000 A 
BRANCH  17  24
ATOM     23  N   UNL     1      48.352   2.020   6.477  0.00  0.00    +0.000 N 
ATOM     24  C   UNL     1      47.246   1.422   7.016  0.00  0.00    +0.000 C 
ATOM     25  O   UNL     1      47.034   0.227   6.877  0.00  0.00    +0.000 OA
ATOM     26  H   UNL     1      49.018   1.412   6.019  0.00  0.00    +0.000 HD
ATOM     27  H   UNL     1      48.677   2.925   6.787  0.00  0.00    +0.000 HD
ENDBRANCH  17  24
ENDBRANCH  15  20
ENDBRANCH   1  15
TORSDOF 4
ENDMDL
MODEL 3
REMARK VINA RESULT:    -7.774      1.562      2.555
REMARK INTER + INTRA:         -10.371
REMARK INTER:                  -9.844
REMARK INTRA:                  -0.527
REMARK UNBOUND:                -0.779
REMARK  Name = 
REMARK  4 active torsions:
REMARK  status: ('A' for Active; 'I' for Inactive)
REMARK    1  A    between atoms: C_2  and  C_4
REMARK    2  A    between atoms: C_7  and  N_8
REMARK    3  A    between atoms: N_8  and  C_9
REMARK    4  A    between atoms: C_9  and  C_10
REMARK                            x       y       z     vdW  Elec       q    Type
REMARK                         _______ _______ _______ _____ _____    ______ ____
ROOT
ATOM      1  C   UNL     1      44.395   5.057  11.600  0.00  0.00    +0.000 C 
ENDROOT
BRANCH   1   2
ATOM      2  C   UNL     1      45.061   6.398  11.806  0.00  0.00    +0.000 A 
ATOM      3  C   UNL     1      44.469   7.596  11.376  0.00  0.00    +0.000 A 
ATOM      4  C   UNL     1      45.077   8.790  11.736  0.00  0.00    +0.000 A 
ATOM      5  N   UNL     1      46.164   8.876  12.516  0.00  0.00    +0.000 NA
ATOM      6  C   UNL     1      46.714   7.730  12.979  0.00  0.00    +0.000 A 
ATOM      7  N   UNL     1      47.682   7.796  13.952  0.00  0.00    +0.000 N 
ATOM      8  C   UNL     1      48.736   6.793  14.073  0.00  0.00    +0.000 C 
ATOM      9  C   UNL     1      49.135   6.654  15.561  0.00  0.00    +0.000 C 
ATOM     10  N   UNL     1      49.470   7.937  16.223  0.00  0.00    +0.000 NA
ATOM     11  C   UNL     1      48.377   8.911  15.995  0.00  0.00    +0.000 C 
ATOM     12  C   UNL     1      48.027   9.102  14.502  0.00  0.00    +0.000 C 
ATOM     13  C   UNL     1      46.199   6.501  12.591  0.00  0.00    +0.000 A 
ATOM     14  H   UNL     1      50.310   8.308  15.782  0.00  0.00    +0.000 HD
ENDBRANCH   1   2
BRANCH   1  15
ATOM     15  N   UNL     1      43.980   4.824  10.215  0.00  0.00    +0.000 N 
ATOM     16  H   UNL     1      42.982   4.676  10.088  0.00  0.00    +0.000 HD
BRANCH  15  20
ATOM     17  C   UNL     1      46.477   2.467   7.751  0.00  0.00    +0.000 A 
ATOM     18  C   UNL     1      45.673   1.850   8.710  0.00  0.00    +0.000 A 
ATOM     19  C   UNL     1      44.834   2.619   9.523  0.00  0.00    +0.000 A 
ATOM     20  C   UNL     1      44.753   4.010   9.383  0.00  0.00    +0.000 A 
ATOM     21  C   UNL     1      45.585   4.616   8.424  0.00  0.00    +0.000 A 
ATOM     22  C   UNL     1      46.445   3.857   7.620  0.00  0.00    +0.000 A 
BRANCH  17  24
ATOM     23  N   UNL     1      48.528   2.314   6.466  0.00  0.00    +0.000 N 
ATOM     24  C   UNL     1      47.396   1.676   6.896  0.00  0.00    +0.000 C 
ATOM     25  O   UNL     1      47.174   0.508   6.614  0.00  0.00    +0.000 OA
ATOM     26  H   UNL     1      49.201   1.751   5.964  0.00  0.00    +0.000 HD
ATOM     27  H   UNL     1      48.853   3.171   6.889  0.00  0.00    +0.000 HD
ENDBRANCH  17  24
ENDBRANCH  15  20
ENDBRANCH   1  15
TORSDOF 4
ENDMDL
MODEL 4
REMARK VINA RESULT:    -6.722      4.401      7.806
REMARK INTER + INTRA:          -9.073
REMARK INTER:                  -8.611
REMARK INTRA:                  -0.462
REMARK UNBOUND:                -0.779
REMARK  Name = 
REMARK  4 active torsions:
REMARK  status: ('A' for Active; 'I' for Inactive)
REMARK    1  A    between atoms: C_2  and  C_4
REMARK    2  A    between atoms: C_7  and  N_8
REMARK    3  A    between atoms: N_8  and  C_9
REMARK    4  A    between atoms: C_9  and  C_10
REMARK                            x       y       z     vdW  Elec       q    Type
REMARK                         _______ _______ _______ _____ _____    ______ ____
ROOT
ATOM      1  C   UNL     1      46.684   4.383  15.359  0.00  0.00    +0.000 C 
ENDROOT
BRANCH   1   2
ATOM      2  C   UNL     1      46.605   5.196  14.087  0.00  0.00    +0.000 A 
ATOM      3  C   UNL     1      47.423   6.316  13.868  0.00  0.00    +0.000 A 
ATOM      4  C   UNL     1      47.390   6.914  12.616  0.00  0.00    +0.000 A 
ATOM      5  N   UNL     1      46.668   6.457  11.583  0.00  0.00    +0.000 NA
ATOM      6  C   UNL     1      45.915   5.349  11.767  0.00  0.00    +0.000 A 
ATOM      7  N   UNL     1      45.348   4.735  10.675  0.00  0.00    +0.000 N 
ATOM      8  C   UNL     1      44.094   3.990  10.764  0.00  0.00    +0.000 C 
ATOM      9  C   UNL     1      44.114   2.843   9.725  0.00  0.00    +0.000 C 
ATOM     10  N   UNL     1      44.441   3.276   8.347  0.00  0.00    +0.000 NA
ATOM     11  C   UNL     1      45.689   4.076   8.363  0.00  0.00    +0.000 C 
ATOM     12  C   UNL     1      45.643   5.264   9.349  0.00  0.00    +0.000 C 
ATOM     13  C   UNL     1      45.845   4.750  13.017  0.00  0.00    +0.000 A 
ATOM     14  H   UNL     1      43.690   3.883   8.022  0.00  0.00    +0.000 HD
ENDBRANCH   1   2
BRANCH   1  15
ATOM     15  N   UNL     1      47.653   4.911  16.322  0.00  0.00    +0.000 N 
ATOM     16  H   UNL     1      47.927   5.877  16.166  0.00  0.00    +0.000 HD
BRANCH  15  20
ATOM     17  C   UNL     1      50.883   2.417  17.424  0.00  0.00    +0.000 A 
ATOM     18  C   UNL     1      50.985   3.798  17.601  0.00  0.00    +0.000 A 
ATOM     19  C   UNL     1      49.918   4.631  17.250  0.00  0.00    +0.000 A 
ATOM     20  C   UNL     1      48.719   4.113  16.746  0.00  0.00    +0.000 A 
ATOM     21  C   UNL     1      48.642   2.721  16.557  0.00  0.00    +0.000 A 
ATOM     22  C   UNL     1      49.713   1.879  16.884  0.00  0.00    +0.000 A 
BRANCH  17  24
ATOM     23  N   UNL     1      51.682   0.236  18.121  0.00  0.00    +0.000 N 
ATOM     24  C   UNL     1      52.011   1.515  17.762  0.00  0.00    +0.000 C 
ATOM     25  O   UNL     1      53.175   1.879  17.694  0.00  0.00    +0.000 OA
ATOM     26  H   UNL     1      52.449  -0.407  18.259  0.00  0.00    +0.000 HD
ATOM     27  H   UNL     1      50.768  -0.153  17.937  0.00  0.00    +0.000 HD
ENDBRANCH  17  24
ENDBRANCH  15  20
ENDBRANCH   1  15
TORSDOF 4
ENDMDL
MODEL 5
REMARK VINA RESULT:    -6.301      3.235      5.227
REMARK INTER + INTRA:          -8.554
REMARK INTER:                  -8.033
REMARK INTRA:                  -0.521
REMARK UNBOUND:                -0.779
REMARK  Name = 
REMARK  4 active torsions:
REMARK  status: ('A' for Active; 'I' for Inactive)
REMARK    1  A    between atoms: C_2  and  C_4
REMARK    2  A    between atoms: C_7  and  N_8
REMARK    3  A    between atoms: N_8  and  C_9
REMARK    4  A    between atoms: C_9  and  C_10
REMARK                            x       y       z     vdW  Elec       q    Type
REMARK                         _______ _______ _______ _____ _____    ______ ____
ROOT
ATOM      1  C   UNL     1      47.131   7.270  13.243  0.00  0.00    +0.000 C 
ENDROOT
BRANCH   1   2
ATOM      2  C   UNL     1      48.206   7.152  14.298  0.00  0.00    +0.000 A 
ATOM      3  C   UNL     1      49.081   8.211  14.591  0.00  0.00    +0.000 A 
ATOM      4  C   UNL     1      49.938   8.069  15.673  0.00  0.00    +0.000 A 
ATOM      5  N   UNL     1      49.947   7.007  16.492  0.00  0.00    +0.000 NA
ATOM      6  C   UNL     1      49.074   6.003  16.250  0.00  0.00    +0.000 A 
ATOM      7  N   UNL     1      48.908   5.017  17.193  0.00  0.00    +0.000 N 
ATOM      8  C   UNL     1      48.534   3.651  16.835  0.00  0.00    +0.000 C 
ATOM      9  C   UNL     1      47.698   3.039  17.985  0.00  0.00    +0.000 C 
ATOM     10  N   UNL     1      48.332   3.141  19.320  0.00  0.00    +0.000 NA
ATOM     11  C   UNL     1      48.736   4.545  19.569  0.00  0.00    +0.000 C 
ATOM     12  C   UNL     1      49.630   5.133  18.455  0.00  0.00    +0.000 C 
ATOM     13  C   UNL     1      48.244   6.049  15.138  0.00  0.00    +0.000 A 
ATOM     14  H   UNL     1      49.179   2.574  19.309  0.00  0.00    +0.000 HD
ENDBRANCH   1   2
BRANCH   1  15
ATOM     15  N   UNL     1      46.002   6.364  13.463  0.00  0.00    +0.000 N 
ATOM     16  H   UNL     1      45.982   5.922  14.378  0.00  0.00    +0.000 HD
BRANCH  15  20
ATOM     17  C   UNL     1      44.930   3.795  10.282  0.00  0.00    +0.000 A 
ATOM     18  C   UNL     1      44.934   3.309  11.590  0.00  0.00    +0.000 A 
ATOM     19  C   UNL     1      45.276   4.153  12.651  0.00  0.00    +0.000 A 
ATOM     20  C   UNL     1      45.592   5.501  12.442  0.00  0.00    +0.000 A 
ATOM     21  C   UNL     1      45.601   5.968  11.115  0.00  0.00    +0.000 A 
ATOM     22  C   UNL     1      45.282   5.126  10.042  0.00  0.00    +0.000 A 
BRANCH  17  24
ATOM     23  N   UNL     1      44.365   3.531   7.938  0.00  0.00    +0.000 N 
ATOM     24  C   UNL     1      44.598   2.912   9.136  0.00  0.00    +0.000 C 
ATOM     25  O   UNL     1      44.565   1.696   9.244  0.00  0.00    +0.000 OA
ATOM     26  H   UNL     1      44.233   2.930   7.136  0.00  0.00    +0.000 HD
ATOM     27  H   UNL     1      44.635   4.489   7.769  0.00  0.00    +0.000 HD
ENDBRANCH  17  24
ENDBRANCH  15  20
ENDBRANCH   1  15
TORSDOF 4
ENDMDL
MODEL 6
REMARK VINA RESULT:    -6.141      3.598      5.953
REMARK INTER + INTRA:          -8.356
REMARK INTER:                  -7.798
REMARK INTRA:                  -0.558
REMARK UNBOUND:                -0.779
REMARK  Name = 
REMARK  4 active torsions:
REMARK  status: ('A' for Active; 'I' for Inactive)
REMARK    1  A    between atoms: C_2  and  C_4
REMARK    2  A    between atoms: C_7  and  N_8
REMARK    3  A    between atoms: N_8  and  C_9
REMARK    4  A    between atoms: C_9  and  C_10
REMARK                            x       y       z     vdW  Elec       q    Type
REMARK                         _______ _______ _______ _____ _____    ______ ____
ROOT
ATOM      1  C   UNL     1      48.174   7.620  13.382  0.00  0.00    +0.000 C 
ENDROOT
BRANCH   1   2
ATOM      2  C   UNL     1      49.050   7.443  14.601  0.00  0.00    +0.000 A 
ATOM      3  C   UNL     1      49.856   8.481  15.094  0.00  0.00    +0.000 A 
ATOM      4  C   UNL     1      50.514   8.280  16.299  0.00  0.00    +0.000 A 
ATOM      5  N   UNL     1      50.386   7.177  17.052  0.00  0.00    +0.000 NA
ATOM      6  C   UNL     1      49.573   6.191  16.611  0.00  0.00    +0.000 A 
ATOM      7  N   UNL     1      49.251   5.159  17.459  0.00  0.00    +0.000 N 
ATOM      8  C   UNL     1      48.949   3.815  16.972  0.00  0.00    +0.000 C 
ATOM      9  C   UNL     1      47.930   3.148  17.927  0.00  0.00    +0.000 C 
ATOM     10  N   UNL     1      48.323   3.178  19.355  0.00  0.00    +0.000 NA
ATOM     11  C   UNL     1      48.672   4.566  19.742  0.00  0.00    +0.000 C 
ATOM     12  C   UNL     1      49.742   5.207  18.831  0.00  0.00    +0.000 C 
ATOM     13  C   UNL     1      48.948   6.298  15.376  0.00  0.00    +0.000 A 
ATOM     14  H   UNL     1      49.162   2.609  19.461  0.00  0.00    +0.000 HD
ENDBRANCH   1   2
BRANCH   1  15
ATOM     15  N   UNL     1      46.776   7.250  13.617  0.00  0.00    +0.000 N 
ATOM     16  H   UNL     1      46.493   7.252  14.593  0.00  0.00    +0.000 HD
BRANCH  15  20
ATOM     17  C   UNL     1      44.888   4.081  11.554  0.00  0.00    +0.000 A 
ATOM     18  C   UNL     1      45.278   5.224  10.855  0.00  0.00    +0.000 A 
ATOM     19  C   UNL     1      45.914   6.274  11.525  0.00  0.00    +0.000 A 
ATOM     20  C   UNL     1      46.202   6.201  12.894  0.00  0.00    +0.000 A 
ATOM     21  C   UNL     1      45.784   5.049  13.585  0.00  0.00    +0.000 A 
ATOM     22  C   UNL     1      45.127   4.001  12.928  0.00  0.00    +0.000 A 
BRANCH  17  24
ATOM     23  N   UNL     1      44.850   2.376   9.830  0.00  0.00    +0.000 N 
ATOM     24  C   UNL     1      44.187   2.965  10.872  0.00  0.00    +0.000 C 
ATOM     25  O   UNL     1      43.089   2.570  11.236  0.00  0.00    +0.000 OA
ATOM     26  H   UNL     1      44.418   1.557   9.424  0.00  0.00    +0.000 HD
ATOM     27  H   UNL     1      45.840   2.509   9.682  0.00  0.00    +0.000 HD
ENDBRANCH  17  24
ENDBRANCH  15  20
ENDBRANCH   1  15
TORSDOF 4
ENDMDL
MODEL 7
REMARK VINA RESULT:    -6.014      4.115      6.574
REMARK INTER + INTRA:          -8.199
REMARK INTER:                  -7.405
REMARK INTRA:                  -0.794
REMARK UNBOUND:                -0.779
REMARK  Name = 
REMARK  4 active torsions:
REMARK  status: ('A' for Active; 'I' for Inactive)
REMARK    1  A    between atoms: C_2  and  C_4
REMARK    2  A    between atoms: C_7  and  N_8
REMARK    3  A    between atoms: N_8  and  C_9
REMARK    4  A    between atoms: C_9  and  C_10
REMARK                            x       y       z     vdW  Elec       q    Type
REMARK                         _______ _______ _______ _____ _____    ______ ____
ROOT
ATOM      1  C   UNL     1      49.219   7.931  13.069  0.00  0.00    +0.000 C 
ENDROOT
BRANCH   1   2
ATOM      2  C   UNL     1      49.091   8.102  14.565  0.00  0.00    +0.000 A 
ATOM      3  C   UNL     1      48.388   9.177  15.133  0.00  0.00    +0.000 A 
ATOM      4  C   UNL     1      48.194   9.176  16.507  0.00  0.00    +0.000 A 
ATOM      5  N   UNL     1      48.586   8.186  17.322  0.00  0.00    +0.000 NA
ATOM      6  C   UNL     1      49.220   7.121  16.779  0.00  0.00    +0.000 A 
ATOM      7  N   UNL     1      49.430   6.002  17.549  0.00  0.00    +0.000 N 
ATOM      8  C   UNL     1      50.567   5.111  17.335  0.00  0.00    +0.000 C 
ATOM      9  C   UNL     1      50.160   3.670  17.723  0.00  0.00    +0.000 C 
ATOM     10  N   UNL     1      49.569   3.548  19.076  0.00  0.00    +0.000 NA
ATOM     11  C   UNL     1      48.468   4.530  19.224  0.00  0.00    +0.000 C 
ATOM     12  C   UNL     1      48.894   5.981  18.905  0.00  0.00    +0.000 C 
ATOM     13  C   UNL     1      49.513   7.098  15.423  0.00  0.00    +0.000 A 
ATOM     14  H   UNL     1      50.289   3.787  19.756  0.00  0.00    +0.000 HD
ENDBRANCH   1   2
BRANCH   1  15
ATOM     15  N   UNL     1      48.709   6.646  12.588  0.00  0.00    +0.000 N 
ATOM     16  H   UNL     1      49.125   6.319  11.720  0.00  0.00    +0.000 HD
BRANCH  15  20
ATOM     17  C   UNL     1      44.566   5.808  12.621  0.00  0.00    +0.000 A 
ATOM     18  C   UNL     1      45.448   4.953  13.284  0.00  0.00    +0.000 A 
ATOM     19  C   UNL     1      46.820   5.227  13.289  0.00  0.00    +0.000 A 
ATOM     20  C   UNL     1      47.341   6.367  12.664  0.00  0.00    +0.000 A 
ATOM     21  C   UNL     1      46.439   7.205  11.985  0.00  0.00    +0.000 A 
ATOM     22  C   UNL     1      45.066   6.929  11.954  0.00  0.00    +0.000 A 
BRANCH  17  24
ATOM     23  N   UNL     1      42.381   6.224  11.655  0.00  0.00    +0.000 N 
ATOM     24  C   UNL     1      43.110   5.524  12.577  0.00  0.00    +0.000 C 
ATOM     25  O   UNL     1      42.590   4.689  13.302  0.00  0.00    +0.000 OA
ATOM     26  H   UNL     1      41.408   5.966  11.556  0.00  0.00    +0.000 HD
ATOM     27  H   UNL     1      42.817   6.716  10.888  0.00  0.00    +0.000 HD
ENDBRANCH  17  24
ENDBRANCH  15  20
ENDBRANCH   1  15
TORSDOF 4
ENDMDL
MODEL 8
REMARK VINA RESULT:    -5.865      4.763      8.573
REMARK INTER + INTRA:          -8.016
REMARK INTER:                  -7.588
REMARK INTRA:                  -0.429
REMARK UNBOUND:                -0.779
REMARK  Name = 
REMARK  4 active torsions:
REMARK  status: ('A' for Active; 'I' for Inactive)
REMARK    1  A    between atoms: C_2  and  C_4
REMARK    2  A    between atoms: C_7  and  N_8
REMARK    3  A    between atoms: N_8  and  C_9
REMARK    4  A    between atoms: C_9  and  C_10
REMARK                            x       y       z     vdW  Elec       q    Type
REMARK                         _______ _______ _______ _____ _____    ______ ____
ROOT
ATOM      1  C   UNL     1      47.086   3.727  14.964  0.00  0.00    +0.000 C 
ENDROOT
BRANCH   1   2
ATOM      2  C   UNL     1      46.665   4.612  13.813  0.00  0.00    +0.000 A 
ATOM      3  C   UNL     1      47.166   5.915  13.655  0.00  0.00    +0.000 A 
ATOM      4  C   UNL     1      46.842   6.601  12.493  0.00  0.00    +0.000 A 
ATOM      5  N   UNL     1      46.127   6.081  11.485  0.00  0.00    +0.000 NA
ATOM      6  C   UNL     1      45.681   4.809  11.605  0.00  0.00    +0.000 A 
ATOM      7  N   UNL     1      45.145   4.181  10.506  0.00  0.00    +0.000 N 
ATOM      8  C   UNL     1      44.120   3.147  10.623  0.00  0.00    +0.000 C 
ATOM      9  C   UNL     1      44.281   2.143   9.456  0.00  0.00    +0.000 C 
ATOM     10  N   UNL     1      44.327   2.771   8.115  0.00  0.00    +0.000 NA
ATOM     11  C   UNL     1      45.346   3.848   8.109  0.00  0.00    +0.000 C 
ATOM     12  C   UNL     1      45.144   4.890   9.232  0.00  0.00    +0.000 C 
ATOM     13  C   UNL     1      45.906   4.096  12.774  0.00  0.00    +0.000 A 
ATOM     14  H   UNL     1      43.422   3.203   7.939  0.00  0.00    +0.000 HD
ENDBRANCH   1   2
BRANCH   1  15
ATOM     15  N   UNL     1      46.860   4.339  16.275  0.00  0.00    +0.000 N 
ATOM     16  H   UNL     1      46.234   5.139  16.271  0.00  0.00    +0.000 HD
BRANCH  15  20
ATOM     17  C   UNL     1      50.214   4.785  18.809  0.00  0.00    +0.000 A 
ATOM     18  C   UNL     1      49.275   5.814  18.719  0.00  0.00    +0.000 A 
ATOM     19  C   UNL     1      48.156   5.672  17.893  0.00  0.00    +0.000 A 
ATOM     20  C   UNL     1      47.928   4.499  17.162  0.00  0.00    +0.000 A 
ATOM     21  C   UNL     1      48.895   3.481  17.251  0.00  0.00    +0.000 A 
ATOM     22  C   UNL     1      50.032   3.621  18.058  0.00  0.00    +0.000 A 
BRANCH  17  24
ATOM     23  N   UNL     1      51.300   4.532  20.963  0.00  0.00    +0.000 N 
ATOM     24  C   UNL     1      51.424   4.922  19.657  0.00  0.00    +0.000 C 
ATOM     25  O   UNL     1      52.485   5.331  19.210  0.00  0.00    +0.000 OA
ATOM     26  H   UNL     1      52.145   4.535  21.518  0.00  0.00    +0.000 HD
ATOM     27  H   UNL     1      50.530   3.963  21.281  0.00  0.00    +0.000 HD
ENDBRANCH  17  24
ENDBRANCH  15  20
ENDBRANCH   1  15
TORSDOF 4
ENDMDL
MODEL 9
REMARK VINA RESULT:    -5.804      4.270      5.452
REMARK INTER + INTRA:          -7.941
REMARK INTER:                  -7.494
REMARK INTRA:                  -0.447
REMARK UNBOUND:                -0.779
REMARK  Name = 
REMARK  4 active torsions:
REMARK  status: ('A' for Active; 'I' for Inactive)
REMARK    1  A    between atoms: C_2  and  C_4
REMARK    2  A    between atoms: C_7  and  N_8
REMARK    3  A    between atoms: N_8  and  C_9
REMARK    4  A    between atoms: C_9  and  C_10
REMARK                            x       y       z     vdW  Elec       q    Type
REMARK                         _______ _______ _______ _____ _____    ______ ____
ROOT
ATOM      1  C   UNL     1      47.754   5.657  14.370  0.00  0.00    +0.000 C 
ENDROOT
BRANCH   1   2
ATOM      2  C   UNL     1      47.830   5.116  15.779  0.00  0.00    +0.000 A 
ATOM      3  C   UNL     1      47.250   3.888  16.137  0.00  0.00    +0.000 A 
ATOM      4  C   UNL     1      47.494   3.398  17.412  0.00  0.00    +0.000 A 
ATOM      5  N   UNL     1      48.293   3.995  18.308  0.00  0.00    +0.000 NA
ATOM      6  C   UNL     1      48.897   5.154  17.957  0.00  0.00    +0.000 A 
ATOM      7  N   UNL     1      49.886   5.665  18.763  0.00  0.00    +0.000 N 
ATOM      8  C   UNL     1      50.150   7.098  18.859  0.00  0.00    +0.000 C 
ATOM      9  C   UNL     1      51.656   7.318  19.137  0.00  0.00    +0.000 C 
ATOM     10  N   UNL     1      52.181   6.547  20.289  0.00  0.00    +0.000 NA
ATOM     11  C   UNL     1      51.812   5.119  20.138  0.00  0.00    +0.000 C 
ATOM     12  C   UNL     1      50.298   4.896  19.931  0.00  0.00    +0.000 C 
ATOM     13  C   UNL     1      48.633   5.735  16.725  0.00  0.00    +0.000 A 
ATOM     14  H   UNL     1      51.727   6.895  21.132  0.00  0.00    +0.000 HD
ENDBRANCH   1   2
BRANCH   1  15
ATOM     15  N   UNL     1      46.385   5.937  13.932  0.00  0.00    +0.000 N 
ATOM     16  H   UNL     1      45.711   6.052  14.684  0.00  0.00    +0.000 HD
BRANCH  15  20
ATOM     17  C   UNL     1      44.940   3.909  10.516  0.00  0.00    +0.000 A 
ATOM     18  C   UNL     1      44.926   3.269  11.757  0.00  0.00    +0.000 A 
ATOM     19  C   UNL     1      45.391   3.935  12.895  0.00  0.00    +0.000 A 
ATOM     20  C   UNL     1      45.851   5.256  12.834  0.00  0.00    +0.000 A 
ATOM     21  C   UNL     1      45.876   5.877  11.572  0.00  0.00    +0.000 A 
ATOM     22  C   UNL     1      45.434   5.212  10.422  0.00  0.00    +0.000 A 
BRANCH  17  24
ATOM     23  N   UNL     1      44.135   4.011   8.231  0.00  0.00    +0.000 N 
ATOM     24  C   UNL     1      44.479   3.214   9.289  0.00  0.00    +0.000 C 
ATOM     25  O   UNL     1      44.436   1.996   9.211  0.00  0.00    +0.000 OA
ATOM     26  H   UNL     1      43.912   3.541   7.364  0.00  0.00    +0.000 HD
ATOM     27  H   UNL     1      44.403   4.983   8.184  0.00  0.00    +0.000 HD
ENDBRANCH  17  24
ENDBRANCH  15  20
ENDBRANCH   1  15
TORSDOF 4
ENDMDL
