MODEL 1
REMARK VINA RESULT:    -7.945      0.000      0.000
REMARK INTER + INTRA:         -11.076
REMARK INTER:                 -10.267
REMARK INTRA:                  -0.809
REMARK UNBOUND:                -0.809
REMARK  Name = 
REMARK  6 active torsions:
REMARK  status: ('A' for Active; 'I' for Inactive)
REMARK    1  A    between atoms: C_1  and  C_2
REMARK    2  A    between atoms: C_2  and  C_3
REMARK    3  A    between atoms: C_2  and  C_14
REMARK    4  A    between atoms: C_3  and  N_4
REMARK    5  A    between atoms: C_8  and  C_9
REMARK    6  A    between atoms: C_18  and  C_19
REMARK                            x       y       z     vdW  Elec       q    Type
REMARK                         _______ _______ _______ _____ _____    ______ ____
ROOT
ATOM      1  C   UNL     1      43.560   4.730  10.591  0.00  0.00    +0.000 C 
ENDROOT
BRANCH   1   2
ATOM      2  N   UNL     1      43.914   3.322  10.431  0.00  0.00    +0.000 N 
ATOM      3  C   UNL     1      44.814   3.097   9.377  0.00  0.00    +0.000 A 
ATOM      4  C   UNL     1      45.254   1.797   9.085  0.00  0.00    +0.000 A 
ATOM      5  N   UNL     1      46.130   1.486   8.090  0.00  0.00    +0.000 NA
ATOM      6  C   UNL     1      46.573   2.562   7.383  0.00  0.00    +0.000 A 
ATOM      7  C   UNL     1      46.163   3.853   7.662  0.00  0.00    +0.000 A 
ATOM      8  N   UNL     1      45.289   4.140   8.660  0.00  0.00    +0.000 NA
ATOM      9  H   UNL     1      43.087   2.747  10.298  0.00  0.00    +0.000 HD
BRANCH   6  10
ATOM     10  C   UNL     1      47.535   2.331   6.272  0.00  0.00    +0.000 C 
ATOM     11  N   UNL     1      47.518   3.250   5.260  0.00  0.00    +0.000 N 
ATOM     12  O   UNL     1      48.296   1.371   6.257  0.00  0.00    +0.000 OA
ATOM     13  H   UNL     1      46.871   4.029   5.288  0.00  0.00    +0.000 HD
ATOM     14  H   UNL     1      48.145   3.132   4.478  0.00  0.00    +0.000 HD
ENDBRANCH   6  10
ENDBRANCH   1   2
BRANCH   1  16
ATOM     15  C   UNL     1      42.658   5.436  12.896  0.00  0.00    +0.000 C 
ATOM     16  C   UNL     1      43.824   5.100  12.019  0.00  0.00    +0.000 C 
BRANCH  16  17
ATOM     17  C   UNL     1      45.193   5.358  12.484  0.00  0.00    +0.000 A 
ATOM     18  C   UNL     1      46.053   6.227  11.802  0.00  0.00    +0.000 A 
ATOM     19  C   UNL     1      47.351   6.456  12.270  0.00  0.00    +0.000 A 
ATOM     20  C   UNL     1      47.797   5.832  13.434  0.00  0.00    +0.000 A 
ATOM     21  C   UNL     1      46.951   4.967  14.138  0.00  0.00    +0.000 A 
ATOM     22  C   UNL     1      45.658   4.730  13.645  0.00  0.00    +0.000 A 
BRANCH  21  23
ATOM     23  C   UNL     1      47.377   4.301  15.421  0.00  0.00    +0.000 C 
ATOM     24  F   UNL     1      46.399   4.255  16.367  0.00  0.00    +0.000 F 
ATOM     25  F   UNL     1      47.766   3.010  15.223  0.00  0.00    +0.000 F 
ATOM     26  F   UNL     1      48.437   4.923  16.005  0.00  0.00    +0.000 F 
ENDBRANCH  21  23
ENDBRANCH  16  17
ENDBRANCH   1  16
TORSDOF 5
ENDMDL
MODEL 2
REMARK VINA RESULT:    -7.517      2.342      2.882
REMARK INTER + INTRA:         -10.524
REMARK INTER:                  -9.781
REMARK INTRA:                  -0.742
REMARK UNBOUND:                -0.809
REMARK  Name = 
REMARK  6 active torsions:
REMARK  status: ('A' for Active; 'I' for Inactive)
REMARK    1  A    between atoms: C_1  and  C_2
REMARK    2  A    between atoms: C_2  and  C_3
REMARK    3  A    between atoms: C_2  and  C_14
REMARK    4  A    between atoms: C_3  and  N_4
REMARK    5  A    between atoms: C_8  and  C_9
REMARK    6  A    between atoms: C_18  and  C_19
REMARK                            x       y       z     vdW  Elec       q    Type
REMARK                         _______ _______ _______ _____ _____    ______ ____
ROOT
ATOM      1  C   UNL     1      43.605   4.790  10.608  0.00  0.00    +0.000 C 
ENDROOT
BRANCH   1   2
ATOM      2  N   UNL     1      43.916   3.376  10.423  0.00  0.00    +0.000 N 
ATOM      3  C   UNL     1      44.823   3.143   9.376  0.00  0.00    +0.000 A 
ATOM      4  C   UNL     1      45.224   1.836   9.062  0.00  0.00    +0.000 A 
ATOM      5  N   UNL     1      46.103   1.518   8.072  0.00  0.00    +0.000 NA
ATOM      6  C   UNL     1      46.591   2.593   7.395  0.00  0.00    +0.000 A 
ATOM      7  C   UNL     1      46.219   3.890   7.695  0.00  0.00    +0.000 A 
ATOM      8  N   UNL     1      45.342   4.185   8.688  0.00  0.00    +0.000 NA
ATOM      9  H   UNL     1      43.073   2.831  10.266  0.00  0.00    +0.000 HD
BRANCH   6  10
ATOM     10  C   UNL     1      47.560   2.354   6.292  0.00  0.00    +0.000 C 
ATOM     11  N   UNL     1      47.507   3.229   5.243  0.00  0.00    +0.000 N 
ATOM     12  O   UNL     1      48.359   1.425   6.314  0.00  0.00    +0.000 OA
ATOM     13  H   UNL     1      46.830   3.984   5.240  0.00  0.00    +0.000 HD
ATOM     14  H   UNL     1      48.138   3.105   4.465  0.00  0.00    +0.000 HD
ENDBRANCH   6  10
ENDBRANCH   1   2
BRANCH   1  16
ATOM     15  C   UNL     1      42.793   5.212  13.014  0.00  0.00    +0.000 C 
ATOM     16  C   UNL     1      43.921   5.136  12.032  0.00  0.00    +0.000 C 
BRANCH  16  17
ATOM     17  C   UNL     1      45.256   5.620  12.406  0.00  0.00    +0.000 A 
ATOM     18  C   UNL     1      46.218   4.773  12.969  0.00  0.00    +0.000 A 
ATOM     19  C   UNL     1      47.482   5.261  13.313  0.00  0.00    +0.000 A 
ATOM     20  C   UNL     1      47.805   6.598  13.082  0.00  0.00    +0.000 A 
ATOM     21  C   UNL     1      46.862   7.460  12.511  0.00  0.00    +0.000 A 
ATOM     22  C   UNL     1      45.590   6.962  12.191  0.00  0.00    +0.000 A 
BRANCH  21  23
ATOM     23  C   UNL     1      47.179   8.902  12.208  0.00  0.00    +0.000 C 
ATOM     24  F   UNL     1      46.175   9.563  11.568  0.00  0.00    +0.000 F 
ATOM     25  F   UNL     1      47.436   9.619  13.338  0.00  0.00    +0.000 F 
ATOM     26  F   UNL     1      48.282   9.040  11.422  0.00  0.00    +0.000 F 
ENDBRANCH  21  23
ENDBRANCH  16  17
ENDBRANCH   1  16
TORSDOF 5
ENDMDL
MODEL 3
REMARK VINA RESULT:    -7.468      2.094      2.788
REMARK INTER + INTRA:         -10.460
REMARK INTER:                  -9.713
REMARK INTRA:                  -0.747
REMARK UNBOUND:                -0.809
REMARK  Name = 
REMARK  6 active torsions:
REMARK  status: ('A' for Active; 'I' for Inactive)
REMARK    1  A    between atoms: C_1  and  C_2
REMARK    2  A    between atoms: C_2  and  C_3
REMARK    3  A    between atoms: C_2  and  C_14
REMARK    4  A    between atoms: C_3  and  N_4
REMARK    5  A    between atoms: C_8  and  C_9
REMARK    6  A    between atoms: C_18  and  C_19
REMARK                            x       y       z     vdW  Elec       q    Type
REMARK                         _______ _______ _______ _____ _____    ______ ____
ROOT
ATOM      1  C   UNL     1      43.658   5.248  10.489  0.00  0.00    +0.000 C 
ENDROOT
BRANCH   1   2
ATOM      2  N   UNL     1      43.893   3.811  10.378  0.00  0.00    +0.000 N 
ATOM      3  C   UNL     1      44.806   3.478   9.365  0.00  0.00    +0.000 A 
ATOM      4  C   UNL     1      45.140   2.137   9.123  0.00  0.00    +0.000 A 
ATOM      5  N   UNL     1      46.021   1.723   8.171  0.00  0.00    +0.000 NA
ATOM      6  C   UNL     1      46.583   2.736   7.455  0.00  0.00    +0.000 A 
ATOM      7  C   UNL     1      46.279   4.065   7.685  0.00  0.00    +0.000 A 
ATOM      8  N   UNL     1      45.398   4.455   8.642  0.00  0.00    +0.000 NA
ATOM      9  H   UNL     1      43.023   3.307  10.228  0.00  0.00    +0.000 HD
BRANCH   6  10
ATOM     10  C   UNL     1      47.560   2.390   6.388  0.00  0.00    +0.000 C 
ATOM     11  N   UNL     1      47.498   3.142   5.248  0.00  0.00    +0.000 N 
ATOM     12  O   UNL     1      48.373   1.483   6.516  0.00  0.00    +0.000 OA
ATOM     13  H   UNL     1      46.809   3.880   5.159  0.00  0.00    +0.000 HD
ATOM     14  H   UNL     1      48.133   2.941   4.490  0.00  0.00    +0.000 HD
ENDBRANCH   6  10
ENDBRANCH   1   2
BRANCH   1  16
ATOM     15  C   UNL     1      43.695   5.070  13.056  0.00  0.00    +0.000 C 
ATOM     16  C   UNL     1      44.224   5.695  11.803  0.00  0.00    +0.000 C 
BRANCH  16  17
ATOM     17  C   UNL     1      45.096   6.874  11.879  0.00  0.00    +0.000 A 
ATOM     18  C   UNL     1      44.582   8.176  11.869  0.00  0.00    +0.000 A 
ATOM     19  C   UNL     1      45.436   9.280  11.946  0.00  0.00    +0.000 A 
ATOM     20  C   UNL     1      46.815   9.094  12.052  0.00  0.00    +0.000 A 
ATOM     21  C   UNL     1      47.351   7.802  12.075  0.00  0.00    +0.000 A 
ATOM     22  C   UNL     1      46.482   6.703  11.974  0.00  0.00    +0.000 A 
BRANCH  21  23
ATOM     23  C   UNL     1      48.829   7.552  12.226  0.00  0.00    +0.000 C 
ATOM     24  F   UNL     1      49.489   7.422  11.043  0.00  0.00    +0.000 F 
ATOM     25  F   UNL     1      49.453   8.564  12.892  0.00  0.00    +0.000 F 
ATOM     26  F   UNL     1      49.097   6.421  12.934  0.00  0.00    +0.000 F 
ENDBRANCH  21  23
ENDBRANCH  16  17
ENDBRANCH   1  16
TORSDOF 5
ENDMDL
MODEL 4
REMARK VINA RESULT:    -7.313      3.758      4.362
REMARK INTER + INTRA:         -10.260
REMARK INTER:                  -9.716
REMARK INTRA:                  -0.545
REMARK UNBOUND:                -0.809
REMARK  Name = 
REMARK  6 active torsions:
REMARK  status: ('A' for Active; 'I' for Inactive)
REMARK    1  A    between atoms: C_1  and  C_2
REMARK    2  A    between atoms: C_2  and  C_3
REMARK    3  A    between atoms: C_2  and  C_14
REMARK    4  A    between atoms: C_3  and  N_4
REMARK    5  A    between atoms: C_8  and  C_9
REMARK    6  A    between atoms: C_18  and  C_19
REMARK                            x       y       z     vdW  Elec       q    Type
REMARK                         _______ _______ _______ _____ _____    ______ ____
ROOT
ATOM      1  C   UNL     1      43.546   4.902  10.770  0.00  0.00    +0.000 C 
ENDROOT
BRANCH   1   2
ATOM      2  N   UNL     1      43.804   3.479  10.570  0.00  0.00    +0.000 N 
ATOM      3  C   UNL     1      44.709   3.223   9.527  0.00  0.00    +0.000 A 
ATOM      4  C   UNL     1      45.063   1.906   9.201  0.00  0.00    +0.000 A 
ATOM      5  N   UNL     1      45.937   1.566   8.214  0.00  0.00    +0.000 NA
ATOM      6  C   UNL     1      46.471   2.629   7.553  0.00  0.00    +0.000 A 
ATOM      7  C   UNL     1      46.147   3.936   7.867  0.00  0.00    +0.000 A 
ATOM      8  N   UNL     1      45.273   4.253   8.856  0.00  0.00    +0.000 NA
ATOM      9  H   UNL     1      42.941   2.969  10.401  0.00  0.00    +0.000 HD
BRANCH   6  10
ATOM     10  C   UNL     1      47.440   2.366   6.455  0.00  0.00    +0.000 C 
ATOM     11  N   UNL     1      47.334   3.169   5.354  0.00  0.00    +0.000 N 
ATOM     12  O   UNL     1      48.281   1.479   6.526  0.00  0.00    +0.000 OA
ATOM     13  H   UNL     1      46.621   3.889   5.312  0.00  0.00    +0.000 HD
ATOM     14  H   UNL     1      47.962   3.024   4.577  0.00  0.00    +0.000 HD
ENDBRANCH   6  10
ENDBRANCH   1   2
BRANCH   1  16
ATOM     15  C   UNL     1      44.757   4.407  12.986  0.00  0.00    +0.000 C 
ATOM     16  C   UNL     1      44.435   5.367  11.883  0.00  0.00    +0.000 C 
BRANCH  16  17
ATOM     17  C   UNL     1      44.787   6.786  12.017  0.00  0.00    +0.000 A 
ATOM     18  C   UNL     1      45.830   7.214  12.847  0.00  0.00    +0.000 A 
ATOM     19  C   UNL     1      46.145   8.572  12.952  0.00  0.00    +0.000 A 
ATOM     20  C   UNL     1      45.430   9.517  12.216  0.00  0.00    +0.000 A 
ATOM     21  C   UNL     1      44.391   9.111  11.371  0.00  0.00    +0.000 A 
ATOM     22  C   UNL     1      44.072   7.746  11.292  0.00  0.00    +0.000 A 
BRANCH  21  23
ATOM     23  C   UNL     1      43.618  10.091  10.528  0.00  0.00    +0.000 C 
ATOM     24  F   UNL     1      43.542  11.340  11.065  0.00  0.00    +0.000 F 
ATOM     25  F   UNL     1      44.169  10.250   9.292  0.00  0.00    +0.000 F 
ATOM     26  F   UNL     1      42.333   9.695  10.313  0.00  0.00    +0.000 F 
ENDBRANCH  21  23
ENDBRANCH  16  17
ENDBRANCH   1  16
TORSDOF 5
ENDMDL
MODEL 5
REMARK VINA RESULT:    -6.828      5.436      8.072
REMARK INTER + INTRA:          -9.633
REMARK INTER:                  -9.071
REMARK INTRA:                  -0.562
REMARK UNBOUND:                -0.809
REMARK  Name = 
REMARK  6 active torsions:
REMARK  status: ('A' for Active; 'I' for Inactive)
REMARK    1  A    between atoms: C_1  and  C_2
REMARK    2  A    between atoms: C_2  and  C_3
REMARK    3  A    between atoms: C_2  and  C_14
REMARK    4  A    between atoms: C_3  and  N_4
REMARK    5  A    between atoms: C_8  and  C_9
REMARK    6  A    between atoms: C_18  and  C_19
REMARK                            x       y       z     vdW  Elec       q    Type
REMARK                         _______ _______ _______ _____ _____    ______ ____
ROOT
ATOM      1  C   UNL     1      47.455   6.219  13.546  0.00  0.00    +0.000 C 
ENDROOT
BRANCH   1   2
ATOM      2  N   UNL     1      46.914   5.098  14.310  0.00  0.00    +0.000 N 
ATOM      3  C   UNL     1      47.537   4.928  15.557  0.00  0.00    +0.000 A 
ATOM      4  C   UNL     1      47.138   3.892  16.414  0.00  0.00    +0.000 A 
ATOM      5  N   UNL     1      47.677   3.659  17.643  0.00  0.00    +0.000 NA
ATOM      6  C   UNL     1      48.654   4.539  17.997  0.00  0.00    +0.000 A 
ATOM      7  C   UNL     1      49.053   5.575  17.174  0.00  0.00    +0.000 A 
ATOM      8  N   UNL     1      48.500   5.790  15.953  0.00  0.00    +0.000 NA
ATOM      9  H   UNL     1      46.974   4.231  13.782  0.00  0.00    +0.000 HD
BRANCH   6  10
ATOM     10  C   UNL     1      49.309   4.372  19.322  0.00  0.00    +0.000 C 
ATOM     11  N   UNL     1      48.615   3.647  20.250  0.00  0.00    +0.000 N 
ATOM     12  O   UNL     1      50.405   4.858  19.574  0.00  0.00    +0.000 OA
ATOM     13  H   UNL     1      47.704   3.265  20.024  0.00  0.00    +0.000 HD
ATOM     14  H   UNL     1      49.013   3.513  21.169  0.00  0.00    +0.000 HD
ENDBRANCH   6  10
ENDBRANCH   1   2
BRANCH   1  16
ATOM     15  C   UNL     1      46.043   8.313  13.051  0.00  0.00    +0.000 C 
ATOM     16  C   UNL     1      46.311   6.859  12.819  0.00  0.00    +0.000 C 
BRANCH  16  17
ATOM     17  C   UNL     1      45.338   6.039  12.086  0.00  0.00    +0.000 A 
ATOM     18  C   UNL     1      44.032   5.849  12.552  0.00  0.00    +0.000 A 
ATOM     19  C   UNL     1      43.125   5.066  11.832  0.00  0.00    +0.000 A 
ATOM     20  C   UNL     1      43.510   4.475  10.629  0.00  0.00    +0.000 A 
ATOM     21  C   UNL     1      44.808   4.659  10.138  0.00  0.00    +0.000 A 
ATOM     22  C   UNL     1      45.714   5.431  10.883  0.00  0.00    +0.000 A 
BRANCH  21  23
ATOM     23  C   UNL     1      45.256   4.073   8.825  0.00  0.00    +0.000 C 
ATOM     24  F   UNL     1      45.655   2.774   8.909  0.00  0.00    +0.000 F 
ATOM     25  F   UNL     1      44.267   4.099   7.888  0.00  0.00    +0.000 F 
ATOM     26  F   UNL     1      46.301   4.753   8.279  0.00  0.00    +0.000 F 
ENDBRANCH  21  23
ENDBRANCH  16  17
ENDBRANCH   1  16
TORSDOF 5
ENDMDL
MODEL 6
REMARK VINA RESULT:    -6.540      4.071      6.179
REMARK INTER + INTRA:          -9.261
REMARK INTER:                  -8.710
REMARK INTRA:                  -0.552
REMARK UNBOUND:                -0.809
REMARK  Name = 
REMARK  6 active torsions:
REMARK  status: ('A' for Active; 'I' for Inactive)
REMARK    1  A    between atoms: C_1  and  C_2
REMARK    2  A    between atoms: C_2  and  C_3
REMARK    3  A    between atoms: C_2  and  C_14
REMARK    4  A    between atoms: C_3  and  N_4
REMARK    5  A    between atoms: C_8  and  C_9
REMARK    6  A    between atoms: C_18  and  C_19
REMARK                            x       y       z     vdW  Elec       q    Type
REMARK                         _______ _______ _______ _____ _____    ______ ____
ROOT
ATOM      1  C   UNL     1      47.544   3.781  15.892  0.00  0.00    +0.000 C 
ENDROOT
BRANCH   1   2
ATOM      2  N   UNL     1      47.117   4.988  15.190  0.00  0.00    +0.000 N 
ATOM      3  C   UNL     1      46.430   4.716  13.995  0.00  0.00    +0.000 A 
ATOM      4  C   UNL     1      45.955   5.766  13.195  0.00  0.00    +0.000 A 
ATOM      5  N   UNL     1      45.272   5.597  12.030  0.00  0.00    +0.000 NA
ATOM      6  C   UNL     1      45.065   4.295  11.690  0.00  0.00    +0.000 A 
ATOM      7  C   UNL     1      45.513   3.245  12.469  0.00  0.00    +0.000 A 
ATOM      8  N   UNL     1      46.191   3.437  13.630  0.00  0.00    +0.000 NA
ATOM      9  H   UNL     1      47.906   5.598  14.994  0.00  0.00    +0.000 HD
BRANCH   6  10
ATOM     10  C   UNL     1      44.328   4.001  10.432  0.00  0.00    +0.000 C 
ATOM     11  N   UNL     1      44.343   4.984   9.482  0.00  0.00    +0.000 N 
ATOM     12  O   UNL     1      43.736   2.944  10.254  0.00  0.00    +0.000 OA
ATOM     13  H   UNL     1      44.829   5.856   9.655  0.00  0.00    +0.000 HD
ATOM     14  H   UNL     1      43.849   4.837   8.613  0.00  0.00    +0.000 HD
ENDBRANCH   6  10
ENDBRANCH   1   2
BRANCH   1  16
ATOM     15  C   UNL     1      47.395   5.026  18.140  0.00  0.00    +0.000 C 
ATOM     16  C   UNL     1      48.196   4.213  17.170  0.00  0.00    +0.000 C 
BRANCH  16  17
ATOM     17  C   UNL     1      49.643   4.054  17.364  0.00  0.00    +0.000 A 
ATOM     18  C   UNL     1      50.494   5.155  17.519  0.00  0.00    +0.000 A 
ATOM     19  C   UNL     1      51.868   4.972  17.704  0.00  0.00    +0.000 A 
ATOM     20  C   UNL     1      52.405   3.686  17.753  0.00  0.00    +0.000 A 
ATOM     21  C   UNL     1      51.571   2.570  17.610  0.00  0.00    +0.000 A 
ATOM     22  C   UNL     1      50.197   2.769  17.404  0.00  0.00    +0.000 A 
BRANCH  21  23
ATOM     23  C   UNL     1      52.100   1.162  17.695  0.00  0.00    +0.000 C 
ATOM     24  F   UNL     1      53.187   1.030  18.505  0.00  0.00    +0.000 F 
ATOM     25  F   UNL     1      51.169   0.293  18.178  0.00  0.00    +0.000 F 
ATOM     26  F   UNL     1      52.472   0.670  16.482  0.00  0.00    +0.000 F 
ENDBRANCH  21  23
ENDBRANCH  16  17
ENDBRANCH   1  16
TORSDOF 5
ENDMDL
MODEL 7
REMARK VINA RESULT:    -6.274      3.796      5.809
REMARK INTER + INTRA:          -8.918
REMARK INTER:                  -8.039
REMARK INTRA:                  -0.879
REMARK UNBOUND:                -0.809
REMARK  Name = 
REMARK  6 active torsions:
REMARK  status: ('A' for Active; 'I' for Inactive)
REMARK    1  A    between atoms: C_1  and  C_2
REMARK    2  A    between atoms: C_2  and  C_3
REMARK    3  A    between atoms: C_2  and  C_14
REMARK    4  A    between atoms: C_3  and  N_4
REMARK    5  A    between atoms: C_8  and  C_9
REMARK    6  A    between atoms: C_18  and  C_19
REMARK                            x       y       z     vdW  Elec       q    Type
REMARK                         _______ _______ _______ _____ _____    ______ ____
ROOT
ATOM      1  C   UNL     1      48.596   7.250  14.077  0.00  0.00    +0.000 C 
ENDROOT
BRANCH   1   2
ATOM      2  N   UNL     1      47.292   7.748  13.646  0.00  0.00    +0.000 N 
ATOM      3  C   UNL     1      46.429   6.728  13.212  0.00  0.00    +0.000 A 
ATOM      4  C   UNL     1      45.138   7.036  12.760  0.00  0.00    +0.000 A 
ATOM      5  N   UNL     1      44.232   6.114  12.331  0.00  0.00    +0.000 NA
ATOM      6  C   UNL     1      44.678   4.829  12.387  0.00  0.00    +0.000 A 
ATOM      7  C   UNL     1      45.942   4.501  12.841  0.00  0.00    +0.000 A 
ATOM      8  N   UNL     1      46.829   5.437  13.265  0.00  0.00    +0.000 NA
ATOM      9  H   UNL     1      47.389   8.443  12.911  0.00  0.00    +0.000 HD
BRANCH   6  10
ATOM     10  C   UNL     1      43.764   3.743  11.940  0.00  0.00    +0.000 C 
ATOM     11  N   UNL     1      43.936   2.527  12.540  0.00  0.00    +0.000 N 
ATOM     12  O   UNL     1      42.909   3.922  11.081  0.00  0.00    +0.000 OA
ATOM     13  H   UNL     1      44.658   2.399  13.239  0.00  0.00    +0.000 HD
ATOM     14  H   UNL     1      43.347   1.754  12.264  0.00  0.00    +0.000 HD
ENDBRANCH   6  10
ENDBRANCH   1   2
BRANCH   1  16
ATOM     15  C   UNL     1      49.361   9.026  15.776  0.00  0.00    +0.000 C 
ATOM     16  C   UNL     1      48.786   7.671  15.503  0.00  0.00    +0.000 C 
BRANCH  16  17
ATOM     17  C   UNL     1      48.639   6.700  16.595  0.00  0.00    +0.000 A 
ATOM     18  C   UNL     1      48.649   7.092  17.939  0.00  0.00    +0.000 A 
ATOM     19  C   UNL     1      48.504   6.146  18.958  0.00  0.00    +0.000 A 
ATOM     20  C   UNL     1      48.332   4.798  18.645  0.00  0.00    +0.000 A 
ATOM     21  C   UNL     1      48.308   4.384  17.308  0.00  0.00    +0.000 A 
ATOM     22  C   UNL     1      48.476   5.343  16.296  0.00  0.00    +0.000 A 
BRANCH  21  23
ATOM     23  C   UNL     1      48.085   2.945  16.921  0.00  0.00    +0.000 C 
ATOM     24  F   UNL     1      49.187   2.159  17.068  0.00  0.00    +0.000 F 
ATOM     25  F   UNL     1      47.108   2.360  17.667  0.00  0.00    +0.000 F 
ATOM     26  F   UNL     1      47.695   2.808  15.624  0.00  0.00    +0.000 F 
ENDBRANCH  21  23
ENDBRANCH  16  17
ENDBRANCH   1  16
TORSDOF 5
ENDMDL
MODEL 8
REMARK VINA RESULT:    -6.160      4.028      6.344
REMARK INTER + INTRA:          -8.770
REMARK INTER:                  -8.237
REMARK INTRA:                  -0.533
REMARK UNBOUND:                -0.809
REMARK  Name = 
REMARK  6 active torsions:
REMARK  status: ('A' for Active; 'I' for Inactive)
REMARK    1  A    between atoms: C_1  and  C_2
REMARK    2  A    between atoms: C_2  and  C_3
REMARK    3  A    between atoms: C_2  and  C_14
REMARK    4  A    between atoms: C_3  and  N_4
REMARK    5  A    between atoms: C_8  and  C_9
REMARK    6  A    between atoms: C_18  and  C_19
REMARK                            x       y       z     vdW  Elec       q    Type
REMARK                         _______ _______ _______ _____ _____    ______ ____
ROOT
ATOM      1  C   UNL     1      47.485   3.637  15.860  0.00  0.00    +0.000 C 
ENDROOT
BRANCH   1   2
ATOM      2  N   UNL     1      47.158   4.890  15.183  0.00  0.00    +0.000 N 
ATOM      3  C   UNL     1      46.488   4.699  13.964  0.00  0.00    +0.000 A 
ATOM      4  C   UNL     1      46.106   5.800  13.184  0.00  0.00    +0.000 A 
ATOM      5  N   UNL     1      45.446   5.711  11.996  0.00  0.00    +0.000 NA
ATOM      6  C   UNL     1      45.163   4.435  11.612  0.00  0.00    +0.000 A 
ATOM      7  C   UNL     1      45.519   3.336  12.371  0.00  0.00    +0.000 A 
ATOM      8  N   UNL     1      46.175   3.449  13.554  0.00  0.00    +0.000 NA
ATOM      9  H   UNL     1      47.991   5.451  15.026  0.00  0.00    +0.000 HD
BRANCH   6  10
ATOM     10  C   UNL     1      44.443   4.227  10.327  0.00  0.00    +0.000 C 
ATOM     11  N   UNL     1      43.564   5.208   9.964  0.00  0.00    +0.000 N 
ATOM     12  O   UNL     1      44.621   3.234   9.633  0.00  0.00    +0.000 OA
ATOM     13  H   UNL     1      43.424   6.016  10.559  0.00  0.00    +0.000 HD
ATOM     14  H   UNL     1      43.043   5.110   9.104  0.00  0.00    +0.000 HD
ENDBRANCH   6  10
ENDBRANCH   1   2
BRANCH   1  16
ATOM     15  C   UNL     1      47.705   5.065  17.990  0.00  0.00    +0.000 C 
ATOM     16  C   UNL     1      48.245   3.985  17.104  0.00  0.00    +0.000 C 
BRANCH  16  17
ATOM     17  C   UNL     1      49.597   3.457  17.327  0.00  0.00    +0.000 A 
ATOM     18  C   UNL     1      49.902   2.104  17.139  0.00  0.00    +0.000 A 
ATOM     19  C   UNL     1      51.199   1.630  17.356  0.00  0.00    +0.000 A 
ATOM     20  C   UNL     1      52.210   2.507  17.749  0.00  0.00    +0.000 A 
ATOM     21  C   UNL     1      51.930   3.866  17.933  0.00  0.00    +0.000 A 
ATOM     22  C   UNL     1      50.619   4.324  17.732  0.00  0.00    +0.000 A 
BRANCH  21  23
ATOM     23  C   UNL     1      52.998   4.856  18.318  0.00  0.00    +0.000 C 
ATOM     24  F   UNL     1      53.978   5.001  17.383  0.00  0.00    +0.000 F 
ATOM     25  F   UNL     1      52.490   6.104  18.521  0.00  0.00    +0.000 F 
ATOM     26  F   UNL     1      53.629   4.519  19.476  0.00  0.00    +0.000 F 
ENDBRANCH  21  23
ENDBRANCH  16  17
ENDBRANCH   1  16
TORSDOF 5
ENDMDL
MODEL 9
REMARK VINA RESULT:    -5.635      5.012      6.809
REMARK INTER + INTRA:          -8.092
REMARK INTER:                  -7.483
REMARK INTRA:                  -0.608
REMARK UNBOUND:                -0.809
REMARK  Name = 
REMARK  6 active torsions:
REMARK  status: ('A' for Active; 'I' for Inactive)
REMARK    1  A    between atoms: C_1  and  C_2
REMARK    2  A    between atoms: C_2  and  C_3
REMARK    3  A    between atoms: C_2  and  C_14
REMARK    4  A    between atoms: C_3  and  N_4
REMARK    5  A    between atoms: C_8  and  C_9
REMARK    6  A    between atoms: C_18  and  C_19
REMARK                            x       y       z     vdW  Elec       q    Type
REMARK                         _______ _______ _______ _____ _____    ______ ____
ROOT
ATOM      1  C   UNL     1      46.272   7.393  12.859  0.00  0.00    +0.000 C 
ENDROOT
BRANCH   1   2
ATOM      2  N   UNL     1      46.810   8.704  12.509  0.00  0.00    +0.000 N 
ATOM      3  C   UNL     1      48.162   8.662  12.130  0.00  0.00    +0.000 A 
ATOM      4  C   UNL     1      48.834   9.838  11.767  0.00  0.00    +0.000 A 
ATOM      5  N   UNL     1      50.137   9.891  11.377  0.00  0.00    +0.000 NA
ATOM      6  C   UNL     1      50.760   8.681  11.353  0.00  0.00    +0.000 A 
ATOM      7  C   UNL     1      50.114   7.507  11.694  0.00  0.00    +0.000 A 
ATOM      8  N   UNL     1      48.812   7.478  12.078  0.00  0.00    +0.000 NA
ATOM      9  H   UNL     1      46.694   9.365  13.272  0.00  0.00    +0.000 HD
BRANCH   6  10
ATOM     10  C   UNL     1      52.188   8.628  10.941  0.00  0.00    +0.000 C 
ATOM     11  N   UNL     1      52.793   7.405  11.020  0.00  0.00    +0.000 N 
ATOM     12  O   UNL     1      52.794   9.621  10.558  0.00  0.00    +0.000 OA
ATOM     13  H   UNL     1      52.276   6.599  11.352  0.00  0.00    +0.000 HD
ATOM     14  H   UNL     1      53.765   7.318  10.761  0.00  0.00    +0.000 HD
ENDBRANCH   6  10
ENDBRANCH   1   2
BRANCH   1  16
ATOM     15  C   UNL     1      44.409   8.246  11.302  0.00  0.00    +0.000 C 
ATOM     16  C   UNL     1      45.157   7.096  11.903  0.00  0.00    +0.000 C 
BRANCH  16  17
ATOM     17  C   UNL     1      44.653   5.726  11.743  0.00  0.00    +0.000 A 
ATOM     18  C   UNL     1      43.904   5.092  12.741  0.00  0.00    +0.000 A 
ATOM     19  C   UNL     1      43.435   3.788  12.559  0.00  0.00    +0.000 A 
ATOM     20  C   UNL     1      43.696   3.108  11.369  0.00  0.00    +0.000 A 
ATOM     21  C   UNL     1      44.433   3.726  10.353  0.00  0.00    +0.000 A 
ATOM     22  C   UNL     1      44.916   5.028  10.558  0.00  0.00    +0.000 A 
BRANCH  21  23
ATOM     23  C   UNL     1      44.706   3.046   9.037  0.00  0.00    +0.000 C 
ATOM     24  F   UNL     1      44.139   1.812   8.927  0.00  0.00    +0.000 F 
ATOM     25  F   UNL     1      44.236   3.767   7.980  0.00  0.00    +0.000 F 
ATOM     26  F   UNL     1      46.036   2.872   8.805  0.00  0.00    +0.000 F 
ENDBRANCH  21  23
ENDBRANCH  16  17
ENDBRANCH   1  16
TORSDOF 5
ENDMDL
