MODEL 1
REMARK VINA RESULT:    -9.945      0.000      0.000
REMARK INTER + INTRA:         -13.711
REMARK INTER:                 -12.852
REMARK INTRA:                  -0.859
REMARK UNBOUND:                -0.859
REMARK  Name = 
REMARK  5 active torsions:
REMARK  status: ('A' for Active; 'I' for Inactive)
REMARK    1  A    between atoms: C_2  and  C_4
REMARK    2  A    between atoms: N_8  and  C_9
REMARK    3  A    between atoms: C_9  and  C_10
REMARK    4  A    between atoms: C_10  and  C_13
REMARK    5  A    between atoms: C_17  and  C_18
REMARK                            x       y       z     vdW  Elec       q    Type
REMARK                         _______ _______ _______ _____ _____    ______ ____
ROOT
ATOM      1  C   UNL     1      43.579   5.719  12.060  0.00  0.00    +0.000 C 
ATOM      2  F   UNL     1      43.028   6.822  11.468  0.00  0.00    +0.000 F 
ATOM      3  F   UNL     1      42.878   5.538  13.217  0.00  0.00    +0.000 F 
ENDROOT
BRANCH   1   4
ATOM      4  C   UNL     1      45.065   5.895  12.321  0.00  0.00    +0.000 A 
ATOM      5  C   UNL     1      45.864   6.620  11.429  0.00  0.00    +0.000 A 
ATOM      6  C   UNL     1      47.211   6.830  11.707  0.00  0.00    +0.000 A 
ATOM      7  C   UNL     1      47.768   6.332  12.887  0.00  0.00    +0.000 A 
ATOM      8  C   UNL     1      46.995   5.616  13.819  0.00  0.00    +0.000 A 
ATOM      9  C   UNL     1      45.644   5.390  13.499  0.00  0.00    +0.000 A 
BRANCH   8  10
ATOM     10  C   UNL     1      47.558   5.171  15.115  0.00  0.00    +0.000 A 
ATOM     11  C   UNL     1      48.576   5.881  15.766  0.00  0.00    +0.000 A 
ATOM     12  C   UNL     1      49.111   5.381  16.945  0.00  0.00    +0.000 A 
ATOM     13  N   UNL     1      48.704   4.239  17.530  0.00  0.00    +0.000 NA
ATOM     14  C   UNL     1      47.716   3.573  16.905  0.00  0.00    +0.000 A 
ATOM     15  F   UNL     1      47.290   2.430  17.462  0.00  0.00    +0.000 F 
ATOM     16  C   UNL     1      47.126   3.986  15.723  0.00  0.00    +0.000 A 
ENDBRANCH   8  10
ENDBRANCH   1   4
BRANCH   1  17
ATOM     17  C   UNL     1      43.353   4.499  11.127  0.00  0.00    +0.000 C 
BRANCH  17  22
ATOM     18  C   UNL     1      46.491   2.472   7.655  0.00  0.00    +0.000 A 
ATOM     19  C   UNL     1      45.722   1.844   8.627  0.00  0.00    +0.000 A 
ATOM     20  C   UNL     1      44.807   2.600   9.361  0.00  0.00    +0.000 A 
ATOM     21  C   UNL     1      44.684   3.965   9.122  0.00  0.00    +0.000 A 
ATOM     22  N   UNL     1      43.728   4.754   9.732  0.00  0.00    +0.000 N 
ATOM     23  N   UNL     1      45.453   4.590   8.209  0.00  0.00    +0.000 NA
ATOM     24  C   UNL     1      46.340   3.841   7.501  0.00  0.00    +0.000 A 
ATOM     25  H   UNL     1      43.907   5.729   9.493  0.00  0.00    +0.000 HD
BRANCH  18  27
ATOM     26  N   UNL     1      48.565   2.419   6.396  0.00  0.00    +0.000 N 
ATOM     27  C   UNL     1      47.444   1.741   6.794  0.00  0.00    +0.000 C 
ATOM     28  O   UNL     1      47.260   0.572   6.483  0.00  0.00    +0.000 OA
ATOM     29  H   UNL     1      49.264   1.873   5.900  0.00  0.00    +0.000 HD
ATOM     30  H   UNL     1      48.869   3.274   6.832  0.00  0.00    +0.000 HD
ENDBRANCH  18  27
ENDBRANCH  17  22
ENDBRANCH   1  17
TORSDOF 5
ENDMDL
MODEL 2
REMARK VINA RESULT:    -9.846      2.499      3.731
REMARK INTER + INTRA:         -13.583
REMARK INTER:                 -12.496
REMARK INTRA:                  -1.087
REMARK UNBOUND:                -0.859
REMARK  Name = 
REMARK  5 active torsions:
REMARK  status: ('A' for Active; 'I' for Inactive)
REMARK    1  A    between atoms: C_2  and  C_4
REMARK    2  A    between atoms: N_8  and  C_9
REMARK    3  A    between atoms: C_9  and  C_10
REMARK    4  A    between atoms: C_10  and  C_13
REMARK    5  A    between atoms: C_17  and  C_18
REMARK                            x       y       z     vdW  Elec       q    Type
REMARK                         _______ _______ _______ _____ _____    ______ ____
ROOT
ATOM      1  C   UNL     1      43.406   5.561  12.132  0.00  0.00    +0.000 C 
ATOM      2  F   UNL     1      43.035   6.732  11.531  0.00  0.00    +0.000 F 
ATOM      3  F   UNL     1      42.530   5.388  13.164  0.00  0.00    +0.000 F 
ENDROOT
BRANCH   1   4
ATOM      4  C   UNL     1      44.845   5.598  12.613  0.00  0.00    +0.000 A 
ATOM      5  C   UNL     1      45.397   4.508  13.296  0.00  0.00    +0.000 A 
ATOM      6  C   UNL     1      46.735   4.525  13.677  0.00  0.00    +0.000 A 
ATOM      7  C   UNL     1      47.539   5.624  13.365  0.00  0.00    +0.000 A 
ATOM      8  C   UNL     1      47.029   6.730  12.661  0.00  0.00    +0.000 A 
ATOM      9  C   UNL     1      45.665   6.702  12.315  0.00  0.00    +0.000 A 
BRANCH   8  10
ATOM     10  C   UNL     1      47.900   7.853  12.244  0.00  0.00    +0.000 A 
ATOM     11  C   UNL     1      47.427   9.171  12.167  0.00  0.00    +0.000 A 
ATOM     12  C   UNL     1      48.271  10.172  11.706  0.00  0.00    +0.000 A 
ATOM     13  N   UNL     1      49.547   9.967  11.330  0.00  0.00    +0.000 NA
ATOM     14  C   UNL     1      49.995   8.701  11.422  0.00  0.00    +0.000 A 
ATOM     15  F   UNL     1      51.262   8.463  11.052  0.00  0.00    +0.000 F 
ATOM     16  C   UNL     1      49.229   7.635  11.860  0.00  0.00    +0.000 A 
ENDBRANCH   8  10
ENDBRANCH   1   4
BRANCH   1  17
ATOM     17  C   UNL     1      43.226   4.408  11.108  0.00  0.00    +0.000 C 
BRANCH  17  22
ATOM     18  C   UNL     1      46.503   2.513   7.689  0.00  0.00    +0.000 A 
ATOM     19  C   UNL     1      45.653   1.848   8.565  0.00  0.00    +0.000 A 
ATOM     20  C   UNL     1      44.721   2.585   9.297  0.00  0.00    +0.000 A 
ATOM     21  C   UNL     1      44.660   3.968   9.152  0.00  0.00    +0.000 A 
ATOM     22  N   UNL     1      43.696   4.747   9.760  0.00  0.00    +0.000 N 
ATOM     23  N   UNL     1      45.505   4.625   8.334  0.00  0.00    +0.000 NA
ATOM     24  C   UNL     1      46.409   3.895   7.627  0.00  0.00    +0.000 A 
ATOM     25  H   UNL     1      43.924   5.729   9.604  0.00  0.00    +0.000 HD
BRANCH  18  27
ATOM     26  N   UNL     1      48.559   2.534   6.400  0.00  0.00    +0.000 N 
ATOM     27  C   UNL     1      47.482   1.809   6.836  0.00  0.00    +0.000 C 
ATOM     28  O   UNL     1      47.358   0.623   6.562  0.00  0.00    +0.000 OA
ATOM     29  H   UNL     1      49.279   2.011   5.910  0.00  0.00    +0.000 HD
ATOM     30  H   UNL     1      48.822   3.417   6.806  0.00  0.00    +0.000 HD
ENDBRANCH  18  27
ENDBRANCH  17  22
ENDBRANCH   1  17
TORSDOF 5
ENDMDL
MODEL 3
REMARK VINA RESULT:    -8.960      1.721      2.091
REMARK INTER + INTRA:         -12.437
REMARK INTER:                 -11.626
REMARK INTRA:                  -0.811
REMARK UNBOUND:                -0.859
REMARK  Name = 
REMARK  5 active torsions:
REMARK  status: ('A' for Active; 'I' for Inactive)
REMARK    1  A    between atoms: C_2  and  C_4
REMARK    2  A    between atoms: N_8  and  C_9
REMARK    3  A    between atoms: C_9  and  C_10
REMARK    4  A    between atoms: C_10  and  C_13
REMARK    5  A    between atoms: C_17  and  C_18
REMARK                            x       y       z     vdW  Elec       q    Type
REMARK                         _______ _______ _______ _____ _____    ______ ____
ROOT
ATOM      1  C   UNL     1      43.046   5.277  12.120  0.00  0.00    +0.000 C 
ATOM      2  F   UNL     1      41.908   5.927  11.729  0.00  0.00    +0.000 F 
ATOM      3  F   UNL     1      42.758   4.740  13.341  0.00  0.00    +0.000 F 
ENDROOT
BRANCH   1   4
ATOM      4  C   UNL     1      44.243   6.210  12.181  0.00  0.00    +0.000 A 
ATOM      5  C   UNL     1      44.238   7.422  11.480  0.00  0.00    +0.000 A 
ATOM      6  C   UNL     1      45.312   8.299  11.591  0.00  0.00    +0.000 A 
ATOM      7  C   UNL     1      46.394   7.982  12.417  0.00  0.00    +0.000 A 
ATOM      8  C   UNL     1      46.427   6.785  13.155  0.00  0.00    +0.000 A 
ATOM      9  C   UNL     1      45.344   5.900  13.000  0.00  0.00    +0.000 A 
BRANCH   8  10
ATOM     10  C   UNL     1      47.524   6.490  14.105  0.00  0.00    +0.000 A 
ATOM     11  C   UNL     1      47.408   5.499  15.090  0.00  0.00    +0.000 A 
ATOM     12  C   UNL     1      48.444   5.311  15.995  0.00  0.00    +0.000 A 
ATOM     13  N   UNL     1      49.587   6.021  15.987  0.00  0.00    +0.000 NA
ATOM     14  C   UNL     1      49.695   6.959  15.029  0.00  0.00    +0.000 A 
ATOM     15  F   UNL     1      50.821   7.686  14.996  0.00  0.00    +0.000 F 
ATOM     16  C   UNL     1      48.715   7.227  14.088  0.00  0.00    +0.000 A 
ENDBRANCH   8  10
ENDBRANCH   1   4
BRANCH   1  17
ATOM     17  C   UNL     1      43.327   4.132  11.110  0.00  0.00    +0.000 C 
BRANCH  17  22
ATOM     18  C   UNL     1      46.645   2.743   7.494  0.00  0.00    +0.000 A 
ATOM     19  C   UNL     1      45.858   1.954   8.324  0.00  0.00    +0.000 A 
ATOM     20  C   UNL     1      44.897   2.565   9.129  0.00  0.00    +0.000 A 
ATOM     21  C   UNL     1      44.745   3.948   9.101  0.00  0.00    +0.000 A 
ATOM     22  N   UNL     1      43.746   4.611   9.788  0.00  0.00    +0.000 N 
ATOM     23  N   UNL     1      45.529   4.725   8.328  0.00  0.00    +0.000 NA
ATOM     24  C   UNL     1      46.462   4.115   7.548  0.00  0.00    +0.000 A 
ATOM     25  H   UNL     1      43.907   5.615   9.710  0.00  0.00    +0.000 HD
BRANCH  18  27
ATOM     26  N   UNL     1      47.851   2.843   5.390  0.00  0.00    +0.000 N 
ATOM     27  C   UNL     1      47.648   2.177   6.569  0.00  0.00    +0.000 C 
ATOM     28  O   UNL     1      48.298   1.181   6.858  0.00  0.00    +0.000 OA
ATOM     29  H   UNL     1      48.619   2.510   4.815  0.00  0.00    +0.000 HD
ATOM     30  H   UNL     1      47.529   3.785   5.234  0.00  0.00    +0.000 HD
ENDBRANCH  18  27
ENDBRANCH  17  22
ENDBRANCH   1  17
TORSDOF 5
ENDMDL
MODEL 4
REMARK VINA RESULT:    -8.895      2.697      3.582
REMARK INTER + INTRA:         -12.353
REMARK INTER:                 -11.542
REMARK INTRA:                  -0.811
REMARK UNBOUND:                -0.859
REMARK  Name = 
REMARK  5 active torsions:
REMARK  status: ('A' for Active; 'I' for Inactive)
REMARK    1  A    between atoms: C_2  and  C_4
REMARK    2  A    between atoms: N_8  and  C_9
REMARK    3  A    between atoms: C_9  and  C_10
REMARK    4  A    between atoms: C_10  and  C_13
REMARK    5  A    between atoms: C_17  and  C_18
REMARK                            x       y       z     vdW  Elec       q    Type
REMARK                         _______ _______ _______ _____ _____    ______ ____
ROOT
ATOM      1  C   UNL     1      44.582   4.861  12.228  0.00  0.00    +0.000 C 
ATOM      2  F   UNL     1      43.995   4.688  13.451  0.00  0.00    +0.000 F 
ATOM      3  F   UNL     1      45.518   3.873  12.130  0.00  0.00    +0.000 F 
ENDROOT
BRANCH   1   4
ATOM      4  C   UNL     1      45.198   6.241  12.081  0.00  0.00    +0.000 A 
ATOM      5  C   UNL     1      44.387   7.370  11.915  0.00  0.00    +0.000 A 
ATOM      6  C   UNL     1      44.958   8.637  11.845  0.00  0.00    +0.000 A 
ATOM      7  C   UNL     1      46.342   8.790  11.958  0.00  0.00    +0.000 A 
ATOM      8  C   UNL     1      47.189   7.684  12.148  0.00  0.00    +0.000 A 
ATOM      9  C   UNL     1      46.591   6.410  12.183  0.00  0.00    +0.000 A 
BRANCH   8  10
ATOM     10  C   UNL     1      48.645   7.850  12.365  0.00  0.00    +0.000 A 
ATOM     11  C   UNL     1      49.186   8.056  13.642  0.00  0.00    +0.000 A 
ATOM     12  C   UNL     1      50.551   8.271  13.777  0.00  0.00    +0.000 A 
ATOM     13  N   UNL     1      51.416   8.284  12.746  0.00  0.00    +0.000 NA
ATOM     14  C   UNL     1      50.888   8.070  11.527  0.00  0.00    +0.000 A 
ATOM     15  F   UNL     1      51.724   8.080  10.479  0.00  0.00    +0.000 F 
ATOM     16  C   UNL     1      49.542   7.856  11.290  0.00  0.00    +0.000 A 
ENDBRANCH   8  10
ENDBRANCH   1   4
BRANCH   1  17
ATOM     17  C   UNL     1      43.501   4.652  11.133  0.00  0.00    +0.000 C 
BRANCH  17  22
ATOM     18  C   UNL     1      46.515   2.491   7.631  0.00  0.00    +0.000 A 
ATOM     19  C   UNL     1      45.621   1.900   8.516  0.00  0.00    +0.000 A 
ATOM     20  C   UNL     1      44.779   2.715   9.274  0.00  0.00    +0.000 A 
ATOM     21  C   UNL     1      44.849   4.098   9.144  0.00  0.00    +0.000 A 
ATOM     22  N   UNL     1      43.976   4.960   9.779  0.00  0.00    +0.000 N 
ATOM     23  N   UNL     1      45.738   4.681   8.316  0.00  0.00    +0.000 NA
ATOM     24  C   UNL     1      46.553   3.876   7.584  0.00  0.00    +0.000 A 
ATOM     25  H   UNL     1      44.294   5.917   9.628  0.00  0.00    +0.000 HD
BRANCH  18  27
ATOM     26  N   UNL     1      48.508   2.347   6.253  0.00  0.00    +0.000 N 
ATOM     27  C   UNL     1      47.404   1.706   6.751  0.00  0.00    +0.000 C 
ATOM     28  O   UNL     1      47.188   0.527   6.508  0.00  0.00    +0.000 OA
ATOM     29  H   UNL     1      49.168   1.768   5.743  0.00  0.00    +0.000 HD
ATOM     30  H   UNL     1      48.847   3.218   6.629  0.00  0.00    +0.000 HD
ENDBRANCH  18  27
ENDBRANCH  17  22
ENDBRANCH   1  17
TORSDOF 5
ENDMDL
MODEL 5
REMARK VINA RESULT:    -8.387      3.239      8.009
REMARK INTER + INTRA:         -11.698
REMARK INTER:                 -10.787
REMARK INTRA:                  -0.910
REMARK UNBOUND:                -0.859
REMARK  Name = 
REMARK  5 active torsions:
REMARK  status: ('A' for Active; 'I' for Inactive)
REMARK    1  A    between atoms: C_2  and  C_4
REMARK    2  A    between atoms: N_8  and  C_9
REMARK    3  A    between atoms: C_9  and  C_10
REMARK    4  A    between atoms: C_10  and  C_13
REMARK    5  A    between atoms: C_17  and  C_18
REMARK                            x       y       z     vdW  Elec       q    Type
REMARK                         _______ _______ _______ _____ _____    ______ ____
ROOT
ATOM      1  C   UNL     1      45.639   6.543  11.576  0.00  0.00    +0.000 C 
ATOM      2  F   UNL     1      44.819   7.571  11.203  0.00  0.00    +0.000 F 
ATOM      3  F   UNL     1      46.857   6.832  11.032  0.00  0.00    +0.000 F 
ENDROOT
BRANCH   1   4
ATOM      4  C   UNL     1      45.116   5.197  11.105  0.00  0.00    +0.000 A 
ATOM      5  C   UNL     1      43.961   4.644  11.671  0.00  0.00    +0.000 A 
ATOM      6  C   UNL     1      43.453   3.441  11.191  0.00  0.00    +0.000 A 
ATOM      7  C   UNL     1      44.084   2.788  10.129  0.00  0.00    +0.000 A 
ATOM      8  C   UNL     1      45.233   3.321   9.518  0.00  0.00    +0.000 A 
ATOM      9  C   UNL     1      45.746   4.522  10.043  0.00  0.00    +0.000 A 
BRANCH   8  10
ATOM     10  C   UNL     1      45.848   2.684   8.331  0.00  0.00    +0.000 A 
ATOM     11  C   UNL     1      46.243   1.338   8.332  0.00  0.00    +0.000 A 
ATOM     12  C   UNL     1      46.874   0.812   7.212  0.00  0.00    +0.000 A 
ATOM     13  N   UNL     1      47.129   1.515   6.094  0.00  0.00    +0.000 NA
ATOM     14  C   UNL     1      46.732   2.800   6.098  0.00  0.00    +0.000 A 
ATOM     15  F   UNL     1      46.975   3.528   4.998  0.00  0.00    +0.000 F 
ATOM     16  C   UNL     1      46.105   3.417   7.167  0.00  0.00    +0.000 A 
ENDBRANCH   8  10
ENDBRANCH   1   4
BRANCH   1  17
ATOM     17  C   UNL     1      45.755   6.547  13.124  0.00  0.00    +0.000 C 
BRANCH  17  22
ATOM     18  C   UNL     1      48.386   4.062  16.719  0.00  0.00    +0.000 A 
ATOM     19  C   UNL     1      47.345   3.614  15.915  0.00  0.00    +0.000 A 
ATOM     20  C   UNL     1      46.887   4.431  14.880  0.00  0.00    +0.000 A 
ATOM     21  C   UNL     1      47.466   5.679  14.672  0.00  0.00    +0.000 A 
ATOM     22  N   UNL     1      47.140   6.493  13.605  0.00  0.00    +0.000 N 
ATOM     23  N   UNL     1      48.451   6.138  15.470  0.00  0.00    +0.000 NA
ATOM     24  C   UNL     1      48.887   5.332  16.475  0.00  0.00    +0.000 A 
ATOM     25  H   UNL     1      47.601   7.395  13.728  0.00  0.00    +0.000 HD
BRANCH  18  27
ATOM     26  N   UNL     1      48.378   3.332  19.033  0.00  0.00    +0.000 N 
ATOM     27  C   UNL     1      48.969   3.243  17.801  0.00  0.00    +0.000 C 
ATOM     28  O   UNL     1      49.913   2.491  17.598  0.00  0.00    +0.000 OA
ATOM     29  H   UNL     1      48.716   2.682  19.737  0.00  0.00    +0.000 HD
ATOM     30  H   UNL     1      47.465   3.733  19.171  0.00  0.00    +0.000 HD
ENDBRANCH  18  27
ENDBRANCH  17  22
ENDBRANCH   1  17
TORSDOF 5
ENDMDL
MODEL 6
REMARK VINA RESULT:    -8.136      3.433      8.005
REMARK INTER + INTRA:         -11.373
REMARK INTER:                 -10.580
REMARK INTRA:                  -0.793
REMARK UNBOUND:                -0.859
REMARK  Name = 
REMARK  5 active torsions:
REMARK  status: ('A' for Active; 'I' for Inactive)
REMARK    1  A    between atoms: C_2  and  C_4
REMARK    2  A    between atoms: N_8  and  C_9
REMARK    3  A    between atoms: C_9  and  C_10
REMARK    4  A    between atoms: C_10  and  C_13
REMARK    5  A    between atoms: C_17  and  C_18
REMARK                            x       y       z     vdW  Elec       q    Type
REMARK                         _______ _______ _______ _____ _____    ______ ____
ROOT
ATOM      1  C   UNL     1      45.995   7.122  12.255  0.00  0.00    +0.000 C 
ATOM      2  F   UNL     1      45.235   7.863  13.117  0.00  0.00    +0.000 F 
ATOM      3  F   UNL     1      46.579   8.026  11.416  0.00  0.00    +0.000 F 
ENDROOT
BRANCH   1   4
ATOM      4  C   UNL     1      45.165   6.100  11.498  0.00  0.00    +0.000 A 
ATOM      5  C   UNL     1      43.775   6.054  11.654  0.00  0.00    +0.000 A 
ATOM      6  C   UNL     1      43.016   5.157  10.909  0.00  0.00    +0.000 A 
ATOM      7  C   UNL     1      43.638   4.309   9.988  0.00  0.00    +0.000 A 
ATOM      8  C   UNL     1      45.029   4.340   9.786  0.00  0.00    +0.000 A 
ATOM      9  C   UNL     1      45.777   5.233  10.574  0.00  0.00    +0.000 A 
BRANCH   8  10
ATOM     10  C   UNL     1      45.679   3.513   8.743  0.00  0.00    +0.000 A 
ATOM     11  C   UNL     1      46.238   4.078   7.588  0.00  0.00    +0.000 A 
ATOM     12  C   UNL     1      46.776   3.248   6.614  0.00  0.00    +0.000 A 
ATOM     13  N   UNL     1      46.812   1.906   6.705  0.00  0.00    +0.000 NA
ATOM     14  C   UNL     1      46.286   1.375   7.824  0.00  0.00    +0.000 A 
ATOM     15  F   UNL     1      46.303   0.039   7.944  0.00  0.00    +0.000 F 
ATOM     16  C   UNL     1      45.719   2.117   8.846  0.00  0.00    +0.000 A 
ENDBRANCH   8  10
ENDBRANCH   1   4
BRANCH   1  17
ATOM     17  C   UNL     1      47.097   6.397  13.075  0.00  0.00    +0.000 C 
BRANCH  17  22
ATOM     18  C   UNL     1      48.728   4.296  17.427  0.00  0.00    +0.000 A 
ATOM     19  C   UNL     1      48.983   5.557  16.902  0.00  0.00    +0.000 A 
ATOM     20  C   UNL     1      48.288   5.973  15.765  0.00  0.00    +0.000 A 
ATOM     21  C   UNL     1      47.362   5.122  15.168  0.00  0.00    +0.000 A 
ATOM     22  N   UNL     1      46.562   5.505  14.109  0.00  0.00    +0.000 N 
ATOM     23  N   UNL     1      47.136   3.884  15.647  0.00  0.00    +0.000 NA
ATOM     24  C   UNL     1      47.820   3.491  16.755  0.00  0.00    +0.000 A 
ATOM     25  H   UNL     1      46.056   4.687  13.770  0.00  0.00    +0.000 HD
BRANCH  18  27
ATOM     26  N   UNL     1      48.567   3.189  19.581  0.00  0.00    +0.000 N 
ATOM     27  C   UNL     1      49.375   3.795  18.656  0.00  0.00    +0.000 C 
ATOM     28  O   UNL     1      50.584   3.882  18.825  0.00  0.00    +0.000 OA
ATOM     29  H   UNL     1      49.038   2.751  20.367  0.00  0.00    +0.000 HD
ATOM     30  H   UNL     1      47.633   2.878  19.367  0.00  0.00    +0.000 HD
ENDBRANCH  18  27
ENDBRANCH  17  22
ENDBRANCH   1  17
TORSDOF 5
ENDMDL
MODEL 7
REMARK VINA RESULT:    -7.863      3.608      7.829
REMARK INTER + INTRA:         -11.020
REMARK INTER:                  -9.842
REMARK INTRA:                  -1.178
REMARK UNBOUND:                -0.859
REMARK  Name = 
REMARK  5 active torsions:
REMARK  status: ('A' for Active; 'I' for Inactive)
REMARK    1  A    between atoms: C_2  and  C_4
REMARK    2  A    between atoms: N_8  and  C_9
REMARK    3  A    between atoms: C_9  and  C_10
REMARK    4  A    between atoms: C_10  and  C_13
REMARK    5  A    between atoms: C_17  and  C_18
REMARK                            x       y       z     vdW  Elec       q    Type
REMARK                         _______ _______ _______ _____ _____    ______ ____
ROOT
ATOM      1  C   UNL     1      49.009   8.110  12.187  0.00  0.00    +0.000 C 
ATOM      2  F   UNL     1      49.411   9.148  11.393  0.00  0.00    +0.000 F 
ATOM      3  F   UNL     1      49.766   7.042  11.802  0.00  0.00    +0.000 F 
ENDROOT
BRANCH   1   4
ATOM      4  C   UNL     1      47.523   7.829  12.050  0.00  0.00    +0.000 A 
ATOM      5  C   UNL     1      46.577   8.770  12.474  0.00  0.00    +0.000 A 
ATOM      6  C   UNL     1      45.220   8.532  12.287  0.00  0.00    +0.000 A 
ATOM      7  C   UNL     1      44.794   7.359  11.658  0.00  0.00    +0.000 A 
ATOM      8  C   UNL     1      45.713   6.398  11.198  0.00  0.00    +0.000 A 
ATOM      9  C   UNL     1      47.079   6.648  11.428  0.00  0.00    +0.000 A 
BRANCH   8  10
ATOM     10  C   UNL     1      45.272   5.201  10.445  0.00  0.00    +0.000 A 
ATOM     11  C   UNL     1      44.517   4.184  11.045  0.00  0.00    +0.000 A 
ATOM     12  C   UNL     1      44.188   3.054  10.308  0.00  0.00    +0.000 A 
ATOM     13  N   UNL     1      44.540   2.865   9.023  0.00  0.00    +0.000 NA
ATOM     14  C   UNL     1      45.252   3.854   8.453  0.00  0.00    +0.000 A 
ATOM     15  F   UNL     1      45.621   3.695   7.173  0.00  0.00    +0.000 F 
ATOM     16  C   UNL     1      45.635   5.013   9.106  0.00  0.00    +0.000 A 
ENDBRANCH   8  10
ENDBRANCH   1   4
BRANCH   1  17
ATOM     17  C   UNL     1      49.339   8.467  13.662  0.00  0.00    +0.000 C 
BRANCH  17  22
ATOM     18  C   UNL     1      48.172   4.651  16.839  0.00  0.00    +0.000 A 
ATOM     19  C   UNL     1      47.465   5.144  15.749  0.00  0.00    +0.000 A 
ATOM     20  C   UNL     1      48.066   6.094  14.923  0.00  0.00    +0.000 A 
ATOM     21  C   UNL     1      49.353   6.544  15.204  0.00  0.00    +0.000 A 
ATOM     22  N   UNL     1      50.051   7.400  14.374  0.00  0.00    +0.000 N 
ATOM     23  N   UNL     1      50.032   6.100  16.280  0.00  0.00    +0.000 NA
ATOM     24  C   UNL     1      49.433   5.174  17.077  0.00  0.00    +0.000 A 
ATOM     25  H   UNL     1      50.914   7.677  14.842  0.00  0.00    +0.000 HD
BRANCH  18  27
ATOM     26  N   UNL     1      48.290   3.408  18.920  0.00  0.00    +0.000 N 
ATOM     27  C   UNL     1      47.635   3.605  17.734  0.00  0.00    +0.000 C 
ATOM     28  O   UNL     1      46.630   2.970  17.447  0.00  0.00    +0.000 OA
ATOM     29  H   UNL     1      47.847   2.768  19.573  0.00  0.00    +0.000 HD
ATOM     30  H   UNL     1      48.950   4.071  19.295  0.00  0.00    +0.000 HD
ENDBRANCH  18  27
ENDBRANCH  17  22
ENDBRANCH   1  17
TORSDOF 5
ENDMDL
MODEL 8
REMARK VINA RESULT:    -7.448      3.129      7.354
REMARK INTER + INTRA:         -10.484
REMARK INTER:                  -9.937
REMARK INTRA:                  -0.547
REMARK UNBOUND:                -0.859
REMARK  Name = 
REMARK  5 active torsions:
REMARK  status: ('A' for Active; 'I' for Inactive)
REMARK    1  A    between atoms: C_2  and  C_4
REMARK    2  A    between atoms: N_8  and  C_9
REMARK    3  A    between atoms: C_9  and  C_10
REMARK    4  A    between atoms: C_10  and  C_13
REMARK    5  A    between atoms: C_17  and  C_18
REMARK                            x       y       z     vdW  Elec       q    Type
REMARK                         _______ _______ _______ _____ _____    ______ ____
ROOT
ATOM      1  C   UNL     1      45.042   6.840  11.881  0.00  0.00    +0.000 C 
ATOM      2  F   UNL     1      44.854   7.058  13.218  0.00  0.00    +0.000 F 
ATOM      3  F   UNL     1      44.289   7.786  11.249  0.00  0.00    +0.000 F 
ENDROOT
BRANCH   1   4
ATOM      4  C   UNL     1      44.645   5.433  11.471  0.00  0.00    +0.000 A 
ATOM      5  C   UNL     1      43.576   4.783  12.099  0.00  0.00    +0.000 A 
ATOM      6  C   UNL     1      43.179   3.519  11.674  0.00  0.00    +0.000 A 
ATOM      7  C   UNL     1      43.833   2.901  10.606  0.00  0.00    +0.000 A 
ATOM      8  C   UNL     1      44.897   3.529   9.934  0.00  0.00    +0.000 A 
ATOM      9  C   UNL     1      45.300   4.793  10.404  0.00  0.00    +0.000 A 
BRANCH   8  10
ATOM     10  C   UNL     1      45.529   2.920   8.741  0.00  0.00    +0.000 A 
ATOM     11  C   UNL     1      45.868   1.561   8.693  0.00  0.00    +0.000 A 
ATOM     12  C   UNL     1      46.518   1.059   7.573  0.00  0.00    +0.000 A 
ATOM     13  N   UNL     1      46.844   1.800   6.499  0.00  0.00    +0.000 NA
ATOM     14  C   UNL     1      46.501   3.100   6.549  0.00  0.00    +0.000 A 
ATOM     15  F   UNL     1      46.816   3.866   5.494  0.00  0.00    +0.000 F 
ATOM     16  C   UNL     1      45.860   3.694   7.622  0.00  0.00    +0.000 A 
ENDBRANCH   8  10
ENDBRANCH   1   4
BRANCH   1  17
ATOM     17  C   UNL     1      46.542   7.076  11.554  0.00  0.00    +0.000 C 
BRANCH  17  22
ATOM     18  C   UNL     1      47.554   3.923  15.434  0.00  0.00    +0.000 A 
ATOM     19  C   UNL     1      47.292   3.632  14.101  0.00  0.00    +0.000 A 
ATOM     20  C   UNL     1      47.206   4.678  13.181  0.00  0.00    +0.000 A 
ATOM     21  C   UNL     1      47.370   5.992  13.607  0.00  0.00    +0.000 A 
ATOM     22  N   UNL     1      47.405   7.067  12.740  0.00  0.00    +0.000 N 
ATOM     23  N   UNL     1      47.587   6.287  14.904  0.00  0.00    +0.000 NA
ATOM     24  C   UNL     1      47.668   5.258  15.789  0.00  0.00    +0.000 A 
ATOM     25  H   UNL     1      47.416   7.928  13.288  0.00  0.00    +0.000 HD
BRANCH  18  27
ATOM     26  N   UNL     1      48.762   2.008  16.306  0.00  0.00    +0.000 N 
ATOM     27  C   UNL     1      47.716   2.877  16.464  0.00  0.00    +0.000 C 
ATOM     28  O   UNL     1      46.974   2.813  17.435  0.00  0.00    +0.000 OA
ATOM     29  H   UNL     1      48.930   1.367  17.075  0.00  0.00    +0.000 HD
ATOM     30  H   UNL     1      49.527   2.185  15.674  0.00  0.00    +0.000 HD
ENDBRANCH  18  27
ENDBRANCH  17  22
ENDBRANCH   1  17
TORSDOF 5
ENDMDL
MODEL 9
REMARK VINA RESULT:    -7.253      4.250      6.826
REMARK INTER + INTRA:         -10.231
REMARK INTER:                  -9.527
REMARK INTRA:                  -0.704
REMARK UNBOUND:                -0.859
REMARK  Name = 
REMARK  5 active torsions:
REMARK  status: ('A' for Active; 'I' for Inactive)
REMARK    1  A    between atoms: C_2  and  C_4
REMARK    2  A    between atoms: N_8  and  C_9
REMARK    3  A    between atoms: C_9  and  C_10
REMARK    4  A    between atoms: C_10  and  C_13
REMARK    5  A    between atoms: C_17  and  C_18
REMARK                            x       y       z     vdW  Elec       q    Type
REMARK                         _______ _______ _______ _____ _____    ______ ____
ROOT
ATOM      1  C   UNL     1      48.194   2.865  16.836  0.00  0.00    +0.000 C 
ATOM      2  F   UNL     1      47.321   2.627  17.861  0.00  0.00    +0.000 F 
ATOM      3  F   UNL     1      48.357   1.664  16.210  0.00  0.00    +0.000 F 
ENDROOT
BRANCH   1   4
ATOM      4  C   UNL     1      49.515   3.428  17.332  0.00  0.00    +0.000 A 
ATOM      5  C   UNL     1      49.607   4.757  17.762  0.00  0.00    +0.000 A 
ATOM      6  C   UNL     1      50.805   5.246  18.274  0.00  0.00    +0.000 A 
ATOM      7  C   UNL     1      51.918   4.407  18.376  0.00  0.00    +0.000 A 
ATOM      8  C   UNL     1      51.860   3.060  17.975  0.00  0.00    +0.000 A 
ATOM      9  C   UNL     1      50.647   2.599  17.432  0.00  0.00    +0.000 A 
BRANCH   8  10
ATOM     10  C   UNL     1      53.007   2.143  18.172  0.00  0.00    +0.000 A 
ATOM     11  C   UNL     1      54.031   2.420  19.089  0.00  0.00    +0.000 A 
ATOM     12  C   UNL     1      55.114   1.556  19.183  0.00  0.00    +0.000 A 
ATOM     13  N   UNL     1      55.249   0.438  18.448  0.00  0.00    +0.000 NA
ATOM     14  C   UNL     1      54.254   0.173  17.582  0.00  0.00    +0.000 A 
ATOM     15  F   UNL     1      54.362  -0.934  16.832  0.00  0.00    +0.000 F 
ATOM     16  C   UNL     1      53.140   0.976  17.409  0.00  0.00    +0.000 A 
ENDBRANCH   8  10
ENDBRANCH   1   4
BRANCH   1  17
ATOM     17  C   UNL     1      47.533   3.870  15.854  0.00  0.00    +0.000 C 
BRANCH  17  22
ATOM     18  C   UNL     1      44.560   4.774  11.810  0.00  0.00    +0.000 A 
ATOM     19  C   UNL     1      45.116   5.668  12.717  0.00  0.00    +0.000 A 
ATOM     20  C   UNL     1      46.038   5.198  13.654  0.00  0.00    +0.000 A 
ATOM     21  C   UNL     1      46.379   3.848  13.676  0.00  0.00    +0.000 A 
ATOM     22  N   UNL     1      47.361   3.333  14.500  0.00  0.00    +0.000 N 
ATOM     23  N   UNL     1      45.816   2.968  12.825  0.00  0.00    +0.000 NA
ATOM     24  C   UNL     1      44.919   3.440  11.918  0.00  0.00    +0.000 A 
ATOM     25  H   UNL     1      47.349   2.315  14.425  0.00  0.00    +0.000 HD
BRANCH  18  27
ATOM     26  N   UNL     1      43.857   4.721   9.488  0.00  0.00    +0.000 N 
ATOM     27  C   UNL     1      43.619   5.193  10.751  0.00  0.00    +0.000 C 
ATOM     28  O   UNL     1      42.649   5.898  10.997  0.00  0.00    +0.000 OA
ATOM     29  H   UNL     1      43.143   4.923   8.794  0.00  0.00    +0.000 HD
ATOM     30  H   UNL     1      44.480   3.951   9.302  0.00  0.00    +0.000 HD
ENDBRANCH  18  27
ENDBRANCH  17  22
ENDBRANCH   1  17
TORSDOF 5
ENDMDL
