MODEL 1
REMARK VINA RESULT:    -7.767      0.000      0.000
REMARK INTER + INTRA:         -10.014
REMARK INTER:                  -9.583
REMARK INTRA:                  -0.431
REMARK UNBOUND:                -0.431
REMARK  Name = 
REMARK  4 active torsions:
REMARK  status: ('A' for Active; 'I' for Inactive)
REMARK    1  A    between atoms: C_2  and  C_4
REMARK    2  A    between atoms: C_7  and  N_8
REMARK    3  A    between atoms: N_8  and  C_9
REMARK    4  A    between atoms: C_9  and  C_10
REMARK                            x       y       z     vdW  Elec       q    Type
REMARK                         _______ _______ _______ _____ _____    ______ ____
ROOT
ATOM      1  C   UNL     1      46.322   2.277   7.805  0.00  0.00    +0.000 A 
ATOM      2  C   UNL     1      45.425   1.702   8.710  0.00  0.00    +0.000 A 
ATOM      3  C   UNL     1      44.559   2.513   9.450  0.00  0.00    +0.000 A 
ATOM      4  C   UNL     1      44.584   3.906   9.319  0.00  0.00    +0.000 A 
ATOM      5  C   UNL     1      45.443   4.462   8.363  0.00  0.00    +0.000 A 
ATOM      6  C   UNL     1      46.326   3.663   7.629  0.00  0.00    +0.000 A 
ENDROOT
BRANCH   1   8
ATOM      7  N   UNL     1      48.419   2.100   6.579  0.00  0.00    +0.000 N 
ATOM      8  C   UNL     1      47.306   1.460   7.050  0.00  0.00    +0.000 C 
ATOM      9  O   UNL     1      47.149   0.259   6.876  0.00  0.00    +0.000 OA
ATOM     10  H   UNL     1      49.123   1.513   6.150  0.00  0.00    +0.000 HD
ATOM     11  H   UNL     1      48.703   3.009   6.914  0.00  0.00    +0.000 HD
ENDBRANCH   1   8
BRANCH   4  12
ATOM     12  N   UNL     1      43.766   4.773  10.044  0.00  0.00    +0.000 N 
ATOM     13  H   UNL     1      42.868   4.938   9.588  0.00  0.00    +0.000 HD
BRANCH  12  14
ATOM     14  C   UNL     1      43.576   4.524  11.481  0.00  0.00    +0.000 C 
BRANCH  14  15
ATOM     15  C   UNL     1      44.829   4.822  12.289  0.00  0.00    +0.000 A 
ATOM     16  N   UNL     1      45.442   3.791  12.917  0.00  0.00    +0.000 NA
ATOM     17  C   UNL     1      46.572   4.087  13.587  0.00  0.00    +0.000 A 
ATOM     18  C   UNL     1      47.123   5.347  13.631  0.00  0.00    +0.000 A 
ATOM     19  C   UNL     1      46.442   6.318  12.939  0.00  0.00    +0.000 A 
ATOM     20  N   UNL     1      45.305   6.086  12.258  0.00  0.00    +0.000 NA
ENDBRANCH  14  15
ENDBRANCH  12  14
ENDBRANCH   4  12
TORSDOF 4
ENDMDL
MODEL 2
REMARK VINA RESULT:    -6.878      2.904      6.034
REMARK INTER + INTRA:          -8.917
REMARK INTER:                  -8.601
REMARK INTRA:                  -0.317
REMARK UNBOUND:                -0.431
REMARK  Name = 
REMARK  4 active torsions:
REMARK  status: ('A' for Active; 'I' for Inactive)
REMARK    1  A    between atoms: C_2  and  C_4
REMARK    2  A    between atoms: C_7  and  N_8
REMARK    3  A    between atoms: N_8  and  C_9
REMARK    4  A    between atoms: C_9  and  C_10
REMARK                            x       y       z     vdW  Elec       q    Type
REMARK                         _______ _______ _______ _____ _____    ______ ____
ROOT
ATOM      1  C   UNL     1      46.576   4.766  13.649  0.00  0.00    +0.000 A 
ATOM      2  C   UNL     1      45.836   3.725  13.084  0.00  0.00    +0.000 A 
ATOM      3  C   UNL     1      45.280   3.871  11.808  0.00  0.00    +0.000 A 
ATOM      4  C   UNL     1      45.434   5.059  11.085  0.00  0.00    +0.000 A 
ATOM      5  C   UNL     1      46.232   6.068  11.638  0.00  0.00    +0.000 A 
ATOM      6  C   UNL     1      46.778   5.940  12.919  0.00  0.00    +0.000 A 
ENDROOT
BRANCH   1   8
ATOM      7  N   UNL     1      47.845   5.750  15.481  0.00  0.00    +0.000 N 
ATOM      8  C   UNL     1      47.126   4.679  15.027  0.00  0.00    +0.000 C 
ATOM      9  O   UNL     1      46.924   3.706  15.741  0.00  0.00    +0.000 OA
ATOM     10  H   UNL     1      48.132   5.716  16.451  0.00  0.00    +0.000 HD
ATOM     11  H   UNL     1      47.817   6.652  15.029  0.00  0.00    +0.000 HD
ENDBRANCH   1   8
BRANCH   4  12
ATOM     12  N   UNL     1      44.886   5.280   9.822  0.00  0.00    +0.000 N 
ATOM     13  H   UNL     1      45.512   5.806   9.209  0.00  0.00    +0.000 HD
BRANCH  12  14
ATOM     14  C   UNL     1      44.296   4.142   9.102  0.00  0.00    +0.000 C 
BRANCH  14  15
ATOM     15  C   UNL     1      45.336   3.351   8.324  0.00  0.00    +0.000 A 
ATOM     16  N   UNL     1      46.101   4.016   7.426  0.00  0.00    +0.000 NA
ATOM     17  C   UNL     1      47.039   3.290   6.788  0.00  0.00    +0.000 A 
ATOM     18  C   UNL     1      47.261   1.954   7.027  0.00  0.00    +0.000 A 
ATOM     19  C   UNL     1      46.452   1.377   7.976  0.00  0.00    +0.000 A 
ATOM     20  N   UNL     1      45.494   2.047   8.641  0.00  0.00    +0.000 NA
ENDBRANCH  14  15
ENDBRANCH  12  14
ENDBRANCH   4  12
TORSDOF 4
ENDMDL
MODEL 3
REMARK VINA RESULT:    -6.842      2.811      6.166
REMARK INTER + INTRA:          -8.873
REMARK INTER:                  -8.527
REMARK INTRA:                  -0.347
REMARK UNBOUND:                -0.431
REMARK  Name = 
REMARK  4 active torsions:
REMARK  status: ('A' for Active; 'I' for Inactive)
REMARK    1  A    between atoms: C_2  and  C_4
REMARK    2  A    between atoms: C_7  and  N_8
REMARK    3  A    between atoms: N_8  and  C_9
REMARK    4  A    between atoms: C_9  and  C_10
REMARK                            x       y       z     vdW  Elec       q    Type
REMARK                         _______ _______ _______ _____ _____    ______ ____
ROOT
ATOM      1  C   UNL     1      46.598   5.699  12.837  0.00  0.00    +0.000 A 
ATOM      2  C   UNL     1      46.413   6.361  11.620  0.00  0.00    +0.000 A 
ATOM      3  C   UNL     1      45.620   5.786  10.622  0.00  0.00    +0.000 A 
ATOM      4  C   UNL     1      45.017   4.537  10.809  0.00  0.00    +0.000 A 
ATOM      5  C   UNL     1      45.160   3.917  12.056  0.00  0.00    +0.000 A 
ATOM      6  C   UNL     1      45.963   4.474  13.055  0.00  0.00    +0.000 A 
ENDROOT
BRANCH   1   8
ATOM      7  N   UNL     1      47.476   7.596  14.087  0.00  0.00    +0.000 N 
ATOM      8  C   UNL     1      47.486   6.242  13.897  0.00  0.00    +0.000 C 
ATOM      9  O   UNL     1      48.179   5.513  14.594  0.00  0.00    +0.000 OA
ATOM     10  H   UNL     1      48.013   7.941  14.873  0.00  0.00    +0.000 HD
ATOM     11  H   UNL     1      46.747   8.190  13.718  0.00  0.00    +0.000 HD
ENDBRANCH   1   8
BRANCH   4  12
ATOM     12  N   UNL     1      44.237   3.896   9.846  0.00  0.00    +0.000 N 
ATOM     13  H   UNL     1      44.140   4.445   8.991  0.00  0.00    +0.000 HD
BRANCH  12  14
ATOM     14  C   UNL     1      44.528   2.491   9.526  0.00  0.00    +0.000 C 
BRANCH  14  15
ATOM     15  C   UNL     1      45.518   2.354   8.379  0.00  0.00    +0.000 A 
ATOM     16  N   UNL     1      45.691   3.416   7.558  0.00  0.00    +0.000 NA
ATOM     17  C   UNL     1      46.607   3.272   6.581  0.00  0.00    +0.000 A 
ATOM     18  C   UNL     1      47.366   2.138   6.411  0.00  0.00    +0.000 A 
ATOM     19  C   UNL     1      47.136   1.127   7.313  0.00  0.00    +0.000 A 
ATOM     20  N   UNL     1      46.231   1.209   8.304  0.00  0.00    +0.000 NA
ENDBRANCH  14  15
ENDBRANCH  12  14
ENDBRANCH   4  12
TORSDOF 4
ENDMDL
MODEL 4
REMARK VINA RESULT:    -6.727      3.127      6.314
REMARK INTER + INTRA:          -8.731
REMARK INTER:                  -8.449
REMARK INTRA:                  -0.281
REMARK UNBOUND:                -0.431
REMARK  Name = 
REMARK  4 active torsions:
REMARK  status: ('A' for Active; 'I' for Inactive)
REMARK    1  A    between atoms: C_2  and  C_4
REMARK    2  A    between atoms: C_7  and  N_8
REMARK    3  A    between atoms: N_8  and  C_9
REMARK    4  A    between atoms: C_9  and  C_10
REMARK                            x       y       z     vdW  Elec       q    Type
REMARK                         _______ _______ _______ _____ _____    ______ ____
ROOT
ATOM      1  C   UNL     1      45.663   6.710  12.455  0.00  0.00    +0.000 A 
ATOM      2  C   UNL     1      45.849   5.587  13.266  0.00  0.00    +0.000 A 
ATOM      3  C   UNL     1      45.621   4.305  12.754  0.00  0.00    +0.000 A 
ATOM      4  C   UNL     1      45.186   4.121  11.437  0.00  0.00    +0.000 A 
ATOM      5  C   UNL     1      45.066   5.250  10.618  0.00  0.00    +0.000 A 
ATOM      6  C   UNL     1      45.275   6.538  11.124  0.00  0.00    +0.000 A 
ENDROOT
BRANCH   1   8
ATOM      7  N   UNL     1      46.780   8.284  13.940  0.00  0.00    +0.000 N 
ATOM      8  C   UNL     1      45.828   8.090  12.977  0.00  0.00    +0.000 C 
ATOM      9  O   UNL     1      45.164   9.025  12.551  0.00  0.00    +0.000 OA
ATOM     10  H   UNL     1      46.946   9.243  14.218  0.00  0.00    +0.000 HD
ATOM     11  H   UNL     1      47.505   7.607  14.128  0.00  0.00    +0.000 HD
ENDBRANCH   1   8
BRANCH   4  12
ATOM     12  N   UNL     1      44.915   2.874  10.872  0.00  0.00    +0.000 N 
ATOM     13  H   UNL     1      44.334   2.289  11.474  0.00  0.00    +0.000 HD
BRANCH  12  14
ATOM     14  C   UNL     1      44.436   2.820   9.483  0.00  0.00    +0.000 C 
BRANCH  14  15
ATOM     15  C   UNL     1      45.533   2.419   8.509  0.00  0.00    +0.000 A 
ATOM     16  N   UNL     1      46.143   3.398   7.800  0.00  0.00    +0.000 NA
ATOM     17  C   UNL     1      47.138   3.009   6.981  0.00  0.00    +0.000 A 
ATOM     18  C   UNL     1      47.563   1.706   6.863  0.00  0.00    +0.000 A 
ATOM     19  C   UNL     1      46.899   0.792   7.644  0.00  0.00    +0.000 A 
ATOM     20  N   UNL     1      45.893   1.118   8.476  0.00  0.00    +0.000 NA
ENDBRANCH  14  15
ENDBRANCH  12  14
ENDBRANCH   4  12
TORSDOF 4
ENDMDL
MODEL 5
REMARK VINA RESULT:    -5.631      3.510      5.532
REMARK INTER + INTRA:          -7.379
REMARK INTER:                  -7.068
REMARK INTRA:                  -0.311
REMARK UNBOUND:                -0.431
REMARK  Name = 
REMARK  4 active torsions:
REMARK  status: ('A' for Active; 'I' for Inactive)
REMARK    1  A    between atoms: C_2  and  C_4
REMARK    2  A    between atoms: C_7  and  N_8
REMARK    3  A    between atoms: N_8  and  C_9
REMARK    4  A    between atoms: C_9  and  C_10
REMARK                            x       y       z     vdW  Elec       q    Type
REMARK                         _______ _______ _______ _____ _____    ______ ____
ROOT
ATOM      1  C   UNL     1      45.237   4.259  11.399  0.00  0.00    +0.000 A 
ATOM      2  C   UNL     1      45.697   5.571  11.540  0.00  0.00    +0.000 A 
ATOM      3  C   UNL     1      46.430   5.940  12.673  0.00  0.00    +0.000 A 
ATOM      4  C   UNL     1      46.699   5.018  13.691  0.00  0.00    +0.000 A 
ATOM      5  C   UNL     1      46.287   3.693  13.505  0.00  0.00    +0.000 A 
ATOM      6  C   UNL     1      45.539   3.317  12.385  0.00  0.00    +0.000 A 
ENDROOT
BRANCH   1   8
ATOM      7  N   UNL     1      43.786   4.834   9.529  0.00  0.00    +0.000 N 
ATOM      8  C   UNL     1      44.398   3.843  10.246  0.00  0.00    +0.000 C 
ATOM      9  O   UNL     1      44.276   2.668   9.928  0.00  0.00    +0.000 OA
ATOM     10  H   UNL     1      43.296   4.542   8.693  0.00  0.00    +0.000 HD
ATOM     11  H   UNL     1      44.061   5.803   9.601  0.00  0.00    +0.000 HD
ENDBRANCH   1   8
BRANCH   4  12
ATOM     12  N   UNL     1      47.401   5.326  14.856  0.00  0.00    +0.000 N 
ATOM     13  H   UNL     1      47.306   6.307  15.124  0.00  0.00    +0.000 HD
BRANCH  12  14
ATOM     14  C   UNL     1      47.235   4.455  16.028  0.00  0.00    +0.000 C 
BRANCH  14  15
ATOM     15  C   UNL     1      48.559   3.892  16.521  0.00  0.00    +0.000 A 
ATOM     16  N   UNL     1      49.430   4.741  17.116  0.00  0.00    +0.000 NA
ATOM     17  C   UNL     1      50.572   4.198  17.577  0.00  0.00    +0.000 A 
ATOM     18  C   UNL     1      50.865   2.856  17.496  0.00  0.00    +0.000 A 
ATOM     19  C   UNL     1      49.906   2.074  16.900  0.00  0.00    +0.000 A 
ATOM     20  N   UNL     1      48.749   2.559  16.414  0.00  0.00    +0.000 NA
ENDBRANCH  14  15
ENDBRANCH  12  14
ENDBRANCH   4  12
TORSDOF 4
ENDMDL
MODEL 6
REMARK VINA RESULT:    -5.448      3.442      6.614
REMARK INTER + INTRA:          -7.153
REMARK INTER:                  -6.903
REMARK INTRA:                  -0.251
REMARK UNBOUND:                -0.431
REMARK  Name = 
REMARK  4 active torsions:
REMARK  status: ('A' for Active; 'I' for Inactive)
REMARK    1  A    between atoms: C_2  and  C_4
REMARK    2  A    between atoms: C_7  and  N_8
REMARK    3  A    between atoms: N_8  and  C_9
REMARK    4  A    between atoms: C_9  and  C_10
REMARK                            x       y       z     vdW  Elec       q    Type
REMARK                         _______ _______ _______ _____ _____    ______ ____
ROOT
ATOM      1  C   UNL     1      47.533   7.541  13.719  0.00  0.00    +0.000 A 
ATOM      2  C   UNL     1      46.565   8.448  13.278  0.00  0.00    +0.000 A 
ATOM      3  C   UNL     1      45.686   8.092  12.250  0.00  0.00    +0.000 A 
ATOM      4  C   UNL     1      45.767   6.839  11.632  0.00  0.00    +0.000 A 
ATOM      5  C   UNL     1      46.699   5.919  12.128  0.00  0.00    +0.000 A 
ATOM      6  C   UNL     1      47.595   6.270  13.143  0.00  0.00    +0.000 A 
ENDROOT
BRANCH   1   8
ATOM      7  N   UNL     1      48.335   7.394  16.014  0.00  0.00    +0.000 N 
ATOM      8  C   UNL     1      48.530   7.903  14.759  0.00  0.00    +0.000 C 
ATOM      9  O   UNL     1      49.501   8.602  14.506  0.00  0.00    +0.000 OA
ATOM     10  H   UNL     1      49.070   7.571  16.686  0.00  0.00    +0.000 HD
ATOM     11  H   UNL     1      47.705   6.626  16.195  0.00  0.00    +0.000 HD
ENDBRANCH   1   8
BRANCH   4  12
ATOM     12  N   UNL     1      44.940   6.430  10.586  0.00  0.00    +0.000 N 
ATOM     13  H   UNL     1      45.337   6.635   9.668  0.00  0.00    +0.000 HD
BRANCH  12  14
ATOM     14  C   UNL     1      44.390   5.067  10.616  0.00  0.00    +0.000 C 
BRANCH  14  15
ATOM     15  C   UNL     1      45.057   4.154   9.598  0.00  0.00    +0.000 A 
ATOM     16  N   UNL     1      44.885   2.818   9.733  0.00  0.00    +0.000 NA
ATOM     17  C   UNL     1      45.454   2.045   8.789  0.00  0.00    +0.000 A 
ATOM     18  C   UNL     1      46.154   2.545   7.716  0.00  0.00    +0.000 A 
ATOM     19  C   UNL     1      46.250   3.913   7.653  0.00  0.00    +0.000 A 
ATOM     20  N   UNL     1      45.708   4.737   8.569  0.00  0.00    +0.000 NA
ENDBRANCH  14  15
ENDBRANCH  12  14
ENDBRANCH   4  12
TORSDOF 4
ENDMDL
MODEL 7
REMARK VINA RESULT:    -5.358      4.972      7.994
REMARK INTER + INTRA:          -7.042
REMARK INTER:                  -6.754
REMARK INTRA:                  -0.288
REMARK UNBOUND:                -0.431
REMARK  Name = 
REMARK  4 active torsions:
REMARK  status: ('A' for Active; 'I' for Inactive)
REMARK    1  A    between atoms: C_2  and  C_4
REMARK    2  A    between atoms: C_7  and  N_8
REMARK    3  A    between atoms: N_8  and  C_9
REMARK    4  A    between atoms: C_9  and  C_10
REMARK                            x       y       z     vdW  Elec       q    Type
REMARK                         _______ _______ _______ _____ _____    ______ ____
ROOT
ATOM      1  C   UNL     1      50.395   2.752  17.395  0.00  0.00    +0.000 A 
ATOM      2  C   UNL     1      50.277   4.135  17.556  0.00  0.00    +0.000 A 
ATOM      3  C   UNL     1      49.160   4.808  17.052  0.00  0.00    +0.000 A 
ATOM      4  C   UNL     1      48.154   4.122  16.362  0.00  0.00    +0.000 A 
ATOM      5  C   UNL     1      48.255   2.729  16.264  0.00  0.00    +0.000 A 
ATOM      6  C   UNL     1      49.376   2.047  16.750  0.00  0.00    +0.000 A 
ENDROOT
BRANCH   1   8
ATOM      7  N   UNL     1      51.549   0.644  17.786  0.00  0.00    +0.000 N 
ATOM      8  C   UNL     1      51.596   2.009  17.854  0.00  0.00    +0.000 C 
ATOM      9  O   UNL     1      52.599   2.586  18.252  0.00  0.00    +0.000 OA
ATOM     10  H   UNL     1      52.406   0.155  18.013  0.00  0.00    +0.000 HD
ATOM     11  H   UNL     1      50.858   0.152  17.239  0.00  0.00    +0.000 HD
ENDBRANCH   1   8
BRANCH   4  12
ATOM     12  N   UNL     1      47.028   4.735  15.812  0.00  0.00    +0.000 N 
ATOM     13  H   UNL     1      46.627   5.444  16.428  0.00  0.00    +0.000 HD
BRANCH  12  14
ATOM     14  C   UNL     1      47.103   5.235  14.431  0.00  0.00    +0.000 C 
BRANCH  14  15
ATOM     15  C   UNL     1      45.903   4.810  13.598  0.00  0.00    +0.000 A 
ATOM     16  N   UNL     1      44.974   5.747  13.297  0.00  0.00    +0.000 NA
ATOM     17  C   UNL     1      43.949   5.344  12.522  0.00  0.00    +0.000 A 
ATOM     18  C   UNL     1      43.830   4.068  12.020  0.00  0.00    +0.000 A 
ATOM     19  C   UNL     1      44.838   3.199  12.360  0.00  0.00    +0.000 A 
ATOM     20  N   UNL     1      45.883   3.541  13.135  0.00  0.00    +0.000 NA
ENDBRANCH  14  15
ENDBRANCH  12  14
ENDBRANCH   4  12
TORSDOF 4
ENDMDL
MODEL 8
REMARK VINA RESULT:    -5.319      3.422      5.154
REMARK INTER + INTRA:          -6.993
REMARK INTER:                  -6.697
REMARK INTRA:                  -0.296
REMARK UNBOUND:                -0.431
REMARK  Name = 
REMARK  4 active torsions:
REMARK  status: ('A' for Active; 'I' for Inactive)
REMARK    1  A    between atoms: C_2  and  C_4
REMARK    2  A    between atoms: C_7  and  N_8
REMARK    3  A    between atoms: N_8  and  C_9
REMARK    4  A    between atoms: C_9  and  C_10
REMARK                            x       y       z     vdW  Elec       q    Type
REMARK                         _______ _______ _______ _____ _____    ______ ____
ROOT
ATOM      1  C   UNL     1      44.976   4.067  11.548  0.00  0.00    +0.000 A 
ATOM      2  C   UNL     1      45.310   5.253  10.888  0.00  0.00    +0.000 A 
ATOM      3  C   UNL     1      46.009   6.259  11.563  0.00  0.00    +0.000 A 
ATOM      4  C   UNL     1      46.368   6.111  12.907  0.00  0.00    +0.000 A 
ATOM      5  C   UNL     1      46.083   4.893  13.535  0.00  0.00    +0.000 A 
ATOM      6  C   UNL     1      45.370   3.887  12.876  0.00  0.00    +0.000 A 
ENDROOT
BRANCH   1   8
ATOM      7  N   UNL     1      44.770   2.318   9.865  0.00  0.00    +0.000 N 
ATOM      8  C   UNL     1      44.176   3.003  10.890  0.00  0.00    +0.000 C 
ATOM      9  O   UNL     1      43.044   2.724  11.260  0.00  0.00    +0.000 OA
ATOM     10  H   UNL     1      44.249   1.535   9.490  0.00  0.00    +0.000 HD
ATOM     11  H   UNL     1      45.766   2.342   9.704  0.00  0.00    +0.000 HD
ENDBRANCH   1   8
BRANCH   4  12
ATOM     12  N   UNL     1      47.042   7.084  13.645  0.00  0.00    +0.000 N 
ATOM     13  H   UNL     1      46.538   7.353  14.492  0.00  0.00    +0.000 HD
BRANCH  12  14
ATOM     14  C   UNL     1      48.469   6.883  13.938  0.00  0.00    +0.000 C 
BRANCH  14  15
ATOM     15  C   UNL     1      48.734   6.711  15.426  0.00  0.00    +0.000 A 
ATOM     16  N   UNL     1      48.766   5.454  15.926  0.00  0.00    +0.000 NA
ATOM     17  C   UNL     1      49.046   5.340  17.238  0.00  0.00    +0.000 A 
ATOM     18  C   UNL     1      49.320   6.413  18.054  0.00  0.00    +0.000 A 
ATOM     19  C   UNL     1      49.290   7.645  17.446  0.00  0.00    +0.000 A 
ATOM     20  N   UNL     1      49.010   7.823  16.142  0.00  0.00    +0.000 NA
ENDBRANCH  14  15
ENDBRANCH  12  14
ENDBRANCH   4  12
TORSDOF 4
ENDMDL
MODEL 9
REMARK VINA RESULT:    -5.231      4.824      8.139
REMARK INTER + INTRA:          -6.885
REMARK INTER:                  -6.686
REMARK INTRA:                  -0.199
REMARK UNBOUND:                -0.431
REMARK  Name = 
REMARK  4 active torsions:
REMARK  status: ('A' for Active; 'I' for Inactive)
REMARK    1  A    between atoms: C_2  and  C_4
REMARK    2  A    between atoms: C_7  and  N_8
REMARK    3  A    between atoms: N_8  and  C_9
REMARK    4  A    between atoms: C_9  and  C_10
REMARK                            x       y       z     vdW  Elec       q    Type
REMARK                         _______ _______ _______ _____ _____    ______ ____
ROOT
ATOM      1  C   UNL     1      49.921   4.130  17.742  0.00  0.00    +0.000 A 
ATOM      2  C   UNL     1      49.460   5.379  17.316  0.00  0.00    +0.000 A 
ATOM      3  C   UNL     1      48.318   5.469  16.513  0.00  0.00    +0.000 A 
ATOM      4  C   UNL     1      47.629   4.321  16.105  0.00  0.00    +0.000 A 
ATOM      5  C   UNL     1      48.066   3.083  16.593  0.00  0.00    +0.000 A 
ATOM      6  C   UNL     1      49.216   2.979  17.382  0.00  0.00    +0.000 A 
ENDROOT
BRANCH   1   8
ATOM      7  N   UNL     1      51.133   4.415  19.835  0.00  0.00    +0.000 N 
ATOM      8  C   UNL     1      51.167   3.984  18.537  0.00  0.00    +0.000 C 
ATOM      9  O   UNL     1      52.176   3.476  18.069  0.00  0.00    +0.000 OA
ATOM     10  H   UNL     1      51.957   4.224  20.391  0.00  0.00    +0.000 HD
ATOM     11  H   UNL     1      50.268   4.599  20.323  0.00  0.00    +0.000 HD
ENDBRANCH   1   8
BRANCH   4  12
ATOM     12  N   UNL     1      46.501   4.338  15.286  0.00  0.00    +0.000 N 
ATOM     13  H   UNL     1      45.774   4.967  15.632  0.00  0.00    +0.000 HD
BRANCH  12  14
ATOM     14  C   UNL     1      46.685   4.513  13.838  0.00  0.00    +0.000 C 
BRANCH  14  15
ATOM     15  C   UNL     1      45.374   4.411  13.073  0.00  0.00    +0.000 A 
ATOM     16  N   UNL     1      44.943   3.180  12.711  0.00  0.00    +0.000 NA
ATOM     17  C   UNL     1      43.758   3.126  12.074  0.00  0.00    +0.000 A 
ATOM     18  C   UNL     1      42.983   4.232  11.812  0.00  0.00    +0.000 A 
ATOM     19  C   UNL     1      43.495   5.432  12.243  0.00  0.00    +0.000 A 
ATOM     20  N   UNL     1      44.675   5.550  12.878  0.00  0.00    +0.000 NA
ENDBRANCH  14  15
ENDBRANCH  12  14
ENDBRANCH   4  12
TORSDOF 4
ENDMDL
