MODEL 1
REMARK VINA RESULT:    -8.609      0.000      0.000
REMARK INTER + INTRA:         -12.191
REMARK INTER:                 -11.881
REMARK INTRA:                  -0.310
REMARK UNBOUND:                -0.310
REMARK  Name = 
REMARK  7 active torsions:
REMARK  status: ('A' for Active; 'I' for Inactive)
REMARK    1  A    between atoms: N_1  and  C_2
REMARK    2  A    between atoms: C_2  and  C_3
REMARK    3  A    between atoms: C_3  and  O_4
REMARK    4  A    between atoms: O_4  and  C_5
REMARK    5  A    between atoms: C_8  and  C_9
REMARK    6  A    between atoms: C_9  and  N_10
REMARK    7  A    between atoms: C_15  and  C_16
REMARK                            x       y       z     vdW  Elec       q    Type
REMARK                         _______ _______ _______ _____ _____    ______ ____
ROOT
ATOM      1  N   UNL     1      44.302   4.700  10.426  0.00  0.00    +0.000 N 
ATOM      2  C   UNL     1      43.466   3.777  10.998  0.00  0.00    +0.000 A 
ATOM      3  N   UNL     1      43.622   2.583  10.476  0.00  0.00    +0.000 NA
ATOM      4  C   UNL     1      44.589   2.735   9.518  0.00  0.00    +0.000 A 
ATOM      5  C   UNL     1      45.244   1.756   8.762  0.00  0.00    +0.000 A 
ATOM      6  C   UNL     1      46.262   2.138   7.874  0.00  0.00    +0.000 A 
ATOM      7  C   UNL     1      46.523   3.501   7.660  0.00  0.00    +0.000 A 
ATOM      8  C   UNL     1      45.872   4.498   8.409  0.00  0.00    +0.000 A 
ATOM      9  C   UNL     1      44.956   4.072   9.380  0.00  0.00    +0.000 A 
ENDROOT
BRANCH   6  10
ATOM     10  C   UNL     1      47.075   1.036   7.278  0.00  0.00    +0.000 C 
ATOM     11  N   UNL     1      46.802  -0.255   7.627  0.00  0.00    +0.000 N 
ATOM     12  O   UNL     1      47.947   1.260   6.446  0.00  0.00    +0.000 OA
ATOM     13  H   UNL     1      46.110  -0.551   8.295  0.00  0.00    +0.000 HD
ATOM     14  H   UNL     1      47.330  -0.970   7.141  0.00  0.00    +0.000 HD
ENDBRANCH   6  10
BRANCH   1  15
ATOM     15  C   UNL     1      44.748   5.933  11.069  0.00  0.00    +0.000 C 
BRANCH  15  19
ATOM     16  C   UNL     1      47.557   5.434  14.334  0.00  0.00    +0.000 A 
ATOM     17  C   UNL     1      47.858   6.291  13.278  0.00  0.00    +0.000 A 
ATOM     18  C   UNL     1      46.952   6.448  12.220  0.00  0.00    +0.000 A 
ATOM     19  C   UNL     1      45.734   5.746  12.195  0.00  0.00    +0.000 A 
ATOM     20  C   UNL     1      45.442   4.888  13.259  0.00  0.00    +0.000 A 
ATOM     21  C   UNL     1      46.350   4.738  14.313  0.00  0.00    +0.000 A 
BRANCH  16  22
ATOM     22  O   UNL     1      48.353   5.155  15.407  0.00  0.00    +0.000 OA
BRANCH  22  23
ATOM     23  C   UNL     1      47.717   4.951  16.672  0.00  0.00    +0.000 C 
BRANCH  23  24
ATOM     24  C   UNL     1      47.947   3.486  17.074  0.00  0.00    +0.000 C 
BRANCH  24  25
ATOM     25  N   UNL     1      46.765   2.868  17.671  0.00  0.00    +0.000 NA
ATOM     26  H   UNL     1      46.643   3.240  18.614  0.00  0.00    +0.000 HD
ATOM     27  H   UNL     1      46.925   1.866  17.788  0.00  0.00    +0.000 HD
ENDBRANCH  24  25
ENDBRANCH  23  24
ENDBRANCH  22  23
ENDBRANCH  16  22
ENDBRANCH  15  19
ENDBRANCH   1  15
TORSDOF 7
ENDMDL
MODEL 2
REMARK VINA RESULT:    -8.584      1.929      2.110
REMARK INTER + INTRA:         -12.157
REMARK INTER:                 -11.343
REMARK INTRA:                  -0.814
REMARK UNBOUND:                -0.310
REMARK  Name = 
REMARK  7 active torsions:
REMARK  status: ('A' for Active; 'I' for Inactive)
REMARK    1  A    between atoms: N_1  and  C_2
REMARK    2  A    between atoms: C_2  and  C_3
REMARK    3  A    between atoms: C_3  and  O_4
REMARK    4  A    between atoms: O_4  and  C_5
REMARK    5  A    between atoms: C_8  and  C_9
REMARK    6  A    between atoms: C_9  and  N_10
REMARK    7  A    between atoms: C_15  and  C_16
REMARK                            x       y       z     vdW  Elec       q    Type
REMARK                         _______ _______ _______ _____ _____    ______ ____
ROOT
ATOM      1  N   UNL     1      43.937   4.387  10.554  0.00  0.00    +0.000 N 
ATOM      2  C   UNL     1      43.379   3.294  11.163  0.00  0.00    +0.000 A 
ATOM      3  N   UNL     1      43.780   2.170  10.617  0.00  0.00    +0.000 NA
ATOM      4  C   UNL     1      44.623   2.544   9.605  0.00  0.00    +0.000 A 
ATOM      5  C   UNL     1      45.442   1.746   8.799  0.00  0.00    +0.000 A 
ATOM      6  C   UNL     1      46.285   2.356   7.856  0.00  0.00    +0.000 A 
ATOM      7  C   UNL     1      46.203   3.741   7.644  0.00  0.00    +0.000 A 
ATOM      8  C   UNL     1      45.383   4.558   8.444  0.00  0.00    +0.000 A 
ATOM      9  C   UNL     1      44.654   3.930   9.462  0.00  0.00    +0.000 A 
ENDROOT
BRANCH   6  10
ATOM     10  C   UNL     1      47.296   1.476   7.197  0.00  0.00    +0.000 C 
ATOM     11  N   UNL     1      48.389   2.044   6.609  0.00  0.00    +0.000 N 
ATOM     12  O   UNL     1      47.193   0.255   7.216  0.00  0.00    +0.000 OA
ATOM     13  H   UNL     1      48.574   3.031   6.539  0.00  0.00    +0.000 HD
ATOM     14  H   UNL     1      49.082   1.404   6.242  0.00  0.00    +0.000 HD
ENDBRANCH   6  10
BRANCH   1  15
ATOM     15  C   UNL     1      44.119   5.692  11.185  0.00  0.00    +0.000 C 
BRANCH  15  19
ATOM     16  C   UNL     1      47.871   6.263  13.280  0.00  0.00    +0.000 A 
ATOM     17  C   UNL     1      47.646   6.904  12.063  0.00  0.00    +0.000 A 
ATOM     18  C   UNL     1      46.434   6.714  11.383  0.00  0.00    +0.000 A 
ATOM     19  C   UNL     1      45.432   5.877  11.904  0.00  0.00    +0.000 A 
ATOM     20  C   UNL     1      45.668   5.238  13.124  0.00  0.00    +0.000 A 
ATOM     21  C   UNL     1      46.879   5.434  13.798  0.00  0.00    +0.000 A 
BRANCH  16  22
ATOM     22  O   UNL     1      49.009   6.325  14.031  0.00  0.00    +0.000 OA
BRANCH  22  23
ATOM     23  C   UNL     1      48.917   6.916  15.331  0.00  0.00    +0.000 C 
BRANCH  23  24
ATOM     24  C   UNL     1      48.864   8.440  15.143  0.00  0.00    +0.000 C 
BRANCH  24  25
ATOM     25  N   UNL     1      47.567   9.012  15.497  0.00  0.00    +0.000 NA
ATOM     26  H   UNL     1      46.832   8.382  15.170  0.00  0.00    +0.000 HD
ATOM     27  H   UNL     1      47.428   9.886  14.988  0.00  0.00    +0.000 HD
ENDBRANCH  24  25
ENDBRANCH  23  24
ENDBRANCH  22  23
ENDBRANCH  16  22
ENDBRANCH  15  19
ENDBRANCH   1  15
TORSDOF 7
ENDMDL
MODEL 3
REMARK VINA RESULT:    -6.951      2.925      7.957
REMARK INTER + INTRA:          -9.903
REMARK INTER:                  -9.270
REMARK INTRA:                  -0.633
REMARK UNBOUND:                -0.310
REMARK  Name = 
REMARK  7 active torsions:
REMARK  status: ('A' for Active; 'I' for Inactive)
REMARK    1  A    between atoms: N_1  and  C_2
REMARK    2  A    between atoms: C_2  and  C_3
REMARK    3  A    between atoms: C_3  and  O_4
REMARK    4  A    between atoms: O_4  and  C_5
REMARK    5  A    between atoms: C_8  and  C_9
REMARK    6  A    between atoms: C_9  and  N_10
REMARK    7  A    between atoms: C_15  and  C_16
REMARK                            x       y       z     vdW  Elec       q    Type
REMARK                         _______ _______ _______ _____ _____    ______ ____
ROOT
ATOM      1  N   UNL     1      46.476   5.343  13.202  0.00  0.00    +0.000 N 
ATOM      2  C   UNL     1      46.876   4.559  14.252  0.00  0.00    +0.000 A 
ATOM      3  N   UNL     1      47.794   5.148  14.982  0.00  0.00    +0.000 NA
ATOM      4  C   UNL     1      48.008   6.359  14.379  0.00  0.00    +0.000 A 
ATOM      5  C   UNL     1      48.774   7.443  14.824  0.00  0.00    +0.000 A 
ATOM      6  C   UNL     1      48.799   8.625  14.066  0.00  0.00    +0.000 A 
ATOM      7  C   UNL     1      48.164   8.662  12.814  0.00  0.00    +0.000 A 
ATOM      8  C   UNL     1      47.393   7.581  12.352  0.00  0.00    +0.000 A 
ATOM      9  C   UNL     1      47.283   6.467  13.194  0.00  0.00    +0.000 A 
ENDROOT
BRANCH   6  10
ATOM     10  C   UNL     1      49.437   9.814  14.706  0.00  0.00    +0.000 C 
ATOM     11  N   UNL     1      48.643  10.812  15.194  0.00  0.00    +0.000 N 
ATOM     12  O   UNL     1      50.652   9.891  14.847  0.00  0.00    +0.000 OA
ATOM     13  H   UNL     1      47.640  10.849  15.134  0.00  0.00    +0.000 HD
ATOM     14  H   UNL     1      49.118  11.560  15.684  0.00  0.00    +0.000 HD
ENDBRANCH   6  10
BRANCH   1  15
ATOM     15  C   UNL     1      45.184   5.238  12.529  0.00  0.00    +0.000 C 
BRANCH  15  19
ATOM     16  C   UNL     1      45.263   3.486   8.563  0.00  0.00    +0.000 A 
ATOM     17  C   UNL     1      44.849   2.726   9.655  0.00  0.00    +0.000 A 
ATOM     18  C   UNL     1      44.829   3.291  10.938  0.00  0.00    +0.000 A 
ATOM     19  C   UNL     1      45.229   4.622  11.152  0.00  0.00    +0.000 A 
ATOM     20  C   UNL     1      45.643   5.376  10.052  0.00  0.00    +0.000 A 
ATOM     21  C   UNL     1      45.659   4.805   8.774  0.00  0.00    +0.000 A 
BRANCH  16  22
ATOM     22  O   UNL     1      45.369   3.062   7.271  0.00  0.00    +0.000 OA
BRANCH  22  23
ATOM     23  C   UNL     1      46.602   3.307   6.588  0.00  0.00    +0.000 C 
BRANCH  23  24
ATOM     24  C   UNL     1      47.535   2.121   6.878  0.00  0.00    +0.000 C 
BRANCH  24  25
ATOM     25  N   UNL     1      48.433   1.819   5.765  0.00  0.00    +0.000 NA
ATOM     26  H   UNL     1      49.103   2.584   5.670  0.00  0.00    +0.000 HD
ATOM     27  H   UNL     1      47.904   1.806   4.892  0.00  0.00    +0.000 HD
ENDBRANCH  24  25
ENDBRANCH  23  24
ENDBRANCH  22  23
ENDBRANCH  16  22
ENDBRANCH  15  19
ENDBRANCH   1  15
TORSDOF 7
ENDMDL
MODEL 4
REMARK VINA RESULT:    -6.654      2.586      3.379
REMARK INTER + INTRA:          -9.493
REMARK INTER:                  -9.012
REMARK INTRA:                  -0.481
REMARK UNBOUND:                -0.310
REMARK  Name = 
REMARK  7 active torsions:
REMARK  status: ('A' for Active; 'I' for Inactive)
REMARK    1  A    between atoms: N_1  and  C_2
REMARK    2  A    between atoms: C_2  and  C_3
REMARK    3  A    between atoms: C_3  and  O_4
REMARK    4  A    between atoms: O_4  and  C_5
REMARK    5  A    between atoms: C_8  and  C_9
REMARK    6  A    between atoms: C_9  and  N_10
REMARK    7  A    between atoms: C_15  and  C_16
REMARK                            x       y       z     vdW  Elec       q    Type
REMARK                         _______ _______ _______ _____ _____    ______ ____
ROOT
ATOM      1  N   UNL     1      43.708   4.324  11.858  0.00  0.00    +0.000 N 
ATOM      2  C   UNL     1      43.217   3.073  12.123  0.00  0.00    +0.000 A 
ATOM      3  N   UNL     1      43.557   2.207  11.196  0.00  0.00    +0.000 NA
ATOM      4  C   UNL     1      44.287   2.924  10.287  0.00  0.00    +0.000 A 
ATOM      5  C   UNL     1      45.016   2.467   9.182  0.00  0.00    +0.000 A 
ATOM      6  C   UNL     1      45.753   3.384   8.417  0.00  0.00    +0.000 A 
ATOM      7  C   UNL     1      45.650   4.758   8.687  0.00  0.00    +0.000 A 
ATOM      8  C   UNL     1      44.921   5.234   9.791  0.00  0.00    +0.000 A 
ATOM      9  C   UNL     1      44.304   4.279  10.611  0.00  0.00    +0.000 A 
ENDROOT
BRANCH   6  10
ATOM     10  C   UNL     1      46.688   2.807   7.405  0.00  0.00    +0.000 C 
ATOM     11  N   UNL     1      47.228   3.627   6.456  0.00  0.00    +0.000 N 
ATOM     12  O   UNL     1      47.020   1.628   7.436  0.00  0.00    +0.000 OA
ATOM     13  H   UNL     1      47.028   4.606   6.340  0.00  0.00    +0.000 HD
ATOM     14  H   UNL     1      47.913   3.206   5.839  0.00  0.00    +0.000 HD
ENDBRANCH   6  10
BRANCH   1  15
ATOM     15  C   UNL     1      43.956   5.352  12.866  0.00  0.00    +0.000 C 
BRANCH  15  19
ATOM     16  C   UNL     1      47.924   7.093  12.714  0.00  0.00    +0.000 A 
ATOM     17  C   UNL     1      47.764   5.746  13.032  0.00  0.00    +0.000 A 
ATOM     18  C   UNL     1      46.480   5.185  13.086  0.00  0.00    +0.000 A 
ATOM     19  C   UNL     1      45.336   5.961  12.831  0.00  0.00    +0.000 A 
ATOM     20  C   UNL     1      45.507   7.311  12.514  0.00  0.00    +0.000 A 
ATOM     21  C   UNL     1      46.792   7.863  12.460  0.00  0.00    +0.000 A 
BRANCH  16  22
ATOM     22  O   UNL     1      49.102   7.780  12.660  0.00  0.00    +0.000 OA
BRANCH  22  23
ATOM     23  C   UNL     1      49.757   7.878  11.392  0.00  0.00    +0.000 C 
BRANCH  23  24
ATOM     24  C   UNL     1      51.220   8.266  11.656  0.00  0.00    +0.000 C 
BRANCH  24  25
ATOM     25  N   UNL     1      51.633   8.022  13.037  0.00  0.00    +0.000 NA
ATOM     26  H   UNL     1      52.216   7.184  13.060  0.00  0.00    +0.000 HD
ATOM     27  H   UNL     1      50.813   7.804  13.605  0.00  0.00    +0.000 HD
ENDBRANCH  24  25
ENDBRANCH  23  24
ENDBRANCH  22  23
ENDBRANCH  16  22
ENDBRANCH  15  19
ENDBRANCH   1  15
TORSDOF 7
ENDMDL
MODEL 5
REMARK VINA RESULT:    -5.844      4.293      6.046
REMARK INTER + INTRA:          -8.375
REMARK INTER:                  -7.709
REMARK INTRA:                  -0.667
REMARK UNBOUND:                -0.310
REMARK  Name = 
REMARK  7 active torsions:
REMARK  status: ('A' for Active; 'I' for Inactive)
REMARK    1  A    between atoms: N_1  and  C_2
REMARK    2  A    between atoms: C_2  and  C_3
REMARK    3  A    between atoms: C_3  and  O_4
REMARK    4  A    between atoms: O_4  and  C_5
REMARK    5  A    between atoms: C_8  and  C_9
REMARK    6  A    between atoms: C_9  and  N_10
REMARK    7  A    between atoms: C_15  and  C_16
REMARK                            x       y       z     vdW  Elec       q    Type
REMARK                         _______ _______ _______ _____ _____    ______ ____
ROOT
ATOM      1  N   UNL     1      47.258   7.120  13.580  0.00  0.00    +0.000 N 
ATOM      2  C   UNL     1      47.962   6.265  14.386  0.00  0.00    +0.000 A 
ATOM      3  N   UNL     1      47.524   5.031  14.292  0.00  0.00    +0.000 NA
ATOM      4  C   UNL     1      46.487   5.086  13.400  0.00  0.00    +0.000 A 
ATOM      5  C   UNL     1      45.762   4.037  12.823  0.00  0.00    +0.000 A 
ATOM      6  C   UNL     1      44.773   4.326  11.870  0.00  0.00    +0.000 A 
ATOM      7  C   UNL     1      44.434   5.661  11.602  0.00  0.00    +0.000 A 
ATOM      8  C   UNL     1      45.151   6.728  12.175  0.00  0.00    +0.000 A 
ATOM      9  C   UNL     1      46.218   6.400  13.021  0.00  0.00    +0.000 A 
ENDROOT
BRANCH   6  10
ATOM     10  C   UNL     1      44.204   3.162  11.125  0.00  0.00    +0.000 C 
ATOM     11  N   UNL     1      44.981   2.518  10.205  0.00  0.00    +0.000 N 
ATOM     12  O   UNL     1      43.076   2.743  11.356  0.00  0.00    +0.000 OA
ATOM     13  H   UNL     1      45.917   2.775   9.941  0.00  0.00    +0.000 HD
ATOM     14  H   UNL     1      44.577   1.691   9.782  0.00  0.00    +0.000 HD
ENDBRANCH   6  10
BRANCH   1  15
ATOM     15  C   UNL     1      47.768   8.388  13.064  0.00  0.00    +0.000 C 
BRANCH  15  19
ATOM     16  C   UNL     1      51.900   8.255  11.757  0.00  0.00    +0.000 A 
ATOM     17  C   UNL     1      51.566   8.881  12.956  0.00  0.00    +0.000 A 
ATOM     18  C   UNL     1      50.229   8.929  13.375  0.00  0.00    +0.000 A 
ATOM     19  C   UNL     1      49.204   8.359  12.601  0.00  0.00    +0.000 A 
ATOM     20  C   UNL     1      49.548   7.734  11.400  0.00  0.00    +0.000 A 
ATOM     21  C   UNL     1      50.885   7.689  10.989  0.00  0.00    +0.000 A 
BRANCH  16  22
ATOM     22  O   UNL     1      53.146   8.165  11.207  0.00  0.00    +0.000 OA
BRANCH  22  23
ATOM     23  C   UNL     1      53.273   7.482   9.956  0.00  0.00    +0.000 C 
BRANCH  23  24
ATOM     24  C   UNL     1      54.344   6.394  10.130  0.00  0.00    +0.000 C 
BRANCH  24  25
ATOM     25  N   UNL     1      53.790   5.116  10.572  0.00  0.00    +0.000 NA
ATOM     26  H   UNL     1      54.476   4.651  11.169  0.00  0.00    +0.000 HD
ATOM     27  H   UNL     1      53.663   4.501   9.767  0.00  0.00    +0.000 HD
ENDBRANCH  24  25
ENDBRANCH  23  24
ENDBRANCH  22  23
ENDBRANCH  16  22
ENDBRANCH  15  19
ENDBRANCH   1  15
TORSDOF 7
ENDMDL
MODEL 6
REMARK VINA RESULT:    -5.731      4.346      5.810
REMARK INTER + INTRA:          -8.219
REMARK INTER:                  -7.240
REMARK INTRA:                  -0.979
REMARK UNBOUND:                -0.310
REMARK  Name = 
REMARK  7 active torsions:
REMARK  status: ('A' for Active; 'I' for Inactive)
REMARK    1  A    between atoms: N_1  and  C_2
REMARK    2  A    between atoms: C_2  and  C_3
REMARK    3  A    between atoms: C_3  and  O_4
REMARK    4  A    between atoms: O_4  and  C_5
REMARK    5  A    between atoms: C_8  and  C_9
REMARK    6  A    between atoms: C_9  and  N_10
REMARK    7  A    between atoms: C_15  and  C_16
REMARK                            x       y       z     vdW  Elec       q    Type
REMARK                         _______ _______ _______ _____ _____    ______ ____
ROOT
ATOM      1  N   UNL     1      48.073   8.512  12.742  0.00  0.00    +0.000 N 
ATOM      2  C   UNL     1      47.285   9.582  12.409  0.00  0.00    +0.000 A 
ATOM      3  N   UNL     1      46.034   9.232  12.223  0.00  0.00    +0.000 NA
ATOM      4  C   UNL     1      46.006   7.879  12.431  0.00  0.00    +0.000 A 
ATOM      5  C   UNL     1      44.904   7.020  12.508  0.00  0.00    +0.000 A 
ATOM      6  C   UNL     1      45.108   5.662  12.799  0.00  0.00    +0.000 A 
ATOM      7  C   UNL     1      46.415   5.157  12.882  0.00  0.00    +0.000 A 
ATOM      8  C   UNL     1      47.534   6.006  12.805  0.00  0.00    +0.000 A 
ATOM      9  C   UNL     1      47.288   7.376  12.645  0.00  0.00    +0.000 A 
ENDROOT
BRANCH   6  10
ATOM     10  C   UNL     1      43.888   4.854  13.097  0.00  0.00    +0.000 C 
ATOM     11  N   UNL     1      42.669   5.469  13.106  0.00  0.00    +0.000 N 
ATOM     12  O   UNL     1      43.950   3.644  13.285  0.00  0.00    +0.000 OA
ATOM     13  H   UNL     1      42.503   6.450  12.963  0.00  0.00    +0.000 HD
ATOM     14  H   UNL     1      41.866   4.866  13.240  0.00  0.00    +0.000 HD
ENDBRANCH   6  10
BRANCH   1  15
ATOM     15  C   UNL     1      49.328   8.599  13.483  0.00  0.00    +0.000 C 
BRANCH  15  19
ATOM     16  C   UNL     1      49.066   7.753  17.728  0.00  0.00    +0.000 A 
ATOM     17  C   UNL     1      49.722   6.865  16.878  0.00  0.00    +0.000 A 
ATOM     18  C   UNL     1      49.801   7.136  15.504  0.00  0.00    +0.000 A 
ATOM     19  C   UNL     1      49.221   8.294  14.957  0.00  0.00    +0.000 A 
ATOM     20  C   UNL     1      48.565   9.177  15.818  0.00  0.00    +0.000 A 
ATOM     21  C   UNL     1      48.492   8.901  17.188  0.00  0.00    +0.000 A 
BRANCH  16  22
ATOM     22  O   UNL     1      48.880   7.603  19.072  0.00  0.00    +0.000 OA
BRANCH  22  23
ATOM     23  C   UNL     1      47.545   7.385  19.538  0.00  0.00    +0.000 C 
BRANCH  23  24
ATOM     24  C   UNL     1      47.341   5.868  19.666  0.00  0.00    +0.000 C 
BRANCH  24  25
ATOM     25  N   UNL     1      46.525   5.311  18.589  0.00  0.00    +0.000 NA
ATOM     26  H   UNL     1      45.652   4.961  18.988  0.00  0.00    +0.000 HD
ATOM     27  H   UNL     1      46.993   4.495  18.192  0.00  0.00    +0.000 HD
ENDBRANCH  24  25
ENDBRANCH  23  24
ENDBRANCH  22  23
ENDBRANCH  16  22
ENDBRANCH  15  19
ENDBRANCH   1  15
TORSDOF 7
ENDMDL
MODEL 7
REMARK VINA RESULT:    -5.664      3.507      5.758
REMARK INTER + INTRA:          -8.127
REMARK INTER:                  -7.494
REMARK INTRA:                  -0.633
REMARK UNBOUND:                -0.310
REMARK  Name = 
REMARK  7 active torsions:
REMARK  status: ('A' for Active; 'I' for Inactive)
REMARK    1  A    between atoms: N_1  and  C_2
REMARK    2  A    between atoms: C_2  and  C_3
REMARK    3  A    between atoms: C_3  and  O_4
REMARK    4  A    between atoms: O_4  and  C_5
REMARK    5  A    between atoms: C_8  and  C_9
REMARK    6  A    between atoms: C_9  and  N_10
REMARK    7  A    between atoms: C_15  and  C_16
REMARK                            x       y       z     vdW  Elec       q    Type
REMARK                         _______ _______ _______ _____ _____    ______ ____
ROOT
ATOM      1  N   UNL     1      47.819   5.838  14.730  0.00  0.00    +0.000 N 
ATOM      2  C   UNL     1      48.178   7.024  14.148  0.00  0.00    +0.000 A 
ATOM      3  N   UNL     1      47.635   7.173  12.962  0.00  0.00    +0.000 NA
ATOM      4  C   UNL     1      46.902   6.035  12.759  0.00  0.00    +0.000 A 
ATOM      5  C   UNL     1      46.006   5.735  11.726  0.00  0.00    +0.000 A 
ATOM      6  C   UNL     1      45.307   4.518  11.754  0.00  0.00    +0.000 A 
ATOM      7  C   UNL     1      45.607   3.565  12.740  0.00  0.00    +0.000 A 
ATOM      8  C   UNL     1      46.506   3.850  13.784  0.00  0.00    +0.000 A 
ATOM      9  C   UNL     1      47.088   5.124  13.797  0.00  0.00    +0.000 A 
ENDROOT
BRANCH   6  10
ATOM     10  C   UNL     1      44.203   4.361  10.761  0.00  0.00    +0.000 C 
ATOM     11  N   UNL     1      44.324   4.946   9.533  0.00  0.00    +0.000 N 
ATOM     12  O   UNL     1      43.213   3.679  11.003  0.00  0.00    +0.000 OA
ATOM     13  H   UNL     1      45.091   5.522   9.229  0.00  0.00    +0.000 HD
ATOM     14  H   UNL     1      43.585   4.750   8.870  0.00  0.00    +0.000 HD
ENDBRANCH   6  10
BRANCH   1  15
ATOM     15  C   UNL     1      47.811   5.584  16.169  0.00  0.00    +0.000 C 
BRANCH  15  19
ATOM     16  C   UNL     1      50.892   2.903  17.627  0.00  0.00    +0.000 A 
ATOM     17  C   UNL     1      51.150   4.268  17.511  0.00  0.00    +0.000 A 
ATOM     18  C   UNL     1      50.155   5.133  17.034  0.00  0.00    +0.000 A 
ATOM     19  C   UNL     1      48.890   4.649  16.659  0.00  0.00    +0.000 A 
ATOM     20  C   UNL     1      48.641   3.280  16.777  0.00  0.00    +0.000 A 
ATOM     21  C   UNL     1      49.638   2.422  17.256  0.00  0.00    +0.000 A 
BRANCH  16  22
ATOM     22  O   UNL     1      51.770   1.943  18.038  0.00  0.00    +0.000 OA
BRANCH  22  23
ATOM     23  C   UNL     1      53.157   2.144  17.754  0.00  0.00    +0.000 C 
BRANCH  23  24
ATOM     24  C   UNL     1      53.855   0.779  17.867  0.00  0.00    +0.000 C 
BRANCH  24  25
ATOM     25  N   UNL     1      52.955  -0.285  18.304  0.00  0.00    +0.000 NA
ATOM     26  H   UNL     1      52.694  -0.114  19.277  0.00  0.00    +0.000 HD
ATOM     27  H   UNL     1      53.453  -1.176  18.306  0.00  0.00    +0.000 HD
ENDBRANCH  24  25
ENDBRANCH  23  24
ENDBRANCH  22  23
ENDBRANCH  16  22
ENDBRANCH  15  19
ENDBRANCH   1  15
TORSDOF 7
ENDMDL
