MODEL 1
REMARK VINA RESULT:    -8.270      0.000      0.000
REMARK INTER + INTRA:          -9.558
REMARK INTER:                  -9.720
REMARK INTRA:                   0.162
REMARK UNBOUND:                 0.162
REMARK  Name = 
REMARK  3 active torsions:
REMARK  status: ('A' for Active; 'I' for Inactive)
REMARK    1  A    between atoms: C_2  and  C_4
REMARK    2  A    between atoms: N_8  and  C_9
REMARK    3  A    between atoms: C_9  and  C_10
REMARK                            x       y       z     vdW  Elec       q    Type
REMARK                         _______ _______ _______ _____ _____    ______ ____
ROOT
ATOM      1  C   UNL     1      46.377   2.095   7.824  0.00  0.00    +0.000 A 
ATOM      2  C   UNL     1      46.366   3.368   7.271  0.00  0.00    +0.000 A 
ATOM      3  C   UNL     1      45.660   4.379   7.922  0.00  0.00    +0.000 A 
ATOM      4  C   UNL     1      45.021   4.119   9.137  0.00  0.00    +0.000 A 
ATOM      5  N   UNL     1      44.418   5.228   9.772  0.00  0.00    +0.000 N 
ATOM      6  N   UNL     1      45.025   2.886   9.681  0.00  0.00    +0.000 NA
ATOM      7  C   UNL     1      45.663   1.893   9.000  0.00  0.00    +0.000 A 
ATOM      8  H   UNL     1      43.729   5.638   9.148  0.00  0.00    +0.000 HD
ENDROOT
BRANCH   1  10
ATOM      9  N   UNL     1      46.770  -0.289   7.624  0.00  0.00    +0.000 N 
ATOM     10  C   UNL     1      47.096   0.971   7.196  0.00  0.00    +0.000 C 
ATOM     11  O   UNL     1      47.926   1.153   6.308  0.00  0.00    +0.000 OA
ATOM     12  H   UNL     1      47.204  -1.061   7.129  0.00  0.00    +0.000 HD
ATOM     13  H   UNL     1      45.930  -0.489   8.150  0.00  0.00    +0.000 HD
ENDBRANCH   1  10
BRANCH   5  14
ATOM     14  C   UNL     1      44.023   5.238  11.195  0.00  0.00    +0.000 C 
ATOM     15  C   UNL     1      42.801   4.370  11.478  0.00  0.00    +0.000 C 
ATOM     16  C   UNL     1      42.706   5.846  11.651  0.00  0.00    +0.000 C 
BRANCH  14  17
ATOM     17  C   UNL     1      45.193   5.256  12.178  0.00  0.00    +0.000 A 
ATOM     18  C   UNL     1      45.564   4.066  12.841  0.00  0.00    +0.000 A 
ATOM     19  C   UNL     1      46.527   4.047  13.853  0.00  0.00    +0.000 A 
ATOM     20  C   UNL     1      47.165   5.224  14.221  0.00  0.00    +0.000 A 
ATOM     21  C   UNL     1      46.861   6.408  13.556  0.00  0.00    +0.000 A 
ATOM     22  C   UNL     1      45.889   6.424  12.547  0.00  0.00    +0.000 A 
ATOM     23 CL   UNL     1      45.543   7.952  11.812  0.00  0.00    +0.000 Cl
ENDBRANCH  14  17
ENDBRANCH   5  14
TORSDOF 3
ENDMDL
MODEL 2
REMARK VINA RESULT:    -7.427      1.769      2.395
REMARK INTER + INTRA:          -8.567
REMARK INTER:                  -8.256
REMARK INTRA:                  -0.311
REMARK UNBOUND:                 0.162
REMARK  Name = 
REMARK  3 active torsions:
REMARK  status: ('A' for Active; 'I' for Inactive)
REMARK    1  A    between atoms: C_2  and  C_4
REMARK    2  A    between atoms: N_8  and  C_9
REMARK    3  A    between atoms: C_9  and  C_10
REMARK                            x       y       z     vdW  Elec       q    Type
REMARK                         _______ _______ _______ _____ _____    ______ ____
ROOT
ATOM      1  C   UNL     1      46.459   2.979   7.388  0.00  0.00    +0.000 A 
ATOM      2  C   UNL     1      45.881   1.935   8.096  0.00  0.00    +0.000 A 
ATOM      3  C   UNL     1      45.310   2.200   9.341  0.00  0.00    +0.000 A 
ATOM      4  C   UNL     1      45.278   3.506   9.835  0.00  0.00    +0.000 A 
ATOM      5  N   UNL     1      44.590   3.693  11.055  0.00  0.00    +0.000 N 
ATOM      6  N   UNL     1      45.838   4.526   9.154  0.00  0.00    +0.000 NA
ATOM      7  C   UNL     1      46.450   4.241   7.971  0.00  0.00    +0.000 A 
ATOM      8  H   UNL     1      45.011   3.108  11.771  0.00  0.00    +0.000 HD
ENDROOT
BRANCH   1  10
ATOM      9  N   UNL     1      48.424   2.485   6.056  0.00  0.00    +0.000 N 
ATOM     10  C   UNL     1      47.086   2.782   6.067  0.00  0.00    +0.000 C 
ATOM     11  O   UNL     1      46.434   2.849   5.029  0.00  0.00    +0.000 OA
ATOM     12  H   UNL     1      48.830   2.264   5.153  0.00  0.00    +0.000 HD
ATOM     13  H   UNL     1      48.923   2.171   6.878  0.00  0.00    +0.000 HD
ENDBRANCH   1  10
BRANCH   5  14
ATOM     14  C   UNL     1      44.139   5.011  11.544  0.00  0.00    +0.000 C 
ATOM     15  C   UNL     1      42.810   4.944  12.291  0.00  0.00    +0.000 C 
ATOM     16  C   UNL     1      42.887   5.676  10.996  0.00  0.00    +0.000 C 
BRANCH  14  17
ATOM     17  C   UNL     1      45.260   5.916  12.055  0.00  0.00    +0.000 A 
ATOM     18  C   UNL     1      45.301   7.268  11.652  0.00  0.00    +0.000 A 
ATOM     19  C   UNL     1      46.374   8.107  11.966  0.00  0.00    +0.000 A 
ATOM     20  C   UNL     1      47.435   7.617  12.716  0.00  0.00    +0.000 A 
ATOM     21  C   UNL     1      47.406   6.302  13.172  0.00  0.00    +0.000 A 
ATOM     22  C   UNL     1      46.332   5.463  12.847  0.00  0.00    +0.000 A 
ATOM     23 CL   UNL     1      46.409   3.831  13.418  0.00  0.00    +0.000 Cl
ENDBRANCH  14  17
ENDBRANCH   5  14
TORSDOF 3
ENDMDL
MODEL 3
REMARK VINA RESULT:    -6.964      3.697      6.277
REMARK INTER + INTRA:          -8.023
REMARK INTER:                  -7.932
REMARK INTRA:                  -0.091
REMARK UNBOUND:                 0.162
REMARK  Name = 
REMARK  3 active torsions:
REMARK  status: ('A' for Active; 'I' for Inactive)
REMARK    1  A    between atoms: C_2  and  C_4
REMARK    2  A    between atoms: N_8  and  C_9
REMARK    3  A    between atoms: C_9  and  C_10
REMARK                            x       y       z     vdW  Elec       q    Type
REMARK                         _______ _______ _______ _____ _____    ______ ____
ROOT
ATOM      1  C   UNL     1      47.527   4.383  15.467  0.00  0.00    +0.000 A 
ATOM      2  C   UNL     1      47.865   5.672  15.078  0.00  0.00    +0.000 A 
ATOM      3  C   UNL     1      47.328   6.180  13.894  0.00  0.00    +0.000 A 
ATOM      4  C   UNL     1      46.426   5.418  13.149  0.00  0.00    +0.000 A 
ATOM      5  N   UNL     1      45.858   6.054  12.022  0.00  0.00    +0.000 N 
ATOM      6  N   UNL     1      46.092   4.166  13.520  0.00  0.00    +0.000 NA
ATOM      7  C   UNL     1      46.676   3.658  14.641  0.00  0.00    +0.000 A 
ATOM      8  H   UNL     1      46.599   6.348  11.393  0.00  0.00    +0.000 HD
ENDROOT
BRANCH   1  10
ATOM      9  N   UNL     1      47.159   3.098  17.490  0.00  0.00    +0.000 N 
ATOM     10  C   UNL     1      48.054   3.772  16.702  0.00  0.00    +0.000 C 
ATOM     11  O   UNL     1      49.246   3.837  16.994  0.00  0.00    +0.000 OA
ATOM     12  H   UNL     1      47.542   2.606  18.290  0.00  0.00    +0.000 HD
ATOM     13  H   UNL     1      46.248   2.807  17.159  0.00  0.00    +0.000 HD
ENDBRANCH   1  10
BRANCH   5  14
ATOM     14  C   UNL     1      44.644   5.568  11.336  0.00  0.00    +0.000 C 
ATOM     15  C   UNL     1      43.605   6.664  11.120  0.00  0.00    +0.000 C 
ATOM     16  C   UNL     1      43.295   5.532  12.037  0.00  0.00    +0.000 C 
BRANCH  14  17
ATOM     17  C   UNL     1      44.905   4.535  10.241  0.00  0.00    +0.000 A 
ATOM     18  C   UNL     1      45.656   4.901   9.103  0.00  0.00    +0.000 A 
ATOM     19  C   UNL     1      45.808   4.050   8.005  0.00  0.00    +0.000 A 
ATOM     20  C   UNL     1      45.224   2.790   8.023  0.00  0.00    +0.000 A 
ATOM     21  C   UNL     1      44.517   2.376   9.148  0.00  0.00    +0.000 A 
ATOM     22  C   UNL     1      44.361   3.236  10.243  0.00  0.00    +0.000 A 
ATOM     23 CL   UNL     1      43.424   2.650  11.575  0.00  0.00    +0.000 Cl
ENDBRANCH  14  17
ENDBRANCH   5  14
TORSDOF 3
ENDMDL
MODEL 4
REMARK VINA RESULT:    -6.391      3.650      6.196
REMARK INTER + INTRA:          -7.350
REMARK INTER:                  -7.670
REMARK INTRA:                   0.320
REMARK UNBOUND:                 0.162
REMARK  Name = 
REMARK  3 active torsions:
REMARK  status: ('A' for Active; 'I' for Inactive)
REMARK    1  A    between atoms: C_2  and  C_4
REMARK    2  A    between atoms: N_8  and  C_9
REMARK    3  A    between atoms: C_9  and  C_10
REMARK                            x       y       z     vdW  Elec       q    Type
REMARK                         _______ _______ _______ _____ _____    ______ ____
ROOT
ATOM      1  C   UNL     1      48.551   7.584  12.847  0.00  0.00    +0.000 A 
ATOM      2  C   UNL     1      48.314   6.600  13.797  0.00  0.00    +0.000 A 
ATOM      3  C   UNL     1      47.092   5.926  13.778  0.00  0.00    +0.000 A 
ATOM      4  C   UNL     1      46.152   6.206  12.784  0.00  0.00    +0.000 A 
ATOM      5  N   UNL     1      44.989   5.404  12.784  0.00  0.00    +0.000 N 
ATOM      6  N   UNL     1      46.374   7.161  11.858  0.00  0.00    +0.000 NA
ATOM      7  C   UNL     1      47.543   7.856  11.930  0.00  0.00    +0.000 A 
ATOM      8  H   UNL     1      44.519   5.494  13.681  0.00  0.00    +0.000 HD
ENDROOT
BRANCH   1  10
ATOM      9  N   UNL     1      50.950   7.680  13.187  0.00  0.00    +0.000 N 
ATOM     10  C   UNL     1      49.815   8.344  12.802  0.00  0.00    +0.000 C 
ATOM     11  O   UNL     1      49.852   9.507  12.408  0.00  0.00    +0.000 OA
ATOM     12  H   UNL     1      51.826   8.179  13.071  0.00  0.00    +0.000 HD
ATOM     13  H   UNL     1      50.997   6.673  13.264  0.00  0.00    +0.000 HD
ENDBRANCH   1  10
BRANCH   5  14
ATOM     14  C   UNL     1      44.071   5.296  11.633  0.00  0.00    +0.000 C 
ATOM     15  C   UNL     1      43.382   6.615  11.297  0.00  0.00    +0.000 C 
ATOM     16  C   UNL     1      42.569   5.470  11.794  0.00  0.00    +0.000 C 
BRANCH  14  17
ATOM     17  C   UNL     1      44.566   4.383  10.511  0.00  0.00    +0.000 A 
ATOM     18  C   UNL     1      45.314   4.932   9.447  0.00  0.00    +0.000 A 
ATOM     19  C   UNL     1      45.671   4.182   8.323  0.00  0.00    +0.000 A 
ATOM     20  C   UNL     1      45.303   2.845   8.240  0.00  0.00    +0.000 A 
ATOM     21  C   UNL     1      44.606   2.258   9.293  0.00  0.00    +0.000 A 
ATOM     22  C   UNL     1      44.244   3.016  10.413  0.00  0.00    +0.000 A 
ATOM     23 CL   UNL     1      43.336   2.210  11.648  0.00  0.00    +0.000 Cl
ENDBRANCH  14  17
ENDBRANCH   5  14
TORSDOF 3
ENDMDL
MODEL 5
REMARK VINA RESULT:    -5.950      4.629      6.767
REMARK INTER + INTRA:          -6.832
REMARK INTER:                  -6.844
REMARK INTRA:                   0.012
REMARK UNBOUND:                 0.162
REMARK  Name = 
REMARK  3 active torsions:
REMARK  status: ('A' for Active; 'I' for Inactive)
REMARK    1  A    between atoms: C_2  and  C_4
REMARK    2  A    between atoms: N_8  and  C_9
REMARK    3  A    between atoms: C_9  and  C_10
REMARK                            x       y       z     vdW  Elec       q    Type
REMARK                         _______ _______ _______ _____ _____    ______ ____
ROOT
ATOM      1  C   UNL     1      46.238   5.670  12.491  0.00  0.00    +0.000 A 
ATOM      2  C   UNL     1      45.956   4.314  12.392  0.00  0.00    +0.000 A 
ATOM      3  C   UNL     1      46.452   3.451  13.369  0.00  0.00    +0.000 A 
ATOM      4  C   UNL     1      47.175   3.957  14.452  0.00  0.00    +0.000 A 
ATOM      5  N   UNL     1      47.549   3.020  15.442  0.00  0.00    +0.000 N 
ATOM      6  N   UNL     1      47.454   5.272  14.555  0.00  0.00    +0.000 NA
ATOM      7  C   UNL     1      47.020   6.094  13.559  0.00  0.00    +0.000 A 
ATOM      8  H   UNL     1      48.111   2.289  15.017  0.00  0.00    +0.000 HD
ENDROOT
BRANCH   1  10
ATOM      9  N   UNL     1      45.294   6.145  10.309  0.00  0.00    +0.000 N 
ATOM     10  C   UNL     1      45.754   6.647  11.498  0.00  0.00    +0.000 C 
ATOM     11  O   UNL     1      45.735   7.852  11.737  0.00  0.00    +0.000 OA
ATOM     12  H   UNL     1      44.882   6.813   9.666  0.00  0.00    +0.000 HD
ATOM     13  H   UNL     1      45.056   5.170  10.180  0.00  0.00    +0.000 HD
ENDBRANCH   1  10
BRANCH   5  14
ATOM     14  C   UNL     1      47.983   3.399  16.802  0.00  0.00    +0.000 C 
ATOM     15  C   UNL     1      47.005   2.951  17.883  0.00  0.00    +0.000 C 
ATOM     16  C   UNL     1      47.204   4.406  17.633  0.00  0.00    +0.000 C 
BRANCH  14  17
ATOM     17  C   UNL     1      49.489   3.293  17.040  0.00  0.00    +0.000 A 
ATOM     18  C   UNL     1      50.096   2.020  17.095  0.00  0.00    +0.000 A 
ATOM     19  C   UNL     1      51.437   1.849  17.451  0.00  0.00    +0.000 A 
ATOM     20  C   UNL     1      52.219   2.958  17.745  0.00  0.00    +0.000 A 
ATOM     21  C   UNL     1      51.667   4.233  17.653  0.00  0.00    +0.000 A 
ATOM     22  C   UNL     1      50.321   4.398  17.304  0.00  0.00    +0.000 A 
ATOM     23 CL   UNL     1      49.712   6.018  17.265  0.00  0.00    +0.000 Cl
ENDBRANCH  14  17
ENDBRANCH   5  14
TORSDOF 3
ENDMDL
MODEL 6
REMARK VINA RESULT:    -5.831      6.408      8.728
REMARK INTER + INTRA:          -6.692
REMARK INTER:                  -6.166
REMARK INTRA:                  -0.526
REMARK UNBOUND:                 0.162
REMARK  Name = 
REMARK  3 active torsions:
REMARK  status: ('A' for Active; 'I' for Inactive)
REMARK    1  A    between atoms: C_2  and  C_4
REMARK    2  A    between atoms: N_8  and  C_9
REMARK    3  A    between atoms: C_9  and  C_10
REMARK                            x       y       z     vdW  Elec       q    Type
REMARK                         _______ _______ _______ _____ _____    ______ ____
ROOT
ATOM      1  C   UNL     1      52.190   1.770  17.664  0.00  0.00    +0.000 A 
ATOM      2  C   UNL     1      52.772   2.975  18.034  0.00  0.00    +0.000 A 
ATOM      3  C   UNL     1      52.038   4.152  17.884  0.00  0.00    +0.000 A 
ATOM      4  C   UNL     1      50.721   4.103  17.419  0.00  0.00    +0.000 A 
ATOM      5  N   UNL     1      50.024   5.332  17.397  0.00  0.00    +0.000 N 
ATOM      6  N   UNL     1      50.149   2.938  17.057  0.00  0.00    +0.000 NA
ATOM      7  C   UNL     1      50.901   1.805  17.146  0.00  0.00    +0.000 A 
ATOM      8  H   UNL     1      50.528   5.994  16.814  0.00  0.00    +0.000 HD
ENDROOT
BRANCH   1  10
ATOM      9  N   UNL     1      52.283  -0.497  18.517  0.00  0.00    +0.000 N 
ATOM     10  C   UNL     1      52.901   0.484  17.787  0.00  0.00    +0.000 C 
ATOM     11  O   UNL     1      53.981   0.290  17.236  0.00  0.00    +0.000 OA
ATOM     12  H   UNL     1      52.733  -1.406  18.526  0.00  0.00    +0.000 HD
ATOM     13  H   UNL     1      51.301  -0.464  18.760  0.00  0.00    +0.000 HD
ENDBRANCH   1  10
BRANCH   5  14
ATOM     14  C   UNL     1      48.555   5.435  17.293  0.00  0.00    +0.000 C 
ATOM     15  C   UNL     1      47.943   6.318  18.376  0.00  0.00    +0.000 C 
ATOM     16  C   UNL     1      47.639   4.859  18.361  0.00  0.00    +0.000 C 
BRANCH  14  17
ATOM     17  C   UNL     1      48.024   5.502  15.861  0.00  0.00    +0.000 A 
ATOM     18  C   UNL     1      47.216   4.454  15.369  0.00  0.00    +0.000 A 
ATOM     19  C   UNL     1      46.820   4.384  14.031  0.00  0.00    +0.000 A 
ATOM     20  C   UNL     1      47.208   5.379  13.144  0.00  0.00    +0.000 A 
ATOM     21  C   UNL     1      47.965   6.453  13.604  0.00  0.00    +0.000 A 
ATOM     22  C   UNL     1      48.366   6.514  14.944  0.00  0.00    +0.000 A 
ATOM     23 CL   UNL     1      49.346   7.863  15.411  0.00  0.00    +0.000 Cl
ENDBRANCH  14  17
ENDBRANCH   5  14
TORSDOF 3
ENDMDL
MODEL 7
REMARK VINA RESULT:    -5.772      3.718      5.570
REMARK INTER + INTRA:          -6.622
REMARK INTER:                  -6.272
REMARK INTRA:                  -0.350
REMARK UNBOUND:                 0.162
REMARK  Name = 
REMARK  3 active torsions:
REMARK  status: ('A' for Active; 'I' for Inactive)
REMARK    1  A    between atoms: C_2  and  C_4
REMARK    2  A    between atoms: N_8  and  C_9
REMARK    3  A    between atoms: C_9  and  C_10
REMARK                            x       y       z     vdW  Elec       q    Type
REMARK                         _______ _______ _______ _____ _____    ______ ____
ROOT
ATOM      1  C   UNL     1      44.650   4.454  12.224  0.00  0.00    +0.000 A 
ATOM      2  C   UNL     1      44.198   5.760  12.093  0.00  0.00    +0.000 A 
ATOM      3  C   UNL     1      44.967   6.795  12.627  0.00  0.00    +0.000 A 
ATOM      4  C   UNL     1      46.193   6.517  13.236  0.00  0.00    +0.000 A 
ATOM      5  N   UNL     1      46.946   7.636  13.656  0.00  0.00    +0.000 N 
ATOM      6  N   UNL     1      46.638   5.252  13.368  0.00  0.00    +0.000 NA
ATOM      7  C   UNL     1      45.846   4.246  12.901  0.00  0.00    +0.000 A 
ATOM      8  H   UNL     1      46.397   8.183  14.314  0.00  0.00    +0.000 HD
ENDROOT
BRANCH   1  10
ATOM      9  N   UNL     1      43.740   2.227  12.522  0.00  0.00    +0.000 N 
ATOM     10  C   UNL     1      43.895   3.304  11.691  0.00  0.00    +0.000 C 
ATOM     11  O   UNL     1      43.403   3.324  10.565  0.00  0.00    +0.000 OA
ATOM     12  H   UNL     1      43.148   1.476  12.183  0.00  0.00    +0.000 HD
ATOM     13  H   UNL     1      43.901   2.276  13.520  0.00  0.00    +0.000 HD
ENDBRANCH   1  10
BRANCH   5  14
ATOM     14  C   UNL     1      48.386   7.577  13.977  0.00  0.00    +0.000 C 
ATOM     15  C   UNL     1      49.215   8.573  13.172  0.00  0.00    +0.000 C 
ATOM     16  C   UNL     1      49.410   7.112  12.955  0.00  0.00    +0.000 C 
BRANCH  14  17
ATOM     17  C   UNL     1      48.697   7.340  15.455  0.00  0.00    +0.000 A 
ATOM     18  C   UNL     1      48.941   6.026  15.912  0.00  0.00    +0.000 A 
ATOM     19  C   UNL     1      49.088   5.726  17.269  0.00  0.00    +0.000 A 
ATOM     20  C   UNL     1      49.015   6.742  18.213  0.00  0.00    +0.000 A 
ATOM     21  C   UNL     1      48.824   8.056  17.795  0.00  0.00    +0.000 A 
ATOM     22  C   UNL     1      48.669   8.351  16.434  0.00  0.00    +0.000 A 
ATOM     23 CL   UNL     1      48.387  10.007  16.016  0.00  0.00    +0.000 Cl
ENDBRANCH  14  17
ENDBRANCH   5  14
TORSDOF 3
ENDMDL
MODEL 8
REMARK VINA RESULT:    -5.704      3.817      5.686
REMARK INTER + INTRA:          -6.542
REMARK INTER:                  -6.185
REMARK INTRA:                  -0.357
REMARK UNBOUND:                 0.162
REMARK  Name = 
REMARK  3 active torsions:
REMARK  status: ('A' for Active; 'I' for Inactive)
REMARK    1  A    between atoms: C_2  and  C_4
REMARK    2  A    between atoms: N_8  and  C_9
REMARK    3  A    between atoms: C_9  and  C_10
REMARK                            x       y       z     vdW  Elec       q    Type
REMARK                         _______ _______ _______ _____ _____    ______ ____
ROOT
ATOM      1  C   UNL     1      45.118   4.601  11.257  0.00  0.00    +0.000 A 
ATOM      2  C   UNL     1      45.490   4.060  12.480  0.00  0.00    +0.000 A 
ATOM      3  C   UNL     1      46.438   4.731  13.253  0.00  0.00    +0.000 A 
ATOM      4  C   UNL     1      46.959   5.953  12.820  0.00  0.00    +0.000 A 
ATOM      5  N   UNL     1      47.835   6.607  13.716  0.00  0.00    +0.000 N 
ATOM      6  N   UNL     1      46.604   6.485  11.634  0.00  0.00    +0.000 NA
ATOM      7  C   UNL     1      45.728   5.786  10.860  0.00  0.00    +0.000 A 
ATOM      8  H   UNL     1      48.621   5.997  13.922  0.00  0.00    +0.000 HD
ENDROOT
BRANCH   1  10
ATOM      9  N   UNL     1      43.994   4.460   9.114  0.00  0.00    +0.000 N 
ATOM     10  C   UNL     1      44.126   3.952  10.379  0.00  0.00    +0.000 C 
ATOM     11  O   UNL     1      43.472   2.982  10.755  0.00  0.00    +0.000 OA
ATOM     12  H   UNL     1      43.375   3.956   8.488  0.00  0.00    +0.000 HD
ATOM     13  H   UNL     1      44.681   5.072   8.694  0.00  0.00    +0.000 HD
ENDBRANCH   1  10
BRANCH   5  14
ATOM     14  C   UNL     1      48.193   8.036  13.609  0.00  0.00    +0.000 C 
ATOM     15  C   UNL     1      47.725   8.855  14.808  0.00  0.00    +0.000 C 
ATOM     16  C   UNL     1      47.130   9.113  13.468  0.00  0.00    +0.000 C 
BRANCH  14  17
ATOM     17  C   UNL     1      49.564   8.302  12.988  0.00  0.00    +0.000 A 
ATOM     18  C   UNL     1      49.650   8.675  11.629  0.00  0.00    +0.000 A 
ATOM     19  C   UNL     1      50.875   8.792  10.966  0.00  0.00    +0.000 A 
ATOM     20  C   UNL     1      52.058   8.555  11.654  0.00  0.00    +0.000 A 
ATOM     21  C   UNL     1      52.013   8.232  13.007  0.00  0.00    +0.000 A 
ATOM     22  C   UNL     1      50.783   8.109  13.666  0.00  0.00    +0.000 A 
ATOM     23 CL   UNL     1      50.827   7.655  15.336  0.00  0.00    +0.000 Cl
ENDBRANCH  14  17
ENDBRANCH   5  14
TORSDOF 3
ENDMDL
MODEL 9
REMARK VINA RESULT:    -5.495      4.311      6.518
REMARK INTER + INTRA:          -6.296
REMARK INTER:                  -5.806
REMARK INTRA:                  -0.491
REMARK UNBOUND:                 0.162
REMARK  Name = 
REMARK  3 active torsions:
REMARK  status: ('A' for Active; 'I' for Inactive)
REMARK    1  A    between atoms: C_2  and  C_4
REMARK    2  A    between atoms: N_8  and  C_9
REMARK    3  A    between atoms: C_9  and  C_10
REMARK                            x       y       z     vdW  Elec       q    Type
REMARK                         _______ _______ _______ _____ _____    ______ ____
ROOT
ATOM      1  C   UNL     1      44.503   5.685  12.140  0.00  0.00    +0.000 A 
ATOM      2  C   UNL     1      45.504   4.790  12.493  0.00  0.00    +0.000 A 
ATOM      3  C   UNL     1      46.749   5.289  12.876  0.00  0.00    +0.000 A 
ATOM      4  C   UNL     1      46.960   6.668  12.951  0.00  0.00    +0.000 A 
ATOM      5  N   UNL     1      48.219   7.078  13.445  0.00  0.00    +0.000 N 
ATOM      6  N   UNL     1      45.994   7.544  12.610  0.00  0.00    +0.000 NA
ATOM      7  C   UNL     1      44.805   7.041  12.174  0.00  0.00    +0.000 A 
ATOM      8  H   UNL     1      48.952   6.690  12.859  0.00  0.00    +0.000 HD
ENDROOT
BRANCH   1  10
ATOM      9  N   UNL     1      42.154   6.165  11.780  0.00  0.00    +0.000 N 
ATOM     10  C   UNL     1      43.161   5.238  11.721  0.00  0.00    +0.000 C 
ATOM     11  O   UNL     1      42.962   4.098  11.309  0.00  0.00    +0.000 OA
ATOM     12  H   UNL     1      41.254   5.879  11.409  0.00  0.00    +0.000 HD
ATOM     13  H   UNL     1      42.327   7.158  11.862  0.00  0.00    +0.000 HD
ENDBRANCH   1  10
BRANCH   5  14
ATOM     14  C   UNL     1      48.498   8.443  13.934  0.00  0.00    +0.000 C 
ATOM     15  C   UNL     1      49.337   8.457  15.208  0.00  0.00    +0.000 C 
ATOM     16  C   UNL     1      47.931   8.947  15.252  0.00  0.00    +0.000 C 
BRANCH  14  17
ATOM     17  C   UNL     1      48.760   9.470  12.833  0.00  0.00    +0.000 A 
ATOM     18  C   UNL     1      47.791  10.459  12.558  0.00  0.00    +0.000 A 
ATOM     19  C   UNL     1      47.905  11.333  11.474  0.00  0.00    +0.000 A 
ATOM     20  C   UNL     1      49.013  11.256  10.639  0.00  0.00    +0.000 A 
ATOM     21  C   UNL     1      50.013  10.326  10.908  0.00  0.00    +0.000 A 
ATOM     22  C   UNL     1      49.889   9.446  11.991  0.00  0.00    +0.000 A 
ATOM     23 CL   UNL     1      51.160   8.292  12.216  0.00  0.00    +0.000 Cl
ENDBRANCH  14  17
ENDBRANCH   5  14
TORSDOF 3
ENDMDL
