MODEL 1
REMARK VINA RESULT:    -8.113      0.000      0.000
REMARK INTER + INTRA:         -11.883
REMARK INTER:                 -10.959
REMARK INTRA:                  -0.924
REMARK UNBOUND:                -0.924
REMARK  Name = 
REMARK  7 active torsions:
REMARK  status: ('A' for Active; 'I' for Inactive)
REMARK    1  A    between atoms: C_1  and  C_2
REMARK    2  A    between atoms: C_5  and  C_6
REMARK    3  A    between atoms: N_8  and  C_9
REMARK    4  A    between atoms: C_9  and  C_10
REMARK    5  A    between atoms: C_13  and  C_14
REMARK    6  A    between atoms: C_14  and  N_15
REMARK    7  A    between atoms: C_16  and  C_18
REMARK                            x       y       z     vdW  Elec       q    Type
REMARK                         _______ _______ _______ _____ _____    ______ ____
ROOT
ATOM      1  C   UNL     1      44.938   6.320  11.288  0.00  0.00    +0.000 A 
ATOM      2  C   UNL     1      44.618   7.619  11.703  0.00  0.00    +0.000 A 
ATOM      3  C   UNL     1      45.455   8.318  12.584  0.00  0.00    +0.000 A 
ATOM      4  C   UNL     1      46.645   7.742  13.051  0.00  0.00    +0.000 A 
ATOM      5  C   UNL     1      46.967   6.446  12.630  0.00  0.00    +0.000 A 
ATOM      6  C   UNL     1      46.131   5.747  11.749  0.00  0.00    +0.000 A 
ENDROOT
BRANCH   1   7
ATOM      7  C   UNL     1      44.033   5.562  10.346  0.00  0.00    +0.000 C 
BRANCH   7  10
ATOM      8  C   UNL     1      44.702   3.350   9.451  0.00  0.00    +0.000 C 
ATOM      9  O   UNL     1      43.956   2.752  10.228  0.00  0.00    +0.000 OA
ATOM     10  N   UNL     1      44.789   4.726   9.450  0.00  0.00    +0.000 N 
ATOM     11  H   UNL     1      45.380   5.163   8.753  0.00  0.00    +0.000 HD
BRANCH   8  16
ATOM     12  C   UNL     1      47.930   2.244   5.376  0.00  0.00    +0.000 C 
ATOM     13  C   UNL     1      47.060   2.134   6.581  0.00  0.00    +0.000 A 
ATOM     14  C   UNL     1      46.747   1.018   7.327  0.00  0.00    +0.000 A 
ATOM     15  C   UNL     1      45.876   1.328   8.416  0.00  0.00    +0.000 A 
ATOM     16  C   UNL     1      45.550   2.673   8.475  0.00  0.00    +0.000 A 
ATOM     17  S   UNL     1      46.305   3.535   7.197  0.00  0.00    +0.000 S 
ENDBRANCH   8  16
ENDBRANCH   7  10
ENDBRANCH   1   7
BRANCH   4  18
ATOM     18  C   UNL     1      47.544   8.483  14.010  0.00  0.00    +0.000 C 
BRANCH  18  19
ATOM     19  N   UNL     1      47.867   7.681  15.165  0.00  0.00    +0.000 N 
ATOM     20  C   UNL     1      49.052   6.993  15.256  0.00  0.00    +0.000 C 
ATOM     21  O   UNL     1      49.910   7.059  14.380  0.00  0.00    +0.000 OA
ATOM     22  H   UNL     1      47.096   7.425  15.777  0.00  0.00    +0.000 HD
BRANCH  20  23
ATOM     23  C   UNL     1      49.272   6.222  16.488  0.00  0.00    +0.000 A 
ATOM     24  C   UNL     1      50.256   6.619  17.385  0.00  0.00    +0.000 A 
ATOM     25  S   UNL     1      50.344   5.646  18.784  0.00  0.00    +0.000 S 
ATOM     26  C   UNL     1      49.107   4.624  18.216  0.00  0.00    +0.000 A 
ATOM     27  N   UNL     1      48.704   3.544  18.938  0.00  0.00    +0.000 NA
ATOM     28  C   UNL     1      47.783   2.838  18.374  0.00  0.00    +0.000 A 
ATOM     29  N   UNL     1      47.222   3.118  17.155  0.00  0.00    +0.000 N 
ATOM     30  C   UNL     1      47.571   4.218  16.406  0.00  0.00    +0.000 A 
ATOM     31  O   UNL     1      47.011   4.470  15.345  0.00  0.00    +0.000 OA
ATOM     32  C   UNL     1      48.619   5.035  16.987  0.00  0.00    +0.000 A 
ATOM     33  H   UNL     1      46.495   2.532  16.772  0.00  0.00    +0.000 HD
ENDBRANCH  20  23
ENDBRANCH  18  19
ENDBRANCH   4  18
TORSDOF 6
ENDMDL
MODEL 2
REMARK VINA RESULT:    -7.656      1.075      1.383
REMARK INTER + INTRA:         -11.266
REMARK INTER:                 -10.228
REMARK INTRA:                  -1.038
REMARK UNBOUND:                -0.924
REMARK  Name = 
REMARK  7 active torsions:
REMARK  status: ('A' for Active; 'I' for Inactive)
REMARK    1  A    between atoms: C_1  and  C_2
REMARK    2  A    between atoms: C_5  and  C_6
REMARK    3  A    between atoms: N_8  and  C_9
REMARK    4  A    between atoms: C_9  and  C_10
REMARK    5  A    between atoms: C_13  and  C_14
REMARK    6  A    between atoms: C_14  and  N_15
REMARK    7  A    between atoms: C_16  and  C_18
REMARK                            x       y       z     vdW  Elec       q    Type
REMARK                         _______ _______ _______ _____ _____    ______ ____
ROOT
ATOM      1  C   UNL     1      44.846   6.099  11.387  0.00  0.00    +0.000 A 
ATOM      2  C   UNL     1      45.842   5.440  12.119  0.00  0.00    +0.000 A 
ATOM      3  C   UNL     1      46.682   6.151  12.987  0.00  0.00    +0.000 A 
ATOM      4  C   UNL     1      46.528   7.533  13.163  0.00  0.00    +0.000 A 
ATOM      5  C   UNL     1      45.527   8.189  12.435  0.00  0.00    +0.000 A 
ATOM      6  C   UNL     1      44.687   7.479  11.567  0.00  0.00    +0.000 A 
ENDROOT
BRANCH   1   7
ATOM      7  C   UNL     1      43.946   5.336  10.443  0.00  0.00    +0.000 C 
BRANCH   7  10
ATOM      8  C   UNL     1      44.752   3.183   9.517  0.00  0.00    +0.000 C 
ATOM      9  O   UNL     1      44.122   2.529  10.349  0.00  0.00    +0.000 OA
ATOM     10  N   UNL     1      44.710   4.561   9.500  0.00  0.00    +0.000 N 
ATOM     11  H   UNL     1      45.207   5.041   8.759  0.00  0.00    +0.000 HD
BRANCH   8  16
ATOM     12  C   UNL     1      47.872   2.348   5.296  0.00  0.00    +0.000 C 
ATOM     13  C   UNL     1      47.048   2.161   6.523  0.00  0.00    +0.000 A 
ATOM     14  C   UNL     1      46.795   1.006   7.232  0.00  0.00    +0.000 A 
ATOM     15  C   UNL     1      45.953   1.244   8.361  0.00  0.00    +0.000 A 
ATOM     16  C   UNL     1      45.586   2.573   8.487  0.00  0.00    +0.000 A 
ATOM     17  S   UNL     1      46.271   3.511   7.221  0.00  0.00    +0.000 S 
ENDBRANCH   8  16
ENDBRANCH   7  10
ENDBRANCH   1   7
BRANCH   4  18
ATOM     18  C   UNL     1      47.437   8.307  14.086  0.00  0.00    +0.000 C 
BRANCH  18  19
ATOM     19  N   UNL     1      48.348   7.437  14.791  0.00  0.00    +0.000 N 
ATOM     20  C   UNL     1      48.753   7.707  16.074  0.00  0.00    +0.000 C 
ATOM     21  O   UNL     1      48.332   8.677  16.699  0.00  0.00    +0.000 OA
ATOM     22  H   UNL     1      48.881   6.779  14.229  0.00  0.00    +0.000 HD
BRANCH  20  23
ATOM     23  C   UNL     1      49.672   6.739  16.691  0.00  0.00    +0.000 A 
ATOM     24  C   UNL     1      50.924   7.155  17.126  0.00  0.00    +0.000 A 
ATOM     25  S   UNL     1      51.841   5.919  17.864  0.00  0.00    +0.000 S 
ATOM     26  C   UNL     1      50.620   4.769  17.577  0.00  0.00    +0.000 A 
ATOM     27  N   UNL     1      50.782   3.470  17.945  0.00  0.00    +0.000 NA
ATOM     28  C   UNL     1      49.793   2.700  17.637  0.00  0.00    +0.000 A 
ATOM     29  N   UNL     1      48.651   3.113  17.001  0.00  0.00    +0.000 N 
ATOM     30  C   UNL     1      48.427   4.422  16.644  0.00  0.00    +0.000 A 
ATOM     31  O   UNL     1      47.371   4.770  16.125  0.00  0.00    +0.000 OA
ATOM     32  C   UNL     1      49.519   5.327  16.949  0.00  0.00    +0.000 A 
ATOM     33  H   UNL     1      47.906   2.463  16.798  0.00  0.00    +0.000 HD
ENDBRANCH  20  23
ENDBRANCH  18  19
ENDBRANCH   4  18
TORSDOF 6
ENDMDL
MODEL 3
REMARK VINA RESULT:    -7.480      1.927      2.517
REMARK INTER + INTRA:         -11.028
REMARK INTER:                 -10.246
REMARK INTRA:                  -0.782
REMARK UNBOUND:                -0.924
REMARK  Name = 
REMARK  7 active torsions:
REMARK  status: ('A' for Active; 'I' for Inactive)
REMARK    1  A    between atoms: C_1  and  C_2
REMARK    2  A    between atoms: C_5  and  C_6
REMARK    3  A    between atoms: N_8  and  C_9
REMARK    4  A    between atoms: C_9  and  C_10
REMARK    5  A    between atoms: C_13  and  C_14
REMARK    6  A    between atoms: C_14  and  N_15
REMARK    7  A    between atoms: C_16  and  C_18
REMARK                            x       y       z     vdW  Elec       q    Type
REMARK                         _______ _______ _______ _____ _____    ______ ____
ROOT
ATOM      1  C   UNL     1      45.190   6.240  11.526  0.00  0.00    +0.000 A 
ATOM      2  C   UNL     1      46.339   5.623  12.036  0.00  0.00    +0.000 A 
ATOM      3  C   UNL     1      47.216   6.323  12.877  0.00  0.00    +0.000 A 
ATOM      4  C   UNL     1      46.950   7.648  13.247  0.00  0.00    +0.000 A 
ATOM      5  C   UNL     1      45.796   8.262  12.742  0.00  0.00    +0.000 A 
ATOM      6  C   UNL     1      44.919   7.563  11.902  0.00  0.00    +0.000 A 
ENDROOT
BRANCH   1   7
ATOM      7  C   UNL     1      44.249   5.491  10.613  0.00  0.00    +0.000 C 
BRANCH   7  10
ATOM      8  C   UNL     1      44.750   3.326   9.516  0.00  0.00    +0.000 C 
ATOM      9  O   UNL     1      43.906   2.731  10.187  0.00  0.00    +0.000 OA
ATOM     10  N   UNL     1      44.970   4.678   9.667  0.00  0.00    +0.000 N 
ATOM     11  H   UNL     1      45.640   5.122   9.051  0.00  0.00    +0.000 HD
BRANCH   8  16
ATOM     12  C   UNL     1      47.869   2.297   5.337  0.00  0.00    +0.000 C 
ATOM     13  C   UNL     1      47.043   2.167   6.571  0.00  0.00    +0.000 A 
ATOM     14  C   UNL     1      46.785   1.044   7.328  0.00  0.00    +0.000 A 
ATOM     15  C   UNL     1      45.943   1.334   8.446  0.00  0.00    +0.000 A 
ATOM     16  C   UNL     1      45.583   2.669   8.514  0.00  0.00    +0.000 A 
ATOM     17  S   UNL     1      46.272   3.548   7.209  0.00  0.00    +0.000 S 
ENDBRANCH   8  16
ENDBRANCH   7  10
ENDBRANCH   1   7
BRANCH   4  18
ATOM     18  C   UNL     1      47.896   8.412  14.141  0.00  0.00    +0.000 C 
BRANCH  18  19
ATOM     19  N   UNL     1      47.913   7.876  15.481  0.00  0.00    +0.000 N 
ATOM     20  C   UNL     1      48.914   7.039  15.908  0.00  0.00    +0.000 C 
ATOM     21  O   UNL     1      49.863   6.739  15.188  0.00  0.00    +0.000 OA
ATOM     22  H   UNL     1      47.042   7.915  16.002  0.00  0.00    +0.000 HD
BRANCH  20  23
ATOM     23  C   UNL     1      48.830   6.569  17.299  0.00  0.00    +0.000 A 
ATOM     24  C   UNL     1      49.201   5.267  17.611  0.00  0.00    +0.000 A 
ATOM     25  S   UNL     1      49.091   4.902  19.274  0.00  0.00    +0.000 S 
ATOM     26  C   UNL     1      48.489   6.453  19.630  0.00  0.00    +0.000 A 
ATOM     27  N   UNL     1      48.154   6.799  20.902  0.00  0.00    +0.000 NA
ATOM     28  C   UNL     1      47.679   7.993  21.024  0.00  0.00    +0.000 A 
ATOM     29  N   UNL     1      47.516   8.877  19.988  0.00  0.00    +0.000 N 
ATOM     30  C   UNL     1      47.876   8.585  18.693  0.00  0.00    +0.000 A 
ATOM     31  O   UNL     1      47.768   9.418  17.799  0.00  0.00    +0.000 OA
ATOM     32  C   UNL     1      48.397   7.246  18.499  0.00  0.00    +0.000 A 
ATOM     33  H   UNL     1      47.150   9.804  20.150  0.00  0.00    +0.000 HD
ENDBRANCH  20  23
ENDBRANCH  18  19
ENDBRANCH   4  18
TORSDOF 6
ENDMDL
MODEL 4
REMARK VINA RESULT:    -7.259      1.891      2.463
REMARK INTER + INTRA:         -10.729
REMARK INTER:                  -9.900
REMARK INTRA:                  -0.829
REMARK UNBOUND:                -0.924
REMARK  Name = 
REMARK  7 active torsions:
REMARK  status: ('A' for Active; 'I' for Inactive)
REMARK    1  A    between atoms: C_1  and  C_2
REMARK    2  A    between atoms: C_5  and  C_6
REMARK    3  A    between atoms: N_8  and  C_9
REMARK    4  A    between atoms: C_9  and  C_10
REMARK    5  A    between atoms: C_13  and  C_14
REMARK    6  A    between atoms: C_14  and  N_15
REMARK    7  A    between atoms: C_16  and  C_18
REMARK                            x       y       z     vdW  Elec       q    Type
REMARK                         _______ _______ _______ _____ _____    ______ ____
ROOT
ATOM      1  C   UNL     1      44.857   5.043  12.143  0.00  0.00    +0.000 A 
ATOM      2  C   UNL     1      45.964   5.111  13.000  0.00  0.00    +0.000 A 
ATOM      3  C   UNL     1      46.506   6.349  13.374  0.00  0.00    +0.000 A 
ATOM      4  C   UNL     1      45.938   7.547  12.921  0.00  0.00    +0.000 A 
ATOM      5  C   UNL     1      44.827   7.477  12.069  0.00  0.00    +0.000 A 
ATOM      6  C   UNL     1      44.285   6.241  11.695  0.00  0.00    +0.000 A 
ENDROOT
BRANCH   1   7
ATOM      7  C   UNL     1      44.278   3.710  11.731  0.00  0.00    +0.000 C 
BRANCH   7  10
ATOM      8  C   UNL     1      44.828   3.436   9.331  0.00  0.00    +0.000 C 
ATOM      9  O   UNL     1      43.981   4.261   8.988  0.00  0.00    +0.000 OA
ATOM     10  N   UNL     1      45.032   3.119  10.657  0.00  0.00    +0.000 N 
ATOM     11  H   UNL     1      45.779   2.472  10.881  0.00  0.00    +0.000 HD
BRANCH   8  16
ATOM     12  C   UNL     1      48.021   2.187   5.269  0.00  0.00    +0.000 C 
ATOM     13  C   UNL     1      47.179   2.124   6.497  0.00  0.00    +0.000 A 
ATOM     14  C   UNL     1      46.923   1.048   7.320  0.00  0.00    +0.000 A 
ATOM     15  C   UNL     1      46.061   1.396   8.405  0.00  0.00    +0.000 A 
ATOM     16  C   UNL     1      45.683   2.728   8.384  0.00  0.00    +0.000 A 
ATOM     17  S   UNL     1      46.381   3.533   7.036  0.00  0.00    +0.000 S 
ENDBRANCH   8  16
ENDBRANCH   7  10
ENDBRANCH   1   7
BRANCH   4  18
ATOM     18  C   UNL     1      46.523   8.883  13.309  0.00  0.00    +0.000 C 
BRANCH  18  19
ATOM     19  N   UNL     1      47.064   8.860  14.646  0.00  0.00    +0.000 N 
ATOM     20  C   UNL     1      48.411   8.986  14.881  0.00  0.00    +0.000 C 
ATOM     21  O   UNL     1      49.215   9.166  13.970  0.00  0.00    +0.000 OA
ATOM     22  H   UNL     1      46.466   8.483  15.377  0.00  0.00    +0.000 HD
BRANCH  20  23
ATOM     23  C   UNL     1      48.839   8.961  16.287  0.00  0.00    +0.000 A 
ATOM     24  C   UNL     1      48.906  10.145  17.010  0.00  0.00    +0.000 A 
ATOM     25  S   UNL     1      49.370   9.930  18.638  0.00  0.00    +0.000 S 
ATOM     26  C   UNL     1      49.555   8.253  18.420  0.00  0.00    +0.000 A 
ATOM     27  N   UNL     1      49.972   7.456  19.441  0.00  0.00    +0.000 NA
ATOM     28  C   UNL     1      50.102   6.211  19.128  0.00  0.00    +0.000 A 
ATOM     29  N   UNL     1      49.845   5.688  17.887  0.00  0.00    +0.000 N 
ATOM     30  C   UNL     1      49.386   6.447  16.836  0.00  0.00    +0.000 A 
ATOM     31  O   UNL     1      49.114   5.939  15.753  0.00  0.00    +0.000 OA
ATOM     32  C   UNL     1      49.243   7.860  17.130  0.00  0.00    +0.000 A 
ATOM     33  H   UNL     1      49.954   4.700  17.708  0.00  0.00    +0.000 HD
ENDBRANCH  20  23
ENDBRANCH  18  19
ENDBRANCH   4  18
TORSDOF 6
ENDMDL
MODEL 5
REMARK VINA RESULT:    -6.930      3.055      8.802
REMARK INTER + INTRA:         -10.284
REMARK INTER:                  -9.440
REMARK INTRA:                  -0.845
REMARK UNBOUND:                -0.924
REMARK  Name = 
REMARK  7 active torsions:
REMARK  status: ('A' for Active; 'I' for Inactive)
REMARK    1  A    between atoms: C_1  and  C_2
REMARK    2  A    between atoms: C_5  and  C_6
REMARK    3  A    between atoms: N_8  and  C_9
REMARK    4  A    between atoms: C_9  and  C_10
REMARK    5  A    between atoms: C_13  and  C_14
REMARK    6  A    between atoms: C_14  and  N_15
REMARK    7  A    between atoms: C_16  and  C_18
REMARK                            x       y       z     vdW  Elec       q    Type
REMARK                         _______ _______ _______ _____ _____    ______ ____
ROOT
ATOM      1  C   UNL     1      50.151   7.256  15.455  0.00  0.00    +0.000 A 
ATOM      2  C   UNL     1      50.443   8.160  14.425  0.00  0.00    +0.000 A 
ATOM      3  C   UNL     1      49.586   8.293  13.324  0.00  0.00    +0.000 A 
ATOM      4  C   UNL     1      48.404   7.544  13.239  0.00  0.00    +0.000 A 
ATOM      5  C   UNL     1      48.110   6.646  14.273  0.00  0.00    +0.000 A 
ATOM      6  C   UNL     1      48.966   6.512  15.374  0.00  0.00    +0.000 A 
ENDROOT
BRANCH   1   7
ATOM      7  C   UNL     1      51.078   7.104  16.638  0.00  0.00    +0.000 C 
BRANCH   7  10
ATOM      8  C   UNL     1      50.968   4.875  17.714  0.00  0.00    +0.000 C 
ATOM      9  O   UNL     1      50.056   5.224  18.465  0.00  0.00    +0.000 OA
ATOM     10  N   UNL     1      51.515   5.741  16.791  0.00  0.00    +0.000 N 
ATOM     11  H   UNL     1      52.226   5.381  16.166  0.00  0.00    +0.000 HD
BRANCH   8  16
ATOM     12  C   UNL     1      54.201   0.707  18.370  0.00  0.00    +0.000 C 
ATOM     13  C   UNL     1      53.037   1.574  18.030  0.00  0.00    +0.000 A 
ATOM     14  C   UNL     1      51.822   1.221  17.484  0.00  0.00    +0.000 A 
ATOM     15  C   UNL     1      50.964   2.350  17.310  0.00  0.00    +0.000 A 
ATOM     16  C   UNL     1      51.546   3.535  17.728  0.00  0.00    +0.000 A 
ATOM     17  S   UNL     1      53.132   3.253  18.323  0.00  0.00    +0.000 S 
ENDBRANCH   8  16
ENDBRANCH   7  10
ENDBRANCH   1   7
BRANCH   4  18
ATOM     18  C   UNL     1      47.483   7.673  12.050  0.00  0.00    +0.000 C 
BRANCH  18  19
ATOM     19  N   UNL     1      46.797   6.434  11.772  0.00  0.00    +0.000 N 
ATOM     20  C   UNL     1      45.432   6.383  11.633  0.00  0.00    +0.000 C 
ATOM     21  O   UNL     1      44.733   7.392  11.699  0.00  0.00    +0.000 OA
ATOM     22  H   UNL     1      47.311   5.575  11.946  0.00  0.00    +0.000 HD
BRANCH  20  23
ATOM     23  C   UNL     1      44.849   5.066  11.337  0.00  0.00    +0.000 A 
ATOM     24  C   UNL     1      44.089   4.415  12.300  0.00  0.00    +0.000 A 
ATOM     25  S   UNL     1      43.447   2.924  11.775  0.00  0.00    +0.000 S 
ATOM     26  C   UNL     1      44.208   3.068  10.260  0.00  0.00    +0.000 A 
ATOM     27  N   UNL     1      44.088   2.091   9.321  0.00  0.00    +0.000 NA
ATOM     28  C   UNL     1      44.744   2.314   8.232  0.00  0.00    +0.000 A 
ATOM     29  N   UNL     1      45.505   3.430   7.994  0.00  0.00    +0.000 N 
ATOM     30  C   UNL     1      45.625   4.459   8.898  0.00  0.00    +0.000 A 
ATOM     31  O   UNL     1      46.269   5.469   8.632  0.00  0.00    +0.000 OA
ATOM     32  C   UNL     1      44.922   4.249  10.149  0.00  0.00    +0.000 A 
ATOM     33  H   UNL     1      45.986   3.552   7.115  0.00  0.00    +0.000 HD
ENDBRANCH  20  23
ENDBRANCH  18  19
ENDBRANCH   4  18
TORSDOF 6
ENDMDL
MODEL 6
REMARK VINA RESULT:    -6.831      3.066      8.474
REMARK INTER + INTRA:         -10.151
REMARK INTER:                  -9.273
REMARK INTRA:                  -0.878
REMARK UNBOUND:                -0.924
REMARK  Name = 
REMARK  7 active torsions:
REMARK  status: ('A' for Active; 'I' for Inactive)
REMARK    1  A    between atoms: C_1  and  C_2
REMARK    2  A    between atoms: C_5  and  C_6
REMARK    3  A    between atoms: N_8  and  C_9
REMARK    4  A    between atoms: C_9  and  C_10
REMARK    5  A    between atoms: C_13  and  C_14
REMARK    6  A    between atoms: C_14  and  N_15
REMARK    7  A    between atoms: C_16  and  C_18
REMARK                            x       y       z     vdW  Elec       q    Type
REMARK                         _______ _______ _______ _____ _____    ______ ____
ROOT
ATOM      1  C   UNL     1      49.896   7.012  16.032  0.00  0.00    +0.000 A 
ATOM      2  C   UNL     1      50.502   7.994  15.237  0.00  0.00    +0.000 A 
ATOM      3  C   UNL     1      49.983   8.315  13.975  0.00  0.00    +0.000 A 
ATOM      4  C   UNL     1      48.832   7.679  13.489  0.00  0.00    +0.000 A 
ATOM      5  C   UNL     1      48.224   6.702  14.288  0.00  0.00    +0.000 A 
ATOM      6  C   UNL     1      48.741   6.381  15.550  0.00  0.00    +0.000 A 
ENDROOT
BRANCH   1   7
ATOM      7  C   UNL     1      50.458   6.658  17.389  0.00  0.00    +0.000 C 
BRANCH   7  10
ATOM      8  C   UNL     1      50.626   4.264  18.004  0.00  0.00    +0.000 C 
ATOM      9  O   UNL     1      49.568   4.297  18.634  0.00  0.00    +0.000 OA
ATOM     10  N   UNL     1      51.122   5.380  17.365  0.00  0.00    +0.000 N 
ATOM     11  H   UNL     1      51.969   5.278  16.819  0.00  0.00    +0.000 HD
BRANCH   8  16
ATOM     12  C   UNL     1      54.554   0.693  18.287  0.00  0.00    +0.000 C 
ATOM     13  C   UNL     1      53.261   1.376  17.999  0.00  0.00    +0.000 A 
ATOM     14  C   UNL     1      52.148   0.889  17.346  0.00  0.00    +0.000 A 
ATOM     15  C   UNL     1      51.102   1.860  17.274  0.00  0.00    +0.000 A 
ATOM     16  C   UNL     1      51.442   3.060  17.875  0.00  0.00    +0.000 A 
ATOM     17  S   UNL     1      53.034   2.987  18.513  0.00  0.00    +0.000 S 
ENDBRANCH   8  16
ENDBRANCH   7  10
ENDBRANCH   1   7
BRANCH   4  18
ATOM     18  C   UNL     1      48.276   8.010  12.126  0.00  0.00    +0.000 C 
BRANCH  18  19
ATOM     19  N   UNL     1      47.585   6.884  11.545  0.00  0.00    +0.000 N 
ATOM     20  C   UNL     1      46.224   6.890  11.364  0.00  0.00    +0.000 C 
ATOM     21  O   UNL     1      45.534   7.866  11.648  0.00  0.00    +0.000 OA
ATOM     22  H   UNL     1      48.085   6.000  11.524  0.00  0.00    +0.000 HD
BRANCH  20  23
ATOM     23  C   UNL     1      45.637   5.690  10.749  0.00  0.00    +0.000 A 
ATOM     24  C   UNL     1      45.823   5.447   9.394  0.00  0.00    +0.000 A 
ATOM     25  S   UNL     1      45.120   3.988   8.856  0.00  0.00    +0.000 S 
ATOM     26  C   UNL     1      44.492   3.657  10.402  0.00  0.00    +0.000 A 
ATOM     27  N   UNL     1      43.744   2.545  10.630  0.00  0.00    +0.000 NA
ATOM     28  C   UNL     1      43.304   2.435  11.839  0.00  0.00    +0.000 A 
ATOM     29  N   UNL     1      43.551   3.335  12.843  0.00  0.00    +0.000 N 
ATOM     30  C   UNL     1      44.332   4.453  12.669  0.00  0.00    +0.000 A 
ATOM     31  O   UNL     1      44.579   5.210  13.603  0.00  0.00    +0.000 OA
ATOM     32  C   UNL     1      44.835   4.634  11.321  0.00  0.00    +0.000 A 
ATOM     33  H   UNL     1      43.188   3.186  13.773  0.00  0.00    +0.000 HD
ENDBRANCH  20  23
ENDBRANCH  18  19
ENDBRANCH   4  18
TORSDOF 6
ENDMDL
MODEL 7
REMARK VINA RESULT:    -6.785      2.406      3.385
REMARK INTER + INTRA:         -10.089
REMARK INTER:                  -9.144
REMARK INTRA:                  -0.945
REMARK UNBOUND:                -0.924
REMARK  Name = 
REMARK  7 active torsions:
REMARK  status: ('A' for Active; 'I' for Inactive)
REMARK    1  A    between atoms: C_1  and  C_2
REMARK    2  A    between atoms: C_5  and  C_6
REMARK    3  A    between atoms: N_8  and  C_9
REMARK    4  A    between atoms: C_9  and  C_10
REMARK    5  A    between atoms: C_13  and  C_14
REMARK    6  A    between atoms: C_14  and  N_15
REMARK    7  A    between atoms: C_16  and  C_18
REMARK                            x       y       z     vdW  Elec       q    Type
REMARK                         _______ _______ _______ _____ _____    ______ ____
ROOT
ATOM      1  C   UNL     1      45.480   4.454  12.600  0.00  0.00    +0.000 A 
ATOM      2  C   UNL     1      46.384   4.030  13.583  0.00  0.00    +0.000 A 
ATOM      3  C   UNL     1      47.224   4.948  14.230  0.00  0.00    +0.000 A 
ATOM      4  C   UNL     1      47.160   6.316  13.926  0.00  0.00    +0.000 A 
ATOM      5  C   UNL     1      46.251   6.739  12.948  0.00  0.00    +0.000 A 
ATOM      6  C   UNL     1      45.411   5.821  12.302  0.00  0.00    +0.000 A 
ENDROOT
BRANCH   1   7
ATOM      7  C   UNL     1      44.582   3.465  11.896  0.00  0.00    +0.000 C 
BRANCH   7  10
ATOM      8  C   UNL     1      45.031   3.409   9.460  0.00  0.00    +0.000 C 
ATOM      9  O   UNL     1      44.298   4.376   9.249  0.00  0.00    +0.000 OA
ATOM     10  N   UNL     1      45.222   2.911  10.731  0.00  0.00    +0.000 N 
ATOM     11  H   UNL     1      45.877   2.148  10.849  0.00  0.00    +0.000 HD
BRANCH   8  16
ATOM     12  C   UNL     1      47.793   2.228   5.075  0.00  0.00    +0.000 C 
ATOM     13  C   UNL     1      47.051   2.138   6.365  0.00  0.00    +0.000 A 
ATOM     14  C   UNL     1      46.793   1.030   7.143  0.00  0.00    +0.000 A 
ATOM     15  C   UNL     1      46.047   1.360   8.316  0.00  0.00    +0.000 A 
ATOM     16  C   UNL     1      45.758   2.712   8.404  0.00  0.00    +0.000 A 
ATOM     17  S   UNL     1      46.395   3.556   7.051  0.00  0.00    +0.000 S 
ENDBRANCH   8  16
ENDBRANCH   7  10
ENDBRANCH   1   7
BRANCH   4  18
ATOM     18  C   UNL     1      48.069   7.309  14.608  0.00  0.00    +0.000 C 
BRANCH  18  19
ATOM     19  N   UNL     1      49.212   6.661  15.205  0.00  0.00    +0.000 N 
ATOM     20  C   UNL     1      49.333   6.525  16.566  0.00  0.00    +0.000 C 
ATOM     21  O   UNL     1      48.458   6.909  17.338  0.00  0.00    +0.000 OA
ATOM     22  H   UNL     1      50.036   6.554  14.620  0.00  0.00    +0.000 HD
BRANCH  20  23
ATOM     23  C   UNL     1      50.536   5.835  17.054  0.00  0.00    +0.000 A 
ATOM     24  C   UNL     1      50.414   4.799  17.972  0.00  0.00    +0.000 A 
ATOM     25  S   UNL     1      51.901   4.076  18.392  0.00  0.00    +0.000 S 
ATOM     26  C   UNL     1      52.768   5.158  17.407  0.00  0.00    +0.000 A 
ATOM     27  N   UNL     1      54.125   5.103  17.331  0.00  0.00    +0.000 NA
ATOM     28  C   UNL     1      54.655   6.003  16.573  0.00  0.00    +0.000 A 
ATOM     29  N   UNL     1      53.950   6.951  15.877  0.00  0.00    +0.000 N 
ATOM     30  C   UNL     1      52.577   7.021  15.893  0.00  0.00    +0.000 A 
ATOM     31  O   UNL     1      51.973   7.846  15.215  0.00  0.00    +0.000 OA
ATOM     32  C   UNL     1      51.932   6.043  16.747  0.00  0.00    +0.000 A 
ATOM     33  H   UNL     1      54.423   7.622  15.290  0.00  0.00    +0.000 HD
ENDBRANCH  20  23
ENDBRANCH  18  19
ENDBRANCH   4  18
TORSDOF 6
ENDMDL
MODEL 8
REMARK VINA RESULT:    -6.728      3.466      4.857
REMARK INTER + INTRA:         -10.012
REMARK INTER:                  -8.902
REMARK INTRA:                  -1.110
REMARK UNBOUND:                -0.924
REMARK  Name = 
REMARK  7 active torsions:
REMARK  status: ('A' for Active; 'I' for Inactive)
REMARK    1  A    between atoms: C_1  and  C_2
REMARK    2  A    between atoms: C_5  and  C_6
REMARK    3  A    between atoms: N_8  and  C_9
REMARK    4  A    between atoms: C_9  and  C_10
REMARK    5  A    between atoms: C_13  and  C_14
REMARK    6  A    between atoms: C_14  and  N_15
REMARK    7  A    between atoms: C_16  and  C_18
REMARK                            x       y       z     vdW  Elec       q    Type
REMARK                         _______ _______ _______ _____ _____    ______ ____
ROOT
ATOM      1  C   UNL     1      45.689   5.679  11.783  0.00  0.00    +0.000 A 
ATOM      2  C   UNL     1      46.368   6.899  11.668  0.00  0.00    +0.000 A 
ATOM      3  C   UNL     1      47.311   7.287  12.630  0.00  0.00    +0.000 A 
ATOM      4  C   UNL     1      47.615   6.453  13.715  0.00  0.00    +0.000 A 
ATOM      5  C   UNL     1      46.940   5.230  13.824  0.00  0.00    +0.000 A 
ATOM      6  C   UNL     1      45.998   4.841  12.863  0.00  0.00    +0.000 A 
ENDROOT
BRANCH   1   7
ATOM      7  C   UNL     1      44.666   5.262  10.753  0.00  0.00    +0.000 C 
BRANCH   7  10
ATOM      8  C   UNL     1      45.145   3.142   9.563  0.00  0.00    +0.000 C 
ATOM      9  O   UNL     1      44.490   2.480  10.370  0.00  0.00    +0.000 OA
ATOM     10  N   UNL     1      45.272   4.509   9.685  0.00  0.00    +0.000 N 
ATOM     11  H   UNL     1      45.779   5.005   8.962  0.00  0.00    +0.000 HD
BRANCH   8  16
ATOM     12  C   UNL     1      47.760   2.400   4.996  0.00  0.00    +0.000 C 
ATOM     13  C   UNL     1      47.061   2.184   6.294  0.00  0.00    +0.000 A 
ATOM     14  C   UNL     1      46.827   1.004   6.968  0.00  0.00    +0.000 A 
ATOM     15  C   UNL     1      46.121   1.217   8.192  0.00  0.00    +0.000 A 
ATOM     16  C   UNL     1      45.836   2.553   8.420  0.00  0.00    +0.000 A 
ATOM     17  S   UNL     1      46.429   3.526   7.136  0.00  0.00    +0.000 S 
ENDBRANCH   8  16
ENDBRANCH   7  10
ENDBRANCH   1   7
BRANCH   4  18
ATOM     18  C   UNL     1      48.619   6.871  14.762  0.00  0.00    +0.000 C 
BRANCH  18  19
ATOM     19  N   UNL     1      49.902   7.179  14.176  0.00  0.00    +0.000 N 
ATOM     20  C   UNL     1      50.453   8.433  14.271  0.00  0.00    +0.000 C 
ATOM     21  O   UNL     1      49.904   9.340  14.890  0.00  0.00    +0.000 OA
ATOM     22  H   UNL     1      50.254   6.533  13.476  0.00  0.00    +0.000 HD
BRANCH  20  23
ATOM     23  C   UNL     1      51.771   8.620  13.646  0.00  0.00    +0.000 A 
ATOM     24  C   UNL     1      52.838   9.079  14.408  0.00  0.00    +0.000 A 
ATOM     25  S   UNL     1      54.303   9.191  13.542  0.00  0.00    +0.000 S 
ATOM     26  C   UNL     1      53.553   8.684  12.101  0.00  0.00    +0.000 A 
ATOM     27  N   UNL     1      54.256   8.590  10.941  0.00  0.00    +0.000 NA
ATOM     28  C   UNL     1      53.556   8.227   9.920  0.00  0.00    +0.000 A 
ATOM     29  N   UNL     1      52.215   7.942   9.955  0.00  0.00    +0.000 N 
ATOM     30  C   UNL     1      51.471   7.987  11.110  0.00  0.00    +0.000 A 
ATOM     31  O   UNL     1      50.286   7.673  11.118  0.00  0.00    +0.000 OA
ATOM     32  C   UNL     1      52.208   8.411  12.286  0.00  0.00    +0.000 A 
ATOM     33  H   UNL     1      51.725   7.651   9.121  0.00  0.00    +0.000 HD
ENDBRANCH  20  23
ENDBRANCH  18  19
ENDBRANCH   4  18
TORSDOF 6
ENDMDL
MODEL 9
REMARK VINA RESULT:    -6.660      4.601      7.728
REMARK INTER + INTRA:          -9.921
REMARK INTER:                  -9.030
REMARK INTRA:                  -0.891
REMARK UNBOUND:                -0.924
REMARK  Name = 
REMARK  7 active torsions:
REMARK  status: ('A' for Active; 'I' for Inactive)
REMARK    1  A    between atoms: C_1  and  C_2
REMARK    2  A    between atoms: C_5  and  C_6
REMARK    3  A    between atoms: N_8  and  C_9
REMARK    4  A    between atoms: C_9  and  C_10
REMARK    5  A    between atoms: C_13  and  C_14
REMARK    6  A    between atoms: C_14  and  N_15
REMARK    7  A    between atoms: C_16  and  C_18
REMARK                            x       y       z     vdW  Elec       q    Type
REMARK                         _______ _______ _______ _____ _____    ______ ____
ROOT
ATOM      1  C   UNL     1      50.317   9.065  11.403  0.00  0.00    +0.000 A 
ATOM      2  C   UNL     1      49.879   7.737  11.486  0.00  0.00    +0.000 A 
ATOM      3  C   UNL     1      48.586   7.435  11.935  0.00  0.00    +0.000 A 
ATOM      4  C   UNL     1      47.692   8.456  12.287  0.00  0.00    +0.000 A 
ATOM      5  C   UNL     1      48.129   9.784  12.196  0.00  0.00    +0.000 A 
ATOM      6  C   UNL     1      49.422  10.086  11.748  0.00  0.00    +0.000 A 
ENDROOT
BRANCH   1   7
ATOM      7  C   UNL     1      51.713   9.392  10.929  0.00  0.00    +0.000 C 
BRANCH   7  10
ATOM      8  C   UNL     1      53.482   7.720  10.462  0.00  0.00    +0.000 C 
ATOM      9  O   UNL     1      54.156   8.087  11.426  0.00  0.00    +0.000 OA
ATOM     10  N   UNL     1      52.274   8.310  10.160  0.00  0.00    +0.000 N 
ATOM     11  H   UNL     1      51.741   7.931   9.387  0.00  0.00    +0.000 HD
BRANCH   8  16
ATOM     12  C   UNL     1      53.924   4.385   6.347  0.00  0.00    +0.000 C 
ATOM     13  C   UNL     1      54.117   5.078   7.652  0.00  0.00    +0.000 A 
ATOM     14  C   UNL     1      55.025   4.807   8.653  0.00  0.00    +0.000 A 
ATOM     15  C   UNL     1      54.893   5.709   9.754  0.00  0.00    +0.000 A 
ATOM     16  C   UNL     1      53.891   6.644   9.564  0.00  0.00    +0.000 A 
ATOM     17  S   UNL     1      53.121   6.406   8.048  0.00  0.00    +0.000 S 
ENDBRANCH   8  16
ENDBRANCH   7  10
ENDBRANCH   1   7
BRANCH   4  18
ATOM     18  C   UNL     1      46.303   8.139  12.783  0.00  0.00    +0.000 C 
BRANCH  18  19
ATOM     19  N   UNL     1      45.903   6.798  12.429  0.00  0.00    +0.000 N 
ATOM     20  C   UNL     1      44.765   6.555  11.701  0.00  0.00    +0.000 C 
ATOM     21  O   UNL     1      44.054   7.465  11.282  0.00  0.00    +0.000 OA
ATOM     22  H   UNL     1      46.331   6.038  12.951  0.00  0.00    +0.000 HD
BRANCH  20  23
ATOM     23  C   UNL     1      44.471   5.148  11.390  0.00  0.00    +0.000 A 
ATOM     24  C   UNL     1      43.721   4.387  12.277  0.00  0.00    +0.000 A 
ATOM     25  S   UNL     1      43.429   2.794  11.739  0.00  0.00    +0.000 S 
ATOM     26  C   UNL     1      44.343   3.046  10.326  0.00  0.00    +0.000 A 
ATOM     27  N   UNL     1      44.523   2.047   9.421  0.00  0.00    +0.000 NA
ATOM     28  C   UNL     1      45.264   2.366   8.414  0.00  0.00    +0.000 A 
ATOM     29  N   UNL     1      45.837   3.597   8.225  0.00  0.00    +0.000 N 
ATOM     30  C   UNL     1      45.653   4.648   9.094  0.00  0.00    +0.000 A 
ATOM     31  O   UNL     1      46.135   5.753   8.868  0.00  0.00    +0.000 OA
ATOM     32  C   UNL     1      44.843   4.336  10.255  0.00  0.00    +0.000 A 
ATOM     33  H   UNL     1      46.399   3.788   7.409  0.00  0.00    +0.000 HD
ENDBRANCH  20  23
ENDBRANCH  18  19
ENDBRANCH   4  18
TORSDOF 6
ENDMDL
