MODEL 1
REMARK VINA RESULT:    -8.198      0.000      0.000
REMARK INTER + INTRA:         -13.272
REMARK INTER:                 -12.032
REMARK INTRA:                  -1.241
REMARK UNBOUND:                -1.241
REMARK  Name = 
REMARK  9 active torsions:
REMARK  status: ('A' for Active; 'I' for Inactive)
REMARK    1  A    between atoms: C_1  and  O_2
REMARK    2  A    between atoms: O_2  and  C_3
REMARK    3  A    between atoms: C_10  and  C_11
REMARK    4  A    between atoms: N_13  and  C_14
REMARK    5  A    between atoms: C_14  and  C_15
REMARK    6  A    between atoms: C_18  and  C_19
REMARK    7  A    between atoms: C_19  and  O_20
REMARK    8  A    between atoms: O_20  and  C_21
REMARK    9  A    between atoms: C_21  and  C_22
REMARK                            x       y       z     vdW  Elec       q    Type
REMARK                         _______ _______ _______ _____ _____    ______ ____
ROOT
ATOM      1  C   UNL     1      48.053   6.733  13.249  0.00  0.00    +0.000 C 
ENDROOT
BRANCH   1   2
ATOM      2  C   UNL     1      46.939   5.918  12.644  0.00  0.00    +0.000 A 
ATOM      3  C   UNL     1      46.433   4.792  13.305  0.00  0.00    +0.000 A 
ATOM      4  C   UNL     1      45.344   4.089  12.777  0.00  0.00    +0.000 A 
ATOM      5  C   UNL     1      44.746   4.494  11.576  0.00  0.00    +0.000 A 
ATOM      6  C   UNL     1      45.288   5.588  10.890  0.00  0.00    +0.000 A 
ATOM      7  C   UNL     1      46.378   6.289  11.416  0.00  0.00    +0.000 A 
BRANCH   5   8
ATOM      8  C   UNL     1      43.525   3.780  11.049  0.00  0.00    +0.000 C 
BRANCH   8   9
ATOM      9  O   UNL     1      43.789   3.379   9.708  0.00  0.00    +0.000 OA
BRANCH   9  10
ATOM     10  C   UNL     1      44.552   2.172   9.643  0.00  0.00    +0.000 C 
BRANCH  10  11
ATOM     11  C   UNL     1      45.566   2.241   8.521  0.00  0.00    +0.000 A 
ATOM     12  C   UNL     1      45.784   3.434   7.831  0.00  0.00    +0.000 A 
ATOM     13  C   UNL     1      46.726   3.465   6.807  0.00  0.00    +0.000 A 
ATOM     14  C   UNL     1      47.439   2.313   6.506  0.00  0.00    +0.000 A 
ATOM     15  C   UNL     1      47.182   1.174   7.252  0.00  0.00    +0.000 A 
ATOM     16  N   UNL     1      46.272   1.113   8.252  0.00  0.00    +0.000 NA
ENDBRANCH  10  11
ENDBRANCH   9  10
ENDBRANCH   8   9
ENDBRANCH   5   8
ENDBRANCH   1   2
BRANCH   1  19
ATOM     17  C   UNL     1      49.114   6.909  15.443  0.00  0.00    +0.000 C 
ATOM     18  O   UNL     1      50.223   6.967  14.914  0.00  0.00    +0.000 OA
ATOM     19  N   UNL     1      47.979   6.780  14.687  0.00  0.00    +0.000 N 
ATOM     20  H   UNL     1      47.066   6.756  15.121  0.00  0.00    +0.000 HD
BRANCH  17  28
ATOM     21  C   UNL     1      48.922   4.530  17.932  0.00  0.00    +0.000 A 
ATOM     22  N   UNL     1      48.781   3.833  19.078  0.00  0.00    +0.000 NA
ATOM     23  C   UNL     1      48.627   4.515  20.215  0.00  0.00    +0.000 A 
ATOM     24  N   UNL     1      48.598   5.837  20.357  0.00  0.00    +0.000 NA
ATOM     25  C   UNL     1      48.726   6.493  19.191  0.00  0.00    +0.000 A 
ATOM     26  S   UNL     1      48.717   8.190  19.186  0.00  0.00    +0.000 S 
ATOM     27  C   UNL     1      48.896   8.233  17.499  0.00  0.00    +0.000 A 
ATOM     28  C   UNL     1      48.967   6.977  16.906  0.00  0.00    +0.000 A 
ATOM     29  C   UNL     1      48.878   5.934  17.925  0.00  0.00    +0.000 A 
BRANCH  21  31
ATOM     30  C   UNL     1      47.886   3.196  16.319  0.00  0.00    +0.000 C 
ATOM     31  O   UNL     1      49.090   3.822  16.759  0.00  0.00    +0.000 OA
ENDBRANCH  21  31
ENDBRANCH  17  28
ENDBRANCH   1  19
TORSDOF 8
ENDMDL
MODEL 2
REMARK VINA RESULT:    -7.719      0.965      1.387
REMARK INTER + INTRA:         -12.570
REMARK INTER:                 -11.543
REMARK INTRA:                  -1.027
REMARK UNBOUND:                -1.241
REMARK  Name = 
REMARK  9 active torsions:
REMARK  status: ('A' for Active; 'I' for Inactive)
REMARK    1  A    between atoms: C_1  and  O_2
REMARK    2  A    between atoms: O_2  and  C_3
REMARK    3  A    between atoms: C_10  and  C_11
REMARK    4  A    between atoms: N_13  and  C_14
REMARK    5  A    between atoms: C_14  and  C_15
REMARK    6  A    between atoms: C_18  and  C_19
REMARK    7  A    between atoms: C_19  and  O_20
REMARK    8  A    between atoms: O_20  and  C_21
REMARK    9  A    between atoms: C_21  and  C_22
REMARK                            x       y       z     vdW  Elec       q    Type
REMARK                         _______ _______ _______ _____ _____    ______ ____
ROOT
ATOM      1  C   UNL     1      48.246   6.456  13.429  0.00  0.00    +0.000 C 
ENDROOT
BRANCH   1   2
ATOM      2  C   UNL     1      46.975   5.970  12.782  0.00  0.00    +0.000 A 
ATOM      3  C   UNL     1      46.600   6.417  11.509  0.00  0.00    +0.000 A 
ATOM      4  C   UNL     1      45.463   5.899  10.881  0.00  0.00    +0.000 A 
ATOM      5  C   UNL     1      44.673   4.930  11.517  0.00  0.00    +0.000 A 
ATOM      6  C   UNL     1      45.019   4.525  12.812  0.00  0.00    +0.000 A 
ATOM      7  C   UNL     1      46.155   5.044  13.441  0.00  0.00    +0.000 A 
BRANCH   5   8
ATOM      8  C   UNL     1      43.490   4.319  10.806  0.00  0.00    +0.000 C 
BRANCH   8   9
ATOM      9  O   UNL     1      43.926   3.862   9.530  0.00  0.00    +0.000 OA
BRANCH   9  10
ATOM     10  C   UNL     1      44.502   2.555   9.590  0.00  0.00    +0.000 C 
BRANCH  10  11
ATOM     11  C   UNL     1      45.540   2.379   8.501  0.00  0.00    +0.000 A 
ATOM     12  C   UNL     1      45.921   3.456   7.701  0.00  0.00    +0.000 A 
ATOM     13  C   UNL     1      46.880   3.261   6.711  0.00  0.00    +0.000 A 
ATOM     14  C   UNL     1      47.446   2.004   6.553  0.00  0.00    +0.000 A 
ATOM     15  C   UNL     1      47.033   0.992   7.403  0.00  0.00    +0.000 A 
ATOM     16  N   UNL     1      46.103   1.150   8.372  0.00  0.00    +0.000 NA
ENDBRANCH  10  11
ENDBRANCH   9  10
ENDBRANCH   8   9
ENDBRANCH   5   8
ENDBRANCH   1   2
BRANCH   1  19
ATOM     17  C   UNL     1      49.062   7.113  15.636  0.00  0.00    +0.000 C 
ATOM     18  O   UNL     1      50.205   6.783  15.323  0.00  0.00    +0.000 OA
ATOM     19  N   UNL     1      48.024   6.973  14.755  0.00  0.00    +0.000 N 
ATOM     20  H   UNL     1      47.089   7.267  15.005  0.00  0.00    +0.000 HD
BRANCH  17  28
ATOM     21  C   UNL     1      48.032   5.736  18.624  0.00  0.00    +0.000 A 
ATOM     22  N   UNL     1      47.601   5.481  19.877  0.00  0.00    +0.000 NA
ATOM     23  C   UNL     1      47.485   6.507  20.724  0.00  0.00    +0.000 A 
ATOM     24  N   UNL     1      47.756   7.784  20.474  0.00  0.00    +0.000 NA
ATOM     25  C   UNL     1      48.167   7.997  19.212  0.00  0.00    +0.000 A 
ATOM     26  S   UNL     1      48.562   9.572  18.720  0.00  0.00    +0.000 S 
ATOM     27  C   UNL     1      48.935   9.040  17.152  0.00  0.00    +0.000 A 
ATOM     28  C   UNL     1      48.773   7.671  16.967  0.00  0.00    +0.000 A 
ATOM     29  C   UNL     1      48.324   7.045  18.208  0.00  0.00    +0.000 A 
BRANCH  21  31
ATOM     30  C   UNL     1      48.418   3.441  18.425  0.00  0.00    +0.000 C 
ATOM     31  O   UNL     1      48.158   4.672  17.753  0.00  0.00    +0.000 OA
ENDBRANCH  21  31
ENDBRANCH  17  28
ENDBRANCH   1  19
TORSDOF 8
ENDMDL
MODEL 3
REMARK VINA RESULT:    -7.674      1.688      2.852
REMARK INTER + INTRA:         -12.503
REMARK INTER:                 -11.321
REMARK INTRA:                  -1.182
REMARK UNBOUND:                -1.241
REMARK  Name = 
REMARK  9 active torsions:
REMARK  status: ('A' for Active; 'I' for Inactive)
REMARK    1  A    between atoms: C_1  and  O_2
REMARK    2  A    between atoms: O_2  and  C_3
REMARK    3  A    between atoms: C_10  and  C_11
REMARK    4  A    between atoms: N_13  and  C_14
REMARK    5  A    between atoms: C_14  and  C_15
REMARK    6  A    between atoms: C_18  and  C_19
REMARK    7  A    between atoms: C_19  and  O_20
REMARK    8  A    between atoms: O_20  and  C_21
REMARK    9  A    between atoms: C_21  and  C_22
REMARK                            x       y       z     vdW  Elec       q    Type
REMARK                         _______ _______ _______ _____ _____    ______ ____
ROOT
ATOM      1  C   UNL     1      48.211   6.183  14.063  0.00  0.00    +0.000 C 
ENDROOT
BRANCH   1   2
ATOM      2  C   UNL     1      46.984   5.800  13.279  0.00  0.00    +0.000 A 
ATOM      3  C   UNL     1      46.700   6.406  12.049  0.00  0.00    +0.000 A 
ATOM      4  C   UNL     1      45.603   5.986  11.288  0.00  0.00    +0.000 A 
ATOM      5  C   UNL     1      44.765   4.960  11.745  0.00  0.00    +0.000 A 
ATOM      6  C   UNL     1      45.019   4.393  13.001  0.00  0.00    +0.000 A 
ATOM      7  C   UNL     1      46.114   4.814  13.763  0.00  0.00    +0.000 A 
BRANCH   5   8
ATOM      8  C   UNL     1      43.628   4.458  10.888  0.00  0.00    +0.000 C 
BRANCH   8   9
ATOM      9  O   UNL     1      44.163   4.060   9.630  0.00  0.00    +0.000 OA
BRANCH   9  10
ATOM     10  C   UNL     1      44.581   2.694   9.626  0.00  0.00    +0.000 C 
BRANCH  10  11
ATOM     11  C   UNL     1      45.547   2.435   8.489  0.00  0.00    +0.000 A 
ATOM     12  C   UNL     1      45.884   3.452   7.596  0.00  0.00    +0.000 A 
ATOM     13  C   UNL     1      46.778   3.181   6.563  0.00  0.00    +0.000 A 
ATOM     14  C   UNL     1      47.326   1.911   6.456  0.00  0.00    +0.000 A 
ATOM     15  C   UNL     1      46.960   0.961   7.396  0.00  0.00    +0.000 A 
ATOM     16  N   UNL     1      46.093   1.194   8.409  0.00  0.00    +0.000 NA
ENDBRANCH  10  11
ENDBRANCH   9  10
ENDBRANCH   8   9
ENDBRANCH   5   8
ENDBRANCH   1   2
BRANCH   1  19
ATOM     17  C   UNL     1      48.702   6.046  16.454  0.00  0.00    +0.000 C 
ATOM     18  O   UNL     1      49.680   5.336  16.222  0.00  0.00    +0.000 OA
ATOM     19  N   UNL     1      47.909   6.503  15.435  0.00  0.00    +0.000 N 
ATOM     20  H   UNL     1      47.119   7.106  15.624  0.00  0.00    +0.000 HD
BRANCH  17  28
ATOM     21  C   UNL     1      47.861   9.035  17.954  0.00  0.00    +0.000 A 
ATOM     22  N   UNL     1      47.555  10.047  18.792  0.00  0.00    +0.000 NA
ATOM     23  C   UNL     1      47.369   9.760  20.082  0.00  0.00    +0.000 A 
ATOM     24  N   UNL     1      47.450   8.563  20.655  0.00  0.00    +0.000 NA
ATOM     25  C   UNL     1      47.772   7.587  19.790  0.00  0.00    +0.000 A 
ATOM     26  S   UNL     1      47.913   5.991  20.350  0.00  0.00    +0.000 S 
ATOM     27  C   UNL     1      48.316   5.433  18.798  0.00  0.00    +0.000 A 
ATOM     28  C   UNL     1      48.352   6.430  17.830  0.00  0.00    +0.000 A 
ATOM     29  C   UNL     1      48.013   7.720  18.425  0.00  0.00    +0.000 A 
BRANCH  21  31
ATOM     30  C   UNL     1      48.942  10.423  16.417  0.00  0.00    +0.000 C 
ATOM     31  O   UNL     1      48.045   9.333  16.618  0.00  0.00    +0.000 OA
ENDBRANCH  21  31
ENDBRANCH  17  28
ENDBRANCH   1  19
TORSDOF 8
ENDMDL
MODEL 4
REMARK VINA RESULT:    -7.270      1.751      3.169
REMARK INTER + INTRA:         -11.911
REMARK INTER:                 -10.701
REMARK INTRA:                  -1.210
REMARK UNBOUND:                -1.241
REMARK  Name = 
REMARK  9 active torsions:
REMARK  status: ('A' for Active; 'I' for Inactive)
REMARK    1  A    between atoms: C_1  and  O_2
REMARK    2  A    between atoms: O_2  and  C_3
REMARK    3  A    between atoms: C_10  and  C_11
REMARK    4  A    between atoms: N_13  and  C_14
REMARK    5  A    between atoms: C_14  and  C_15
REMARK    6  A    between atoms: C_18  and  C_19
REMARK    7  A    between atoms: C_19  and  O_20
REMARK    8  A    between atoms: O_20  and  C_21
REMARK    9  A    between atoms: C_21  and  C_22
REMARK                            x       y       z     vdW  Elec       q    Type
REMARK                         _______ _______ _______ _____ _____    ______ ____
ROOT
ATOM      1  C   UNL     1      47.225   4.144  14.915  0.00  0.00    +0.000 C 
ENDROOT
BRANCH   1   2
ATOM      2  C   UNL     1      46.359   4.306  13.694  0.00  0.00    +0.000 A 
ATOM      3  C   UNL     1      45.924   3.189  12.969  0.00  0.00    +0.000 A 
ATOM      4  C   UNL     1      45.053   3.342  11.885  0.00  0.00    +0.000 A 
ATOM      5  C   UNL     1      44.605   4.613  11.500  0.00  0.00    +0.000 A 
ATOM      6  C   UNL     1      45.084   5.733  12.193  0.00  0.00    +0.000 A 
ATOM      7  C   UNL     1      45.957   5.581  13.275  0.00  0.00    +0.000 A 
BRANCH   5   8
ATOM      8  C   UNL     1      43.606   4.768  10.379  0.00  0.00    +0.000 C 
BRANCH   8   9
ATOM      9  O   UNL     1      44.007   3.920   9.308  0.00  0.00    +0.000 OA
BRANCH   9  10
ATOM     10  C   UNL     1      45.161   4.415   8.627  0.00  0.00    +0.000 C 
BRANCH  10  11
ATOM     11  C   UNL     1      45.894   3.287   7.930  0.00  0.00    +0.000 A 
ATOM     12  C   UNL     1      46.607   3.522   6.754  0.00  0.00    +0.000 A 
ATOM     13  C   UNL     1      47.271   2.464   6.140  0.00  0.00    +0.000 A 
ATOM     14  C   UNL     1      47.225   1.205   6.721  0.00  0.00    +0.000 A 
ATOM     15  C   UNL     1      46.516   1.057   7.902  0.00  0.00    +0.000 A 
ATOM     16  N   UNL     1      45.859   2.065   8.521  0.00  0.00    +0.000 NA
ENDBRANCH  10  11
ENDBRANCH   9  10
ENDBRANCH   8   9
ENDBRANCH   5   8
ENDBRANCH   1   2
BRANCH   1  19
ATOM     17  C   UNL     1      48.508   5.500  16.493  0.00  0.00    +0.000 C 
ATOM     18  O   UNL     1      49.153   4.509  16.835  0.00  0.00    +0.000 OA
ATOM     19  N   UNL     1      47.520   5.403  15.549  0.00  0.00    +0.000 N 
ATOM     20  H   UNL     1      47.007   6.222  15.252  0.00  0.00    +0.000 HD
BRANCH  17  28
ATOM     21  C   UNL     1      48.683   8.694  15.209  0.00  0.00    +0.000 A 
ATOM     22  N   UNL     1      48.852  10.013  14.978  0.00  0.00    +0.000 NA
ATOM     23  C   UNL     1      49.158  10.799  16.013  0.00  0.00    +0.000 A 
ATOM     24  N   UNL     1      49.316  10.428  17.280  0.00  0.00    +0.000 NA
ATOM     25  C   UNL     1      49.155   9.106  17.464  0.00  0.00    +0.000 A 
ATOM     26  S   UNL     1      49.316   8.458  19.024  0.00  0.00    +0.000 S 
ATOM     27  C   UNL     1      49.007   6.889  18.454  0.00  0.00    +0.000 A 
ATOM     28  C   UNL     1      48.776   6.820  17.085  0.00  0.00    +0.000 A 
ATOM     29  C   UNL     1      48.852   8.153  16.495  0.00  0.00    +0.000 A 
BRANCH  21  31
ATOM     30  C   UNL     1      49.496   7.537  13.350  0.00  0.00    +0.000 C 
ATOM     31  O   UNL     1      48.359   7.885  14.138  0.00  0.00    +0.000 OA
ENDBRANCH  21  31
ENDBRANCH  17  28
ENDBRANCH   1  19
TORSDOF 8
ENDMDL
MODEL 5
REMARK VINA RESULT:    -6.837      1.944      3.309
REMARK INTER + INTRA:         -11.276
REMARK INTER:                 -10.037
REMARK INTRA:                  -1.239
REMARK UNBOUND:                -1.241
REMARK  Name = 
REMARK  9 active torsions:
REMARK  status: ('A' for Active; 'I' for Inactive)
REMARK    1  A    between atoms: C_1  and  O_2
REMARK    2  A    between atoms: O_2  and  C_3
REMARK    3  A    between atoms: C_10  and  C_11
REMARK    4  A    between atoms: N_13  and  C_14
REMARK    5  A    between atoms: C_14  and  C_15
REMARK    6  A    between atoms: C_18  and  C_19
REMARK    7  A    between atoms: C_19  and  O_20
REMARK    8  A    between atoms: O_20  and  C_21
REMARK    9  A    between atoms: C_21  and  C_22
REMARK                            x       y       z     vdW  Elec       q    Type
REMARK                         _______ _______ _______ _____ _____    ______ ____
ROOT
ATOM      1  C   UNL     1      47.770   4.464  15.732  0.00  0.00    +0.000 C 
ENDROOT
BRANCH   1   2
ATOM      2  C   UNL     1      47.090   4.760  14.421  0.00  0.00    +0.000 A 
ATOM      3  C   UNL     1      47.213   6.018  13.817  0.00  0.00    +0.000 A 
ATOM      4  C   UNL     1      46.648   6.260  12.560  0.00  0.00    +0.000 A 
ATOM      5  C   UNL     1      45.942   5.253  11.887  0.00  0.00    +0.000 A 
ATOM      6  C   UNL     1      45.774   4.014  12.518  0.00  0.00    +0.000 A 
ATOM      7  C   UNL     1      46.337   3.772  13.774  0.00  0.00    +0.000 A 
BRANCH   5   8
ATOM      8  C   UNL     1      45.398   5.494  10.500  0.00  0.00    +0.000 C 
BRANCH   8   9
ATOM      9  O   UNL     1      44.680   4.332  10.097  0.00  0.00    +0.000 OA
BRANCH   9  10
ATOM     10  C   UNL     1      44.532   4.251   8.678  0.00  0.00    +0.000 C 
BRANCH  10  11
ATOM     11  C   UNL     1      45.555   3.303   8.087  0.00  0.00    +0.000 A 
ATOM     12  C   UNL     1      45.625   1.977   8.513  0.00  0.00    +0.000 A 
ATOM     13  C   UNL     1      46.575   1.131   7.948  0.00  0.00    +0.000 A 
ATOM     14  C   UNL     1      47.420   1.622   6.962  0.00  0.00    +0.000 A 
ATOM     15  C   UNL     1      47.272   2.944   6.576  0.00  0.00    +0.000 A 
ATOM     16  N   UNL     1      46.360   3.790   7.108  0.00  0.00    +0.000 NA
ENDBRANCH  10  11
ENDBRANCH   9  10
ENDBRANCH   8   9
ENDBRANCH   5   8
ENDBRANCH   1   2
BRANCH   1  19
ATOM     17  C   UNL     1      48.372   5.638  17.789  0.00  0.00    +0.000 C 
ATOM     18  O   UNL     1      49.337   4.890  17.945  0.00  0.00    +0.000 OA
ATOM     19  N   UNL     1      47.533   5.488  16.717  0.00  0.00    +0.000 N 
ATOM     20  H   UNL     1      46.754   6.118  16.576  0.00  0.00    +0.000 HD
BRANCH  17  28
ATOM     21  C   UNL     1      47.984   9.050  17.481  0.00  0.00    +0.000 A 
ATOM     22  N   UNL     1      47.832  10.379  17.658  0.00  0.00    +0.000 NA
ATOM     23  C   UNL     1      47.613  10.828  18.896  0.00  0.00    +0.000 A 
ATOM     24  N   UNL     1      47.520  10.101  20.005  0.00  0.00    +0.000 NA
ATOM     25  C   UNL     1      47.693   8.786  19.788  0.00  0.00    +0.000 A 
ATOM     26  S   UNL     1      47.602   7.707  21.095  0.00  0.00    +0.000 S 
ATOM     27  C   UNL     1      47.912   6.381  20.082  0.00  0.00    +0.000 A 
ATOM     28  C   UNL     1      48.089   6.720  18.745  0.00  0.00    +0.000 A 
ATOM     29  C   UNL     1      47.944   8.162  18.569  0.00  0.00    +0.000 A 
BRANCH  21  31
ATOM     30  C   UNL     1      49.581   8.620  15.831  0.00  0.00    +0.000 C 
ATOM     31  O   UNL     1      48.203   8.588  16.199  0.00  0.00    +0.000 OA
ENDBRANCH  21  31
ENDBRANCH  17  28
ENDBRANCH   1  19
TORSDOF 8
ENDMDL
MODEL 6
REMARK VINA RESULT:    -6.668      3.269      4.784
REMARK INTER + INTRA:         -11.027
REMARK INTER:                  -9.984
REMARK INTRA:                  -1.043
REMARK UNBOUND:                -1.241
REMARK  Name = 
REMARK  9 active torsions:
REMARK  status: ('A' for Active; 'I' for Inactive)
REMARK    1  A    between atoms: C_1  and  O_2
REMARK    2  A    between atoms: O_2  and  C_3
REMARK    3  A    between atoms: C_10  and  C_11
REMARK    4  A    between atoms: N_13  and  C_14
REMARK    5  A    between atoms: C_14  and  C_15
REMARK    6  A    between atoms: C_18  and  C_19
REMARK    7  A    between atoms: C_19  and  O_20
REMARK    8  A    between atoms: O_20  and  C_21
REMARK    9  A    between atoms: C_21  and  C_22
REMARK                            x       y       z     vdW  Elec       q    Type
REMARK                         _______ _______ _______ _____ _____    ______ ____
ROOT
ATOM      1  C   UNL     1      47.710   3.479  17.107  0.00  0.00    +0.000 C 
ENDROOT
BRANCH   1   2
ATOM      2  C   UNL     1      47.618   4.366  15.894  0.00  0.00    +0.000 A 
ATOM      3  C   UNL     1      46.883   3.970  14.769  0.00  0.00    +0.000 A 
ATOM      4  C   UNL     1      46.734   4.834  13.679  0.00  0.00    +0.000 A 
ATOM      5  C   UNL     1      47.323   6.106  13.687  0.00  0.00    +0.000 A 
ATOM      6  C   UNL     1      48.103   6.478  14.790  0.00  0.00    +0.000 A 
ATOM      7  C   UNL     1      48.254   5.614  15.879  0.00  0.00    +0.000 A 
BRANCH   5   8
ATOM      8  C   UNL     1      47.098   7.063  12.542  0.00  0.00    +0.000 C 
BRANCH   8   9
ATOM      9  O   UNL     1      46.907   6.299  11.356  0.00  0.00    +0.000 OA
BRANCH   9  10
ATOM     10  C   UNL     1      45.533   6.229  10.970  0.00  0.00    +0.000 C 
BRANCH  10  11
ATOM     11  C   UNL     1      45.278   5.000  10.123  0.00  0.00    +0.000 A 
ATOM     12  C   UNL     1      44.537   3.931  10.626  0.00  0.00    +0.000 A 
ATOM     13  C   UNL     1      44.318   2.817   9.820  0.00  0.00    +0.000 A 
ATOM     14  C   UNL     1      44.827   2.804   8.528  0.00  0.00    +0.000 A 
ATOM     15  C   UNL     1      45.531   3.914   8.094  0.00  0.00    +0.000 A 
ATOM     16  N   UNL     1      45.762   5.010   8.854  0.00  0.00    +0.000 NA
ENDBRANCH  10  11
ENDBRANCH   9  10
ENDBRANCH   8   9
ENDBRANCH   5   8
ENDBRANCH   1   2
BRANCH   1  19
ATOM     17  C   UNL     1      49.888   2.381  16.946  0.00  0.00    +0.000 C 
ATOM     18  O   UNL     1      49.477   1.681  16.021  0.00  0.00    +0.000 OA
ATOM     19  N   UNL     1      49.068   3.296  17.552  0.00  0.00    +0.000 N 
ATOM     20  H   UNL     1      49.413   3.887  18.296  0.00  0.00    +0.000 HD
BRANCH  17  28
ATOM     21  C   UNL     1      52.202   4.645  18.131  0.00  0.00    +0.000 A 
ATOM     22  N   UNL     1      53.293   5.299  18.580  0.00  0.00    +0.000 NA
ATOM     23  C   UNL     1      54.391   4.585  18.843  0.00  0.00    +0.000 A 
ATOM     24  N   UNL     1      54.539   3.270  18.715  0.00  0.00    +0.000 NA
ATOM     25  C   UNL     1      53.436   2.660  18.250  0.00  0.00    +0.000 A 
ATOM     26  S   UNL     1      53.446   0.977  18.030  0.00  0.00    +0.000 S 
ATOM     27  C   UNL     1      51.845   0.994  17.465  0.00  0.00    +0.000 A 
ATOM     28  C   UNL     1      51.271   2.261  17.431  0.00  0.00    +0.000 A 
ATOM     29  C   UNL     1      52.223   3.257  17.915  0.00  0.00    +0.000 A 
BRANCH  21  31
ATOM     30  C   UNL     1      50.752   6.300  18.915  0.00  0.00    +0.000 C 
ATOM     31  O   UNL     1      51.066   5.384  17.867  0.00  0.00    +0.000 OA
ENDBRANCH  21  31
ENDBRANCH  17  28
ENDBRANCH   1  19
TORSDOF 8
ENDMDL
MODEL 7
REMARK VINA RESULT:    -6.465      1.596      2.180
REMARK INTER + INTRA:         -10.729
REMARK INTER:                  -9.755
REMARK INTRA:                  -0.974
REMARK UNBOUND:                -1.241
REMARK  Name = 
REMARK  9 active torsions:
REMARK  status: ('A' for Active; 'I' for Inactive)
REMARK    1  A    between atoms: C_1  and  O_2
REMARK    2  A    between atoms: O_2  and  C_3
REMARK    3  A    between atoms: C_10  and  C_11
REMARK    4  A    between atoms: N_13  and  C_14
REMARK    5  A    between atoms: C_14  and  C_15
REMARK    6  A    between atoms: C_18  and  C_19
REMARK    7  A    between atoms: C_19  and  O_20
REMARK    8  A    between atoms: O_20  and  C_21
REMARK    9  A    between atoms: C_21  and  C_22
REMARK                            x       y       z     vdW  Elec       q    Type
REMARK                         _______ _______ _______ _____ _____    ______ ____
ROOT
ATOM      1  C   UNL     1      49.133   7.395  13.799  0.00  0.00    +0.000 C 
ENDROOT
BRANCH   1   2
ATOM      2  C   UNL     1      47.950   6.700  13.177  0.00  0.00    +0.000 A 
ATOM      3  C   UNL     1      47.492   7.064  11.904  0.00  0.00    +0.000 A 
ATOM      4  C   UNL     1      46.445   6.359  11.299  0.00  0.00    +0.000 A 
ATOM      5  C   UNL     1      45.831   5.284  11.956  0.00  0.00    +0.000 A 
ATOM      6  C   UNL     1      46.255   4.958  13.251  0.00  0.00    +0.000 A 
ATOM      7  C   UNL     1      47.300   5.663  13.857  0.00  0.00    +0.000 A 
BRANCH   5   8
ATOM      8  C   UNL     1      44.755   4.479  11.270  0.00  0.00    +0.000 C 
BRANCH   8   9
ATOM      9  O   UNL     1      44.690   4.894   9.909  0.00  0.00    +0.000 OA
BRANCH   9  10
ATOM     10  C   UNL     1      44.236   3.850   9.045  0.00  0.00    +0.000 C 
BRANCH  10  11
ATOM     11  C   UNL     1      45.404   3.203   8.330  0.00  0.00    +0.000 A 
ATOM     12  C   UNL     1      45.649   1.836   8.461  0.00  0.00    +0.000 A 
ATOM     13  C   UNL     1      46.729   1.272   7.788  0.00  0.00    +0.000 A 
ATOM     14  C   UNL     1      47.527   2.079   6.990  0.00  0.00    +0.000 A 
ATOM     15  C   UNL     1      47.205   3.422   6.892  0.00  0.00    +0.000 A 
ATOM     16  N   UNL     1      46.163   4.000   7.534  0.00  0.00    +0.000 NA
ENDBRANCH  10  11
ENDBRANCH   9  10
ENDBRANCH   8   9
ENDBRANCH   5   8
ENDBRANCH   1   2
BRANCH   1  19
ATOM     17  C   UNL     1      48.634   8.347  15.993  0.00  0.00    +0.000 C 
ATOM     18  O   UNL     1      48.212   9.374  15.463  0.00  0.00    +0.000 OA
ATOM     19  N   UNL     1      49.121   7.315  15.237  0.00  0.00    +0.000 N 
ATOM     20  H   UNL     1      49.446   6.462  15.673  0.00  0.00    +0.000 HD
BRANCH  17  28
ATOM     21  C   UNL     1      50.228   6.199  18.169  0.00  0.00    +0.000 A 
ATOM     22  N   UNL     1      50.672   5.483  19.222  0.00  0.00    +0.000 NA
ATOM     23  C   UNL     1      50.242   5.821  20.440  0.00  0.00    +0.000 A 
ATOM     24  N   UNL     1      49.408   6.810  20.747  0.00  0.00    +0.000 NA
ATOM     25  C   UNL     1      48.977   7.488  19.669  0.00  0.00    +0.000 A 
ATOM     26  S   UNL     1      47.908   8.790  19.877  0.00  0.00    +0.000 S 
ATOM     27  C   UNL     1      47.848   9.068  18.204  0.00  0.00    +0.000 A 
ATOM     28  C   UNL     1      48.628   8.193  17.457  0.00  0.00    +0.000 A 
ATOM     29  C   UNL     1      49.315   7.253  18.339  0.00  0.00    +0.000 A 
BRANCH  21  31
ATOM     30  C   UNL     1      52.085   6.051  16.760  0.00  0.00    +0.000 C 
ATOM     31  O   UNL     1      50.680   5.852  16.912  0.00  0.00    +0.000 OA
ENDBRANCH  21  31
ENDBRANCH  17  28
ENDBRANCH   1  19
TORSDOF 8
ENDMDL
MODEL 8
REMARK VINA RESULT:    -6.345      2.669      3.755
REMARK INTER + INTRA:         -10.552
REMARK INTER:                  -9.582
REMARK INTRA:                  -0.971
REMARK UNBOUND:                -1.241
REMARK  Name = 
REMARK  9 active torsions:
REMARK  status: ('A' for Active; 'I' for Inactive)
REMARK    1  A    between atoms: C_1  and  O_2
REMARK    2  A    between atoms: O_2  and  C_3
REMARK    3  A    between atoms: C_10  and  C_11
REMARK    4  A    between atoms: N_13  and  C_14
REMARK    5  A    between atoms: C_14  and  C_15
REMARK    6  A    between atoms: C_18  and  C_19
REMARK    7  A    between atoms: C_19  and  O_20
REMARK    8  A    between atoms: O_20  and  C_21
REMARK    9  A    between atoms: C_21  and  C_22
REMARK                            x       y       z     vdW  Elec       q    Type
REMARK                         _______ _______ _______ _____ _____    ______ ____
ROOT
ATOM      1  C   UNL     1      49.715   8.222  16.092  0.00  0.00    +0.000 C 
ENDROOT
BRANCH   1   2
ATOM      2  C   UNL     1      48.920   7.946  14.843  0.00  0.00    +0.000 A 
ATOM      3  C   UNL     1      49.340   6.976  13.925  0.00  0.00    +0.000 A 
ATOM      4  C   UNL     1      48.553   6.668  12.809  0.00  0.00    +0.000 A 
ATOM      5  C   UNL     1      47.338   7.329  12.585  0.00  0.00    +0.000 A 
ATOM      6  C   UNL     1      46.948   8.338  13.476  0.00  0.00    +0.000 A 
ATOM      7  C   UNL     1      47.734   8.648  14.590  0.00  0.00    +0.000 A 
BRANCH   5   8
ATOM      8  C   UNL     1      46.456   6.942  11.423  0.00  0.00    +0.000 C 
BRANCH   8   9
ATOM      9  O   UNL     1      45.846   5.692  11.726  0.00  0.00    +0.000 OA
BRANCH   9  10
ATOM     10  C   UNL     1      44.734   5.410  10.874  0.00  0.00    +0.000 C 
BRANCH  10  11
ATOM     11  C   UNL     1      45.108   4.374   9.834  0.00  0.00    +0.000 A 
ATOM     12  C   UNL     1      44.812   3.026  10.033  0.00  0.00    +0.000 A 
ATOM     13  C   UNL     1      45.167   2.101   9.056  0.00  0.00    +0.000 A 
ATOM     14  C   UNL     1      45.791   2.542   7.898  0.00  0.00    +0.000 A 
ATOM     15  C   UNL     1      46.029   3.900   7.763  0.00  0.00    +0.000 A 
ATOM     16  N   UNL     1      45.698   4.823   8.695  0.00  0.00    +0.000 NA
ENDBRANCH  10  11
ENDBRANCH   9  10
ENDBRANCH   8   9
ENDBRANCH   5   8
ENDBRANCH   1   2
BRANCH   1  19
ATOM     17  C   UNL     1      50.396   6.308  17.451  0.00  0.00    +0.000 C 
ATOM     18  O   UNL     1      49.402   6.447  18.163  0.00  0.00    +0.000 OA
ATOM     19  N   UNL     1      50.635   7.157  16.403  0.00  0.00    +0.000 N 
ATOM     20  H   UNL     1      51.440   7.028  15.805  0.00  0.00    +0.000 HD
BRANCH  17  28
ATOM     21  C   UNL     1      50.267   2.878  17.125  0.00  0.00    +0.000 A 
ATOM     22  N   UNL     1      50.480   1.546  17.136  0.00  0.00    +0.000 NA
ATOM     23  C   UNL     1      51.671   1.102  17.545  0.00  0.00    +0.000 A 
ATOM     24  N   UNL     1      52.702   1.837  17.949  0.00  0.00    +0.000 NA
ATOM     25  C   UNL     1      52.444   3.156  17.938  0.00  0.00    +0.000 A 
ATOM     26  S   UNL     1      53.654   4.244  18.419  0.00  0.00    +0.000 S 
ATOM     27  C   UNL     1      52.630   5.572  18.155  0.00  0.00    +0.000 A 
ATOM     28  C   UNL     1      51.362   5.226  17.700  0.00  0.00    +0.000 A 
ATOM     29  C   UNL     1      51.257   3.776  17.558  0.00  0.00    +0.000 A 
BRANCH  21  31
ATOM     30  C   UNL     1      48.025   3.205  17.691  0.00  0.00    +0.000 C 
ATOM     31  O   UNL     1      49.038   3.335  16.695  0.00  0.00    +0.000 OA
ENDBRANCH  21  31
ENDBRANCH  17  28
ENDBRANCH   1  19
TORSDOF 8
ENDMDL
MODEL 9
REMARK VINA RESULT:    -6.096      3.633      8.206
REMARK INTER + INTRA:         -10.187
REMARK INTER:                  -8.658
REMARK INTRA:                  -1.530
REMARK UNBOUND:                -1.241
REMARK  Name = 
REMARK  9 active torsions:
REMARK  status: ('A' for Active; 'I' for Inactive)
REMARK    1  A    between atoms: C_1  and  O_2
REMARK    2  A    between atoms: O_2  and  C_3
REMARK    3  A    between atoms: C_10  and  C_11
REMARK    4  A    between atoms: N_13  and  C_14
REMARK    5  A    between atoms: C_14  and  C_15
REMARK    6  A    between atoms: C_18  and  C_19
REMARK    7  A    between atoms: C_19  and  O_20
REMARK    8  A    between atoms: O_20  and  C_21
REMARK    9  A    between atoms: C_21  and  C_22
REMARK                            x       y       z     vdW  Elec       q    Type
REMARK                         _______ _______ _______ _____ _____    ______ ____
ROOT
ATOM      1  C   UNL     1      48.017   9.017  13.918  0.00  0.00    +0.000 C 
ENDROOT
BRANCH   1   2
ATOM      2  C   UNL     1      48.588   8.483  15.205  0.00  0.00    +0.000 A 
ATOM      3  C   UNL     1      49.503   7.423  15.200  0.00  0.00    +0.000 A 
ATOM      4  C   UNL     1      50.091   6.987  16.393  0.00  0.00    +0.000 A 
ATOM      5  C   UNL     1      49.770   7.597  17.614  0.00  0.00    +0.000 A 
ATOM      6  C   UNL     1      48.814   8.620  17.623  0.00  0.00    +0.000 A 
ATOM      7  C   UNL     1      48.224   9.055  16.431  0.00  0.00    +0.000 A 
BRANCH   5   8
ATOM      8  C   UNL     1      50.463   7.175  18.887  0.00  0.00    +0.000 C 
BRANCH   8   9
ATOM      9  O   UNL     1      51.340   6.097  18.578  0.00  0.00    +0.000 OA
BRANCH   9  10
ATOM     10  C   UNL     1      51.019   4.910  19.307  0.00  0.00    +0.000 C 
BRANCH  10  11
ATOM     11  C   UNL     1      50.309   3.913  18.416  0.00  0.00    +0.000 A 
ATOM     12  C   UNL     1      51.036   3.012  17.637  0.00  0.00    +0.000 A 
ATOM     13  C   UNL     1      50.353   2.106  16.831  0.00  0.00    +0.000 A 
ATOM     14  C   UNL     1      48.965   2.107  16.834  0.00  0.00    +0.000 A 
ATOM     15  C   UNL     1      48.316   3.016  17.653  0.00  0.00    +0.000 A 
ATOM     16  N   UNL     1      48.951   3.910  18.445  0.00  0.00    +0.000 NA
ENDBRANCH  10  11
ENDBRANCH   9  10
ENDBRANCH   8   9
ENDBRANCH   5   8
ENDBRANCH   1   2
BRANCH   1  19
ATOM     17  C   UNL     1      46.824   7.430  12.493  0.00  0.00    +0.000 C 
ATOM     18  O   UNL     1      47.857   7.202  11.865  0.00  0.00    +0.000 OA
ATOM     19  N   UNL     1      46.814   8.330  13.525  0.00  0.00    +0.000 N 
ATOM     20  H   UNL     1      45.969   8.500  14.056  0.00  0.00    +0.000 HD
BRANCH  17  28
ATOM     21  C   UNL     1      45.705   4.189  12.862  0.00  0.00    +0.000 A 
ATOM     22  N   UNL     1      45.039   3.017  12.842  0.00  0.00    +0.000 NA
ATOM     23  C   UNL     1      43.810   3.000  12.320  0.00  0.00    +0.000 A 
ATOM     24  N   UNL     1      43.145   4.031  11.807  0.00  0.00    +0.000 NA
ATOM     25  C   UNL     1      43.850   5.175  11.832  0.00  0.00    +0.000 A 
ATOM     26  S   UNL     1      43.151   6.595  11.221  0.00  0.00    +0.000 S 
ATOM     27  C   UNL     1      44.549   7.491  11.574  0.00  0.00    +0.000 A 
ATOM     28  C   UNL     1      45.566   6.744  12.158  0.00  0.00    +0.000 A 
ATOM     29  C   UNL     1      45.140   5.357  12.323  0.00  0.00    +0.000 A 
BRANCH  21  31
ATOM     30  C   UNL     1      46.971   4.575  14.787  0.00  0.00    +0.000 C 
ATOM     31  O   UNL     1      46.973   4.206  13.410  0.00  0.00    +0.000 OA
ENDBRANCH  21  31
ENDBRANCH  17  28
ENDBRANCH   1  19
TORSDOF 8
ENDMDL
