MODEL 1
REMARK VINA RESULT:    -7.710      0.000      0.000
REMARK INTER + INTRA:         -10.033
REMARK INTER:                  -9.513
REMARK INTRA:                  -0.520
REMARK UNBOUND:                -0.520
REMARK  Name = 
REMARK  4 active torsions:
REMARK  status: ('A' for Active; 'I' for Inactive)
REMARK    1  A    between atoms: C_2  and  C_5
REMARK    2  A    between atoms: N_8  and  C_9
REMARK    3  A    between atoms: C_13  and  C_14
REMARK    4  A    between atoms: C_14  and  N_15
REMARK                            x       y       z     vdW  Elec       q    Type
REMARK                         _______ _______ _______ _____ _____    ______ ____
ROOT
ATOM      1  C   UNL     1      45.087   5.914  12.204  0.00  0.00    +0.000 A 
ATOM      2  C   UNL     1      44.004   5.746  13.076  0.00  0.00    +0.000 A 
ATOM      3  C   UNL     1      43.013   4.785  12.839  0.00  0.00    +0.000 A 
ATOM      4  C   UNL     1      43.072   3.980  11.704  0.00  0.00    +0.000 A 
ATOM      5  C   UNL     1      44.121   4.137  10.797  0.00  0.00    +0.000 A 
ATOM      6  C   UNL     1      45.125   5.082  11.073  0.00  0.00    +0.000 A 
ENDROOT
BRANCH   1  10
ATOM      7  C   UNL     1      48.040   8.948  12.160  0.00  0.00    +0.000 C 
ATOM      8  C   UNL     1      46.530   9.243  12.133  0.00  0.00    +0.000 C 
ATOM      9  C   UNL     1      45.718   8.207  12.912  0.00  0.00    +0.000 C 
ATOM     10  N   UNL     1      46.054   6.892  12.376  0.00  0.00    +0.000 N 
ATOM     11  C   UNL     1      47.457   6.490  12.506  0.00  0.00    +0.000 C 
ATOM     12  C   UNL     1      48.316   7.494  11.733  0.00  0.00    +0.000 C 
BRANCH   7  14
ATOM     13  F   UNL     1      47.857   8.995  14.549  0.00  0.00    +0.000 F 
ATOM     14  C   UNL     1      48.672   9.285  13.511  0.00  0.00    +0.000 C 
ATOM     15  F   UNL     1      48.936  10.612  13.578  0.00  0.00    +0.000 F 
ATOM     16  F   UNL     1      49.839   8.641  13.721  0.00  0.00    +0.000 F 
ENDBRANCH   7  14
ENDBRANCH   1  10
BRANCH   5  17
ATOM     17  C   UNL     1      44.174   3.349   9.512  0.00  0.00    +0.000 C 
BRANCH  17  18
ATOM     18  N   UNL     1      45.140   2.277   9.619  0.00  0.00    +0.000 N 
ATOM     19  C   UNL     1      45.956   2.179   8.499  0.00  0.00    +0.000 A 
ATOM     20  N   UNL     1      46.306   3.290   7.830  0.00  0.00    +0.000 NA
ATOM     21  C   UNL     1      47.093   3.137   6.750  0.00  0.00    +0.000 A 
ATOM     22  C   UNL     1      47.539   1.919   6.309  0.00  0.00    +0.000 A 
ATOM     23  C   UNL     1      47.126   0.843   7.055  0.00  0.00    +0.000 A 
ATOM     24  N   UNL     1      46.335   0.945   8.142  0.00  0.00    +0.000 NA
ATOM     25  H   UNL     1      44.751   1.356   9.783  0.00  0.00    +0.000 HD
ENDBRANCH  17  18
ENDBRANCH   5  17
TORSDOF 4
ENDMDL
MODEL 2
REMARK VINA RESULT:    -7.656      3.700      4.718
REMARK INTER + INTRA:          -9.967
REMARK INTER:                  -9.506
REMARK INTRA:                  -0.461
REMARK UNBOUND:                -0.520
REMARK  Name = 
REMARK  4 active torsions:
REMARK  status: ('A' for Active; 'I' for Inactive)
REMARK    1  A    between atoms: C_2  and  C_5
REMARK    2  A    between atoms: N_8  and  C_9
REMARK    3  A    between atoms: C_13  and  C_14
REMARK    4  A    between atoms: C_14  and  N_15
REMARK                            x       y       z     vdW  Elec       q    Type
REMARK                         _______ _______ _______ _____ _____    ______ ____
ROOT
ATOM      1  C   UNL     1      47.157   5.661  13.853  0.00  0.00    +0.000 A 
ATOM      2  C   UNL     1      47.797   6.677  13.132  0.00  0.00    +0.000 A 
ATOM      3  C   UNL     1      47.351   7.069  11.864  0.00  0.00    +0.000 A 
ATOM      4  C   UNL     1      46.262   6.432  11.273  0.00  0.00    +0.000 A 
ATOM      5  C   UNL     1      45.616   5.395  11.949  0.00  0.00    +0.000 A 
ATOM      6  C   UNL     1      46.057   5.043  13.237  0.00  0.00    +0.000 A 
ENDROOT
BRANCH   1  10
ATOM      7  C   UNL     1      48.076   4.557  17.836  0.00  0.00    +0.000 C 
ATOM      8  C   UNL     1      47.088   3.775  16.953  0.00  0.00    +0.000 C 
ATOM      9  C   UNL     1      47.475   3.808  15.473  0.00  0.00    +0.000 C 
ATOM     10  N   UNL     1      47.605   5.209  15.085  0.00  0.00    +0.000 N 
ATOM     11  C   UNL     1      48.636   5.973  15.791  0.00  0.00    +0.000 C 
ATOM     12  C   UNL     1      48.290   5.979  17.283  0.00  0.00    +0.000 C 
BRANCH   7  14
ATOM     13  F   UNL     1      49.250   2.470  17.924  0.00  0.00    +0.000 F 
ATOM     14  C   UNL     1      49.395   3.809  18.034  0.00  0.00    +0.000 C 
ATOM     15  F   UNL     1      49.878   4.051  19.277  0.00  0.00    +0.000 F 
ATOM     16  F   UNL     1      50.351   4.187  17.160  0.00  0.00    +0.000 F 
ENDBRANCH   7  14
ENDBRANCH   1  10
BRANCH   5  17
ATOM     17  C   UNL     1      44.492   4.621  11.309  0.00  0.00    +0.000 C 
BRANCH  17  18
ATOM     18  N   UNL     1      44.409   4.928   9.897  0.00  0.00    +0.000 N 
ATOM     19  C   UNL     1      45.060   3.988   9.107  0.00  0.00    +0.000 A 
ATOM     20  N   UNL     1      45.075   2.698   9.480  0.00  0.00    +0.000 NA
ATOM     21  C   UNL     1      45.724   1.832   8.682  0.00  0.00    +0.000 A 
ATOM     22  C   UNL     1      46.363   2.205   7.529  0.00  0.00    +0.000 A 
ATOM     23  C   UNL     1      46.296   3.544   7.233  0.00  0.00    +0.000 A 
ATOM     24  N   UNL     1      45.661   4.450   8.003  0.00  0.00    +0.000 NA
ATOM     25  H   UNL     1      44.764   5.837   9.629  0.00  0.00    +0.000 HD
ENDBRANCH  17  18
ENDBRANCH   5  17
TORSDOF 4
ENDMDL
MODEL 3
REMARK VINA RESULT:    -7.246      1.554      2.498
REMARK INTER + INTRA:          -9.461
REMARK INTER:                  -9.088
REMARK INTRA:                  -0.373
REMARK UNBOUND:                -0.520
REMARK  Name = 
REMARK  4 active torsions:
REMARK  status: ('A' for Active; 'I' for Inactive)
REMARK    1  A    between atoms: C_2  and  C_5
REMARK    2  A    between atoms: N_8  and  C_9
REMARK    3  A    between atoms: C_13  and  C_14
REMARK    4  A    between atoms: C_14  and  N_15
REMARK                            x       y       z     vdW  Elec       q    Type
REMARK                         _______ _______ _______ _____ _____    ______ ____
ROOT
ATOM      1  C   UNL     1      46.717   5.886  12.515  0.00  0.00    +0.000 A 
ATOM      2  C   UNL     1      47.044   4.825  13.370  0.00  0.00    +0.000 A 
ATOM      3  C   UNL     1      46.362   3.604  13.319  0.00  0.00    +0.000 A 
ATOM      4  C   UNL     1      45.314   3.421  12.421  0.00  0.00    +0.000 A 
ATOM      5  C   UNL     1      44.939   4.464  11.572  0.00  0.00    +0.000 A 
ATOM      6  C   UNL     1      45.661   5.669  11.614  0.00  0.00    +0.000 A 
ENDROOT
BRANCH   1  10
ATOM      7  C   UNL     1      48.816   9.498  13.198  0.00  0.00    +0.000 C 
ATOM      8  C   UNL     1      49.454   8.267  12.531  0.00  0.00    +0.000 C 
ATOM      9  C   UNL     1      48.449   7.465  11.702  0.00  0.00    +0.000 C 
ATOM     10  N   UNL     1      47.331   7.127  12.577  0.00  0.00    +0.000 N 
ATOM     11  C   UNL     1      46.588   8.261  13.129  0.00  0.00    +0.000 C 
ATOM     12  C   UNL     1      47.550   9.096  13.978  0.00  0.00    +0.000 C 
BRANCH   7  14
ATOM     13  F   UNL     1      48.452  10.178  10.929  0.00  0.00    +0.000 F 
ATOM     14  C   UNL     1      48.548  10.625  12.201  0.00  0.00    +0.000 C 
ATOM     15  F   UNL     1      49.569  11.516  12.228  0.00  0.00    +0.000 F 
ATOM     16  F   UNL     1      47.420  11.313  12.475  0.00  0.00    +0.000 F 
ENDBRANCH   7  14
ENDBRANCH   1  10
BRANCH   5  17
ATOM     17  C   UNL     1      43.753   4.338  10.649  0.00  0.00    +0.000 C 
BRANCH  17  18
ATOM     18  N   UNL     1      44.123   4.715   9.301  0.00  0.00    +0.000 N 
ATOM     19  C   UNL     1      44.980   3.797   8.706  0.00  0.00    +0.000 A 
ATOM     20  N   UNL     1      44.863   2.491   8.994  0.00  0.00    +0.000 NA
ATOM     21  C   UNL     1      45.721   1.647   8.394  0.00  0.00    +0.000 A 
ATOM     22  C   UNL     1      46.695   2.058   7.522  0.00  0.00    +0.000 A 
ATOM     23  C   UNL     1      46.739   3.411   7.293  0.00  0.00    +0.000 A 
ATOM     24  N   UNL     1      45.903   4.295   7.873  0.00  0.00    +0.000 NA
ATOM     25  H   UNL     1      44.554   5.626   9.208  0.00  0.00    +0.000 HD
ENDBRANCH  17  18
ENDBRANCH   5  17
TORSDOF 4
ENDMDL
MODEL 4
REMARK VINA RESULT:    -6.856      4.077      7.159
REMARK INTER + INTRA:          -8.980
REMARK INTER:                  -8.476
REMARK INTRA:                  -0.504
REMARK UNBOUND:                -0.520
REMARK  Name = 
REMARK  4 active torsions:
REMARK  status: ('A' for Active; 'I' for Inactive)
REMARK    1  A    between atoms: C_2  and  C_5
REMARK    2  A    between atoms: N_8  and  C_9
REMARK    3  A    between atoms: C_13  and  C_14
REMARK    4  A    between atoms: C_14  and  N_15
REMARK                            x       y       z     vdW  Elec       q    Type
REMARK                         _______ _______ _______ _____ _____    ______ ____
ROOT
ATOM      1  C   UNL     1      44.861   3.356   9.995  0.00  0.00    +0.000 A 
ATOM      2  C   UNL     1      44.000   2.384  10.520  0.00  0.00    +0.000 A 
ATOM      3  C   UNL     1      43.300   2.591  11.715  0.00  0.00    +0.000 A 
ATOM      4  C   UNL     1      43.465   3.775  12.430  0.00  0.00    +0.000 A 
ATOM      5  C   UNL     1      44.336   4.756  11.954  0.00  0.00    +0.000 A 
ATOM      6  C   UNL     1      45.000   4.543  10.732  0.00  0.00    +0.000 A 
ENDROOT
BRANCH   1  10
ATOM      7  C   UNL     1      47.615   2.798   6.828  0.00  0.00    +0.000 C 
ATOM      8  C   UNL     1      47.107   1.647   7.714  0.00  0.00    +0.000 C 
ATOM      9  C   UNL     1      45.668   1.863   8.185  0.00  0.00    +0.000 C 
ATOM     10  N   UNL     1      45.613   3.162   8.846  0.00  0.00    +0.000 N 
ATOM     11  C   UNL     1      45.945   4.318   8.011  0.00  0.00    +0.000 C 
ATOM     12  C   UNL     1      47.386   4.156   7.519  0.00  0.00    +0.000 C 
BRANCH   7  14
ATOM     13  F   UNL     1      46.717   3.985   4.951  0.00  0.00    +0.000 F 
ATOM     14  C   UNL     1      47.016   2.755   5.422  0.00  0.00    +0.000 C 
ATOM     15  F   UNL     1      45.861   2.047   5.436  0.00  0.00    +0.000 F 
ATOM     16  F   UNL     1      47.829   2.163   4.522  0.00  0.00    +0.000 F 
ENDBRANCH   7  14
ENDBRANCH   1  10
BRANCH   5  17
ATOM     17  C   UNL     1      44.611   6.013  12.741  0.00  0.00    +0.000 C 
BRANCH  17  18
ATOM     18  N   UNL     1      45.812   5.859  13.532  0.00  0.00    +0.000 N 
ATOM     19  C   UNL     1      46.860   6.646  13.071  0.00  0.00    +0.000 A 
ATOM     20  N   UNL     1      46.603   7.848  12.528  0.00  0.00    +0.000 NA
ATOM     21  C   UNL     1      47.654   8.566  12.094  0.00  0.00    +0.000 A 
ATOM     22  C   UNL     1      48.950   8.130  12.176  0.00  0.00    +0.000 A 
ATOM     23  C   UNL     1      49.112   6.889  12.741  0.00  0.00    +0.000 A 
ATOM     24  N   UNL     1      48.091   6.131  13.188  0.00  0.00    +0.000 NA
ATOM     25  H   UNL     1      46.165   4.912  13.606  0.00  0.00    +0.000 HD
ENDBRANCH  17  18
ENDBRANCH   5  17
TORSDOF 4
ENDMDL
MODEL 5
REMARK VINA RESULT:    -6.837      4.403      7.692
REMARK INTER + INTRA:          -8.956
REMARK INTER:                  -8.467
REMARK INTRA:                  -0.489
REMARK UNBOUND:                -0.520
REMARK  Name = 
REMARK  4 active torsions:
REMARK  status: ('A' for Active; 'I' for Inactive)
REMARK    1  A    between atoms: C_2  and  C_5
REMARK    2  A    between atoms: N_8  and  C_9
REMARK    3  A    between atoms: C_13  and  C_14
REMARK    4  A    between atoms: C_14  and  N_15
REMARK                            x       y       z     vdW  Elec       q    Type
REMARK                         _______ _______ _______ _____ _____    ______ ____
ROOT
ATOM      1  C   UNL     1      47.535   6.626  12.557  0.00  0.00    +0.000 A 
ATOM      2  C   UNL     1      48.073   7.620  11.730  0.00  0.00    +0.000 A 
ATOM      3  C   UNL     1      49.149   8.416  12.144  0.00  0.00    +0.000 A 
ATOM      4  C   UNL     1      49.698   8.251  13.413  0.00  0.00    +0.000 A 
ATOM      5  C   UNL     1      49.170   7.291  14.277  0.00  0.00    +0.000 A 
ATOM      6  C   UNL     1      48.114   6.477  13.827  0.00  0.00    +0.000 A 
ENDROOT
BRANCH   1  10
ATOM      7  C   UNL     1      43.869   4.652  11.786  0.00  0.00    +0.000 C 
ATOM      8  C   UNL     1      44.370   5.850  10.960  0.00  0.00    +0.000 C 
ATOM      9  C   UNL     1      45.895   5.886  10.848  0.00  0.00    +0.000 C 
ATOM     10  N   UNL     1      46.435   5.859  12.203  0.00  0.00    +0.000 N 
ATOM     11  C   UNL     1      46.115   4.669  12.994  0.00  0.00    +0.000 C 
ATOM     12  C   UNL     1      44.593   4.590  13.145  0.00  0.00    +0.000 C 
BRANCH   7  14
ATOM     13  F   UNL     1      43.755   3.493   9.692  0.00  0.00    +0.000 F 
ATOM     14  C   UNL     1      43.969   3.335  11.016  0.00  0.00    +0.000 C 
ATOM     15  F   UNL     1      43.030   2.468  11.466  0.00  0.00    +0.000 F 
ATOM     16  F   UNL     1      45.166   2.729  11.164  0.00  0.00    +0.000 F 
ENDBRANCH   7  14
ENDBRANCH   1  10
BRANCH   5  17
ATOM     17  C   UNL     1      49.676   7.140  15.689  0.00  0.00    +0.000 C 
BRANCH  17  18
ATOM     18  N   UNL     1      48.602   6.728  16.567  0.00  0.00    +0.000 N 
ATOM     19  C   UNL     1      48.682   5.385  16.915  0.00  0.00    +0.000 A 
ATOM     20  N   UNL     1      49.884   4.803  17.060  0.00  0.00    +0.000 NA
ATOM     21  C   UNL     1      49.904   3.500  17.391  0.00  0.00    +0.000 A 
ATOM     22  C   UNL     1      48.771   2.754  17.579  0.00  0.00    +0.000 A 
ATOM     23  C   UNL     1      47.591   3.434  17.405  0.00  0.00    +0.000 A 
ATOM     24  N   UNL     1      47.520   4.737  17.069  0.00  0.00    +0.000 NA
ATOM     25  H   UNL     1      47.667   6.886  16.213  0.00  0.00    +0.000 HD
ENDBRANCH  17  18
ENDBRANCH   5  17
TORSDOF 4
ENDMDL
MODEL 6
REMARK VINA RESULT:    -6.265      3.784      5.801
REMARK INTER + INTRA:          -8.251
REMARK INTER:                  -7.757
REMARK INTRA:                  -0.494
REMARK UNBOUND:                -0.520
REMARK  Name = 
REMARK  4 active torsions:
REMARK  status: ('A' for Active; 'I' for Inactive)
REMARK    1  A    between atoms: C_2  and  C_5
REMARK    2  A    between atoms: N_8  and  C_9
REMARK    3  A    between atoms: C_13  and  C_14
REMARK    4  A    between atoms: C_14  and  N_15
REMARK                            x       y       z     vdW  Elec       q    Type
REMARK                         _______ _______ _______ _____ _____    ______ ____
ROOT
ATOM      1  C   UNL     1      47.905   6.374  14.036  0.00  0.00    +0.000 A 
ATOM      2  C   UNL     1      49.010   7.018  13.465  0.00  0.00    +0.000 A 
ATOM      3  C   UNL     1      48.873   7.871  12.363  0.00  0.00    +0.000 A 
ATOM      4  C   UNL     1      47.623   8.081  11.787  0.00  0.00    +0.000 A 
ATOM      5  C   UNL     1      46.502   7.434  12.309  0.00  0.00    +0.000 A 
ATOM      6  C   UNL     1      46.656   6.612  13.440  0.00  0.00    +0.000 A 
ENDROOT
BRANCH   1  10
ATOM      7  C   UNL     1      48.664   3.415  16.967  0.00  0.00    +0.000 C 
ATOM      8  C   UNL     1      49.406   4.762  16.919  0.00  0.00    +0.000 C 
ATOM      9  C   UNL     1      48.526   5.895  16.390  0.00  0.00    +0.000 C 
ATOM     10  N   UNL     1      48.010   5.480  15.090  0.00  0.00    +0.000 N 
ATOM     11  C   UNL     1      47.169   4.280  15.092  0.00  0.00    +0.000 C 
ATOM     12  C   UNL     1      48.009   3.108  15.607  0.00  0.00    +0.000 C 
BRANCH   7  14
ATOM     13  F   UNL     1      46.742   2.372  17.947  0.00  0.00    +0.000 F 
ATOM     14  C   UNL     1      47.663   3.345  18.121  0.00  0.00    +0.000 C 
ATOM     15  F   UNL     1      46.985   4.515  18.213  0.00  0.00    +0.000 F 
ATOM     16  F   UNL     1      48.252   3.136  19.317  0.00  0.00    +0.000 F 
ENDBRANCH   7  14
ENDBRANCH   1  10
BRANCH   5  17
ATOM     17  C   UNL     1      45.146   7.564  11.662  0.00  0.00    +0.000 C 
BRANCH  17  18
ATOM     18  N   UNL     1      45.027   6.641  10.553  0.00  0.00    +0.000 N 
ATOM     19  C   UNL     1      44.476   5.422  10.929  0.00  0.00    +0.000 A 
ATOM     20  N   UNL     1      43.545   5.381  11.897  0.00  0.00    +0.000 NA
ATOM     21  C   UNL     1      43.050   4.175  12.225  0.00  0.00    +0.000 A 
ATOM     22  C   UNL     1      43.450   3.008  11.629  0.00  0.00    +0.000 A 
ATOM     23  C   UNL     1      44.408   3.151  10.655  0.00  0.00    +0.000 A 
ATOM     24  N   UNL     1      44.937   4.337  10.294  0.00  0.00    +0.000 NA
ATOM     25  H   UNL     1      45.890   6.437  10.064  0.00  0.00    +0.000 HD
ENDBRANCH  17  18
ENDBRANCH   5  17
TORSDOF 4
ENDMDL
MODEL 7
REMARK VINA RESULT:    -6.140      4.401      8.017
REMARK INTER + INTRA:          -8.096
REMARK INTER:                  -7.593
REMARK INTRA:                  -0.503
REMARK UNBOUND:                -0.520
REMARK  Name = 
REMARK  4 active torsions:
REMARK  status: ('A' for Active; 'I' for Inactive)
REMARK    1  A    between atoms: C_2  and  C_5
REMARK    2  A    between atoms: N_8  and  C_9
REMARK    3  A    between atoms: C_13  and  C_14
REMARK    4  A    between atoms: C_14  and  N_15
REMARK                            x       y       z     vdW  Elec       q    Type
REMARK                         _______ _______ _______ _____ _____    ______ ____
ROOT
ATOM      1  C   UNL     1      46.688   7.199  12.775  0.00  0.00    +0.000 A 
ATOM      2  C   UNL     1      46.452   8.457  12.205  0.00  0.00    +0.000 A 
ATOM      3  C   UNL     1      47.181   9.587  12.595  0.00  0.00    +0.000 A 
ATOM      4  C   UNL     1      48.153   9.489  13.587  0.00  0.00    +0.000 A 
ATOM      5  C   UNL     1      48.398   8.259  14.199  0.00  0.00    +0.000 A 
ATOM      6  C   UNL     1      47.681   7.129  13.766  0.00  0.00    +0.000 A 
ENDROOT
BRANCH   1  10
ATOM      7  C   UNL     1      44.884   3.589  11.495  0.00  0.00    +0.000 C 
ATOM      8  C   UNL     1      45.802   3.681  12.727  0.00  0.00    +0.000 C 
ATOM      9  C   UNL     1      45.688   5.028  13.441  0.00  0.00    +0.000 C 
ATOM     10  N   UNL     1      45.948   6.071  12.455  0.00  0.00    +0.000 N 
ATOM     11  C   UNL     1      45.015   6.130  11.328  0.00  0.00    +0.000 C 
ATOM     12  C   UNL     1      45.096   4.802  10.569  0.00  0.00    +0.000 C 
BRANCH   7  14
ATOM     13  F   UNL     1      43.199   3.590  13.199  0.00  0.00    +0.000 F 
ATOM     14  C   UNL     1      43.416   3.403  11.879  0.00  0.00    +0.000 C 
ATOM     15  F   UNL     1      43.021   2.139  11.590  0.00  0.00    +0.000 F 
ATOM     16  F   UNL     1      42.589   4.235  11.211  0.00  0.00    +0.000 F 
ENDBRANCH   7  14
ENDBRANCH   1  10
BRANCH   5  17
ATOM     17  C   UNL     1      49.377   8.127  15.337  0.00  0.00    +0.000 C 
BRANCH  17  18
ATOM     18  N   UNL     1      49.916   6.785  15.386  0.00  0.00    +0.000 N 
ATOM     19  C   UNL     1      49.671   6.155  16.600  0.00  0.00    +0.000 A 
ATOM     20  N   UNL     1      48.534   6.411  17.267  0.00  0.00    +0.000 NA
ATOM     21  C   UNL     1      48.350   5.778  18.439  0.00  0.00    +0.000 A 
ATOM     22  C   UNL     1      49.260   4.903  18.973  0.00  0.00    +0.000 A 
ATOM     23  C   UNL     1      50.392   4.709  18.221  0.00  0.00    +0.000 A 
ATOM     24  N   UNL     1      50.622   5.322  17.043  0.00  0.00    +0.000 NA
ATOM     25  H   UNL     1      50.910   6.709  15.208  0.00  0.00    +0.000 HD
ENDBRANCH  17  18
ENDBRANCH   5  17
TORSDOF 4
ENDMDL
MODEL 8
REMARK VINA RESULT:    -6.099      4.303      7.067
REMARK INTER + INTRA:          -8.045
REMARK INTER:                  -7.612
REMARK INTRA:                  -0.433
REMARK UNBOUND:                -0.520
REMARK  Name = 
REMARK  4 active torsions:
REMARK  status: ('A' for Active; 'I' for Inactive)
REMARK    1  A    between atoms: C_2  and  C_5
REMARK    2  A    between atoms: N_8  and  C_9
REMARK    3  A    between atoms: C_13  and  C_14
REMARK    4  A    between atoms: C_14  and  N_15
REMARK                            x       y       z     vdW  Elec       q    Type
REMARK                         _______ _______ _______ _____ _____    ______ ____
ROOT
ATOM      1  C   UNL     1      46.617   7.376  12.005  0.00  0.00    +0.000 A 
ATOM      2  C   UNL     1      45.994   8.628  12.091  0.00  0.00    +0.000 A 
ATOM      3  C   UNL     1      46.736   9.813  12.175  0.00  0.00    +0.000 A 
ATOM      4  C   UNL     1      48.127   9.771  12.198  0.00  0.00    +0.000 A 
ATOM      5  C   UNL     1      48.784   8.541  12.143  0.00  0.00    +0.000 A 
ATOM      6  C   UNL     1      48.021   7.366  12.022  0.00  0.00    +0.000 A 
ENDROOT
BRANCH   1  10
ATOM      7  C   UNL     1      44.948   3.498  11.696  0.00  0.00    +0.000 C 
ATOM      8  C   UNL     1      45.809   3.951  12.887  0.00  0.00    +0.000 C 
ATOM      9  C   UNL     1      45.636   5.437  13.203  0.00  0.00    +0.000 C 
ATOM     10  N   UNL     1      45.916   6.181  11.979  0.00  0.00    +0.000 N 
ATOM     11  C   UNL     1      45.031   5.900  10.846  0.00  0.00    +0.000 C 
ATOM     12  C   UNL     1      45.174   4.420  10.482  0.00  0.00    +0.000 C 
BRANCH   7  14
ATOM     13  F   UNL     1      43.233   3.665  13.361  0.00  0.00    +0.000 F 
ATOM     14  C   UNL     1      43.468   3.376  12.063  0.00  0.00    +0.000 C 
ATOM     15  F   UNL     1      43.047   2.104  11.860  0.00  0.00    +0.000 F 
ATOM     16  F   UNL     1      42.675   4.176  11.320  0.00  0.00    +0.000 F 
ENDBRANCH   7  14
ENDBRANCH   1  10
BRANCH   5  17
ATOM     17  C   UNL     1      50.285   8.445  12.255  0.00  0.00    +0.000 C 
BRANCH  17  18
ATOM     18  N   UNL     1      50.780   7.341  11.462  0.00  0.00    +0.000 N 
ATOM     19  C   UNL     1      51.865   7.696  10.670  0.00  0.00    +0.000 A 
ATOM     20  N   UNL     1      52.746   8.607  11.114  0.00  0.00    +0.000 NA
ATOM     21  C   UNL     1      53.774   8.918  10.305  0.00  0.00    +0.000 A 
ATOM     22  C   UNL     1      53.955   8.357   9.068  0.00  0.00    +0.000 A 
ATOM     23  C   UNL     1      53.002   7.440   8.700  0.00  0.00    +0.000 A 
ATOM     24  N   UNL     1      51.952   7.099   9.474  0.00  0.00    +0.000 NA
ATOM     25  H   UNL     1      50.099   6.905  10.852  0.00  0.00    +0.000 HD
ENDBRANCH  17  18
ENDBRANCH   5  17
TORSDOF 4
ENDMDL
MODEL 9
REMARK VINA RESULT:    -6.066      4.090      7.821
REMARK INTER + INTRA:          -8.005
REMARK INTER:                  -7.448
REMARK INTRA:                  -0.557
REMARK UNBOUND:                -0.520
REMARK  Name = 
REMARK  4 active torsions:
REMARK  status: ('A' for Active; 'I' for Inactive)
REMARK    1  A    between atoms: C_2  and  C_5
REMARK    2  A    between atoms: N_8  and  C_9
REMARK    3  A    between atoms: C_13  and  C_14
REMARK    4  A    between atoms: C_14  and  N_15
REMARK                            x       y       z     vdW  Elec       q    Type
REMARK                         _______ _______ _______ _____ _____    ______ ____
ROOT
ATOM      1  C   UNL     1      46.077   7.407  11.982  0.00  0.00    +0.000 A 
ATOM      2  C   UNL     1      45.539   8.700  11.946  0.00  0.00    +0.000 A 
ATOM      3  C   UNL     1      46.332   9.831  12.175  0.00  0.00    +0.000 A 
ATOM      4  C   UNL     1      47.686   9.693  12.470  0.00  0.00    +0.000 A 
ATOM      5  C   UNL     1      48.253   8.419  12.543  0.00  0.00    +0.000 A 
ATOM      6  C   UNL     1      47.446   7.299  12.273  0.00  0.00    +0.000 A 
ENDROOT
BRANCH   1  10
ATOM      7  C   UNL     1      43.287   4.264  11.472  0.00  0.00    +0.000 C 
ATOM      8  C   UNL     1      43.866   5.073  10.299  0.00  0.00    +0.000 C 
ATOM      9  C   UNL     1      45.303   5.529  10.556  0.00  0.00    +0.000 C 
ATOM     10  N   UNL     1      45.311   6.263  11.817  0.00  0.00    +0.000 N 
ATOM     11  C   UNL     1      44.909   5.501  13.001  0.00  0.00    +0.000 C 
ATOM     12  C   UNL     1      43.467   5.026  12.798  0.00  0.00    +0.000 C 
BRANCH   7  14
ATOM     13  F   UNL     1      43.873   2.240  10.329  0.00  0.00    +0.000 F 
ATOM     14  C   UNL     1      43.858   2.847  11.536  0.00  0.00    +0.000 C 
ATOM     15  F   UNL     1      43.094   2.080  12.352  0.00  0.00    +0.000 F 
ATOM     16  F   UNL     1      45.115   2.808  12.025  0.00  0.00    +0.000 F 
ENDBRANCH   7  14
ENDBRANCH   1  10
BRANCH   5  17
ATOM     17  C   UNL     1      49.692   8.220  12.946  0.00  0.00    +0.000 C 
BRANCH  17  18
ATOM     18  N   UNL     1      49.947   8.847  14.226  0.00  0.00    +0.000 N 
ATOM     19  C   UNL     1      49.524   8.069  15.296  0.00  0.00    +0.000 A 
ATOM     20  N   UNL     1      49.595   6.730  15.216  0.00  0.00    +0.000 NA
ATOM     21  C   UNL     1      49.167   6.024  16.278  0.00  0.00    +0.000 A 
ATOM     22  C   UNL     1      48.668   6.603  17.415  0.00  0.00    +0.000 A 
ATOM     23  C   UNL     1      48.631   7.976  17.401  0.00  0.00    +0.000 A 
ATOM     24  N   UNL     1      49.045   8.725  16.360  0.00  0.00    +0.000 NA
ATOM     25  H   UNL     1      49.538   9.765  14.348  0.00  0.00    +0.000 HD
ENDBRANCH  17  18
ENDBRANCH   5  17
TORSDOF 4
ENDMDL
