MODEL 1
REMARK VINA RESULT:    -7.866      0.000      0.000
REMARK INTER + INTRA:         -12.004
REMARK INTER:                 -11.085
REMARK INTRA:                  -0.920
REMARK UNBOUND:                -0.920
REMARK  Name = 
REMARK  7 active torsions:
REMARK  status: ('A' for Active; 'I' for Inactive)
REMARK    1  A    between atoms: C_2  and  C_19
REMARK    2  A    between atoms: N_3  and  C_4
REMARK    3  A    between atoms: C_4  and  C_5
REMARK    4  A    between atoms: C_8  and  C_9
REMARK    5  A    between atoms: C_9  and  N_10
REMARK    6  A    between atoms: N_10  and  C_11
REMARK    7  A    between atoms: C_11  and  C_12
REMARK                            x       y       z     vdW  Elec       q    Type
REMARK                         _______ _______ _______ _____ _____    ______ ____
ROOT
ATOM      1  C   UNL     1      46.757   8.115  13.121  0.00  0.00    +0.000 C 
ENDROOT
BRANCH   1   2
ATOM      2  C   UNL     1      46.016   7.060  12.337  0.00  0.00    +0.000 A 
ATOM      3  C   UNL     1      44.889   6.452  12.883  0.00  0.00    +0.000 A 
ATOM      4  C   UNL     1      44.219   5.486  12.143  0.00  0.00    +0.000 A 
ATOM      5  C   UNL     1      44.683   5.137  10.872  0.00  0.00    +0.000 A 
ATOM      6  C   UNL     1      45.831   5.778  10.419  0.00  0.00    +0.000 A 
ATOM      7  N   UNL     1      46.506   6.722  11.115  0.00  0.00    +0.000 NA
BRANCH   5   8
ATOM      8  C   UNL     1      43.985   4.097  10.039  0.00  0.00    +0.000 C 
BRANCH   8   9
ATOM      9  N   UNL     1      44.173   4.351   8.610  0.00  0.00    +0.000 NA
ATOM     10  H   UNL     1      44.822   5.132   8.492  0.00  0.00    +0.000 HD
BRANCH   9  11
ATOM     11  C   UNL     1      44.712   3.168   7.925  0.00  0.00    +0.000 C 
BRANCH  11  12
ATOM     12  C   UNL     1      46.263   3.186   7.944  0.00  0.00    +0.000 C 
ATOM     13  C   UNL     1      46.877   1.822   7.675  0.00  0.00    +0.000 C 
ATOM     14  C   UNL     1      46.877   1.723   6.161  0.00  0.00    +0.000 C 
ATOM     15  C   UNL     1      46.946   3.166   5.679  0.00  0.00    +0.000 C 
ATOM     16  N   UNL     1      46.829   4.016   6.866  0.00  0.00    +0.000 NA
ATOM     17  H   UNL     1      46.188   4.794   6.688  0.00  0.00    +0.000 HD
ENDBRANCH  11  12
ENDBRANCH   9  11
ENDBRANCH   8   9
ENDBRANCH   5   8
ENDBRANCH   1   2
BRANCH   1  20
ATOM     18  O   UNL     1      49.018   6.428  13.380  0.00  0.00    +0.000 OA
ATOM     19  C   UNL     1      48.379   6.738  14.381  0.00  0.00    +0.000 C 
ATOM     20  N   UNL     1      47.311   7.591  14.345  0.00  0.00    +0.000 N 
ATOM     21  H   UNL     1      46.810   7.824  15.192  0.00  0.00    +0.000 HD
BRANCH  19  22
ATOM     22  C   UNL     1      48.752   6.258  15.715  0.00  0.00    +0.000 A 
ATOM     23  C   UNL     1      49.705   6.927  16.468  0.00  0.00    +0.000 A 
ATOM     24  S   UNL     1      49.943   6.247  18.016  0.00  0.00    +0.000 S 
ATOM     25  C   UNL     1      48.811   5.011  17.710  0.00  0.00    +0.000 A 
ATOM     26  N   UNL     1      48.521   4.072  18.651  0.00  0.00    +0.000 NA
ATOM     27  C   UNL     1      47.663   3.183  18.270  0.00  0.00    +0.000 A 
ATOM     28  N   UNL     1      47.081   3.138  17.030  0.00  0.00    +0.000 N 
ATOM     29  C   UNL     1      47.344   4.063  16.048  0.00  0.00    +0.000 A 
ATOM     30  O   UNL     1      46.800   3.991  14.952  0.00  0.00    +0.000 OA
ATOM     31  C   UNL     1      48.275   5.105  16.440  0.00  0.00    +0.000 A 
ATOM     32  H   UNL     1      46.425   2.411  16.789  0.00  0.00    +0.000 HD
ENDBRANCH  19  22
ENDBRANCH   1  20
TORSDOF 7
ENDMDL
MODEL 2
REMARK VINA RESULT:    -7.367      2.154      3.667
REMARK INTER + INTRA:         -11.301
REMARK INTER:                 -10.283
REMARK INTRA:                  -1.018
REMARK UNBOUND:                -0.920
REMARK  Name = 
REMARK  7 active torsions:
REMARK  status: ('A' for Active; 'I' for Inactive)
REMARK    1  A    between atoms: C_2  and  C_19
REMARK    2  A    between atoms: N_3  and  C_4
REMARK    3  A    between atoms: C_4  and  C_5
REMARK    4  A    between atoms: C_8  and  C_9
REMARK    5  A    between atoms: C_9  and  N_10
REMARK    6  A    between atoms: N_10  and  C_11
REMARK    7  A    between atoms: C_11  and  C_12
REMARK                            x       y       z     vdW  Elec       q    Type
REMARK                         _______ _______ _______ _____ _____    ______ ____
ROOT
ATOM      1  C   UNL     1      46.761   4.377  14.766  0.00  0.00    +0.000 C 
ENDROOT
BRANCH   1   2
ATOM      2  C   UNL     1      46.169   4.383  13.377  0.00  0.00    +0.000 A 
ATOM      3  C   UNL     1      46.162   5.557  12.631  0.00  0.00    +0.000 A 
ATOM      4  C   UNL     1      45.616   5.540  11.353  0.00  0.00    +0.000 A 
ATOM      5  C   UNL     1      45.081   4.356  10.841  0.00  0.00    +0.000 A 
ATOM      6  C   UNL     1      45.107   3.239  11.669  0.00  0.00    +0.000 A 
ATOM      7  N   UNL     1      45.632   3.223  12.917  0.00  0.00    +0.000 NA
BRANCH   5   8
ATOM      8  C   UNL     1      44.482   4.296   9.462  0.00  0.00    +0.000 C 
BRANCH   8   9
ATOM      9  N   UNL     1      45.298   5.034   8.498  0.00  0.00    +0.000 NA
ATOM     10  H   UNL     1      45.662   5.878   8.945  0.00  0.00    +0.000 HD
BRANCH   9  11
ATOM     11  C   UNL     1      46.423   4.219   8.019  0.00  0.00    +0.000 C 
BRANCH  11  12
ATOM     12  C   UNL     1      45.911   3.032   7.160  0.00  0.00    +0.000 C 
ATOM     13  C   UNL     1      46.566   2.962   5.791  0.00  0.00    +0.000 C 
ATOM     14  C   UNL     1      47.870   2.232   6.057  0.00  0.00    +0.000 C 
ATOM     15  C   UNL     1      47.587   1.367   7.278  0.00  0.00    +0.000 C 
ATOM     16  N   UNL     1      46.247   1.726   7.750  0.00  0.00    +0.000 NA
ATOM     17  H   UNL     1      46.239   1.820   8.770  0.00  0.00    +0.000 HD
ENDBRANCH  11  12
ENDBRANCH   9  11
ENDBRANCH   8   9
ENDBRANCH   5   8
ENDBRANCH   1   2
BRANCH   1  20
ATOM     18  O   UNL     1      48.916   4.671  16.581  0.00  0.00    +0.000 OA
ATOM     19  C   UNL     1      48.496   5.655  15.978  0.00  0.00    +0.000 C 
ATOM     20  N   UNL     1      47.498   5.585  15.046  0.00  0.00    +0.000 N 
ATOM     21  H   UNL     1      47.179   6.417  14.570  0.00  0.00    +0.000 HD
BRANCH  19  22
ATOM     22  C   UNL     1      49.078   6.986  16.170  0.00  0.00    +0.000 A 
ATOM     23  C   UNL     1      49.075   7.586  17.421  0.00  0.00    +0.000 A 
ATOM     24  S   UNL     1      49.862   9.102  17.444  0.00  0.00    +0.000 S 
ATOM     25  C   UNL     1      50.190   9.022  15.774  0.00  0.00    +0.000 A 
ATOM     26  N   UNL     1      50.867  10.018  15.141  0.00  0.00    +0.000 NA
ATOM     27  C   UNL     1      51.021   9.833  13.871  0.00  0.00    +0.000 A 
ATOM     28  N   UNL     1      50.548   8.752  13.174  0.00  0.00    +0.000 N 
ATOM     29  C   UNL     1      49.859   7.724  13.771  0.00  0.00    +0.000 A 
ATOM     30  O   UNL     1      49.455   6.771  13.114  0.00  0.00    +0.000 OA
ATOM     31  C   UNL     1      49.691   7.866  15.205  0.00  0.00    +0.000 A 
ATOM     32  H   UNL     1      50.692   8.670  12.179  0.00  0.00    +0.000 HD
ENDBRANCH  19  22
ENDBRANCH   1  20
TORSDOF 7
ENDMDL
MODEL 3
REMARK VINA RESULT:    -7.307      1.940      2.465
REMARK INTER + INTRA:         -11.217
REMARK INTER:                 -10.375
REMARK INTRA:                  -0.842
REMARK UNBOUND:                -0.920
REMARK  Name = 
REMARK  7 active torsions:
REMARK  status: ('A' for Active; 'I' for Inactive)
REMARK    1  A    between atoms: C_2  and  C_19
REMARK    2  A    between atoms: N_3  and  C_4
REMARK    3  A    between atoms: C_4  and  C_5
REMARK    4  A    between atoms: C_8  and  C_9
REMARK    5  A    between atoms: C_9  and  N_10
REMARK    6  A    between atoms: N_10  and  C_11
REMARK    7  A    between atoms: C_11  and  C_12
REMARK                            x       y       z     vdW  Elec       q    Type
REMARK                         _______ _______ _______ _____ _____    ______ ____
ROOT
ATOM      1  C   UNL     1      47.663   7.048  13.624  0.00  0.00    +0.000 C 
ENDROOT
BRANCH   1   2
ATOM      2  C   UNL     1      46.759   6.243  12.722  0.00  0.00    +0.000 A 
ATOM      3  C   UNL     1      46.588   6.622  11.394  0.00  0.00    +0.000 A 
ATOM      4  C   UNL     1      45.754   5.864  10.579  0.00  0.00    +0.000 A 
ATOM      5  C   UNL     1      45.102   4.745  11.101  0.00  0.00    +0.000 A 
ATOM      6  C   UNL     1      45.312   4.458  12.445  0.00  0.00    +0.000 A 
ATOM      7  N   UNL     1      46.117   5.175  13.264  0.00  0.00    +0.000 NA
BRANCH   5   8
ATOM      8  C   UNL     1      44.193   3.899  10.252  0.00  0.00    +0.000 C 
BRANCH   8   9
ATOM      9  N   UNL     1      44.149   4.388   8.873  0.00  0.00    +0.000 NA
ATOM     10  H   UNL     1      44.722   5.231   8.800  0.00  0.00    +0.000 HD
BRANCH   9  11
ATOM     11  C   UNL     1      44.656   3.378   7.935  0.00  0.00    +0.000 C 
BRANCH  11  12
ATOM     12  C   UNL     1      46.208   3.374   7.921  0.00  0.00    +0.000 C 
ATOM     13  C   UNL     1      46.797   1.987   7.726  0.00  0.00    +0.000 C 
ATOM     14  C   UNL     1      46.765   1.794   6.221  0.00  0.00    +0.000 C 
ATOM     15  C   UNL     1      46.843   3.203   5.649  0.00  0.00    +0.000 C 
ATOM     16  N   UNL     1      46.762   4.127   6.783  0.00  0.00    +0.000 NA
ATOM     17  H   UNL     1      46.128   4.902   6.570  0.00  0.00    +0.000 HD
ENDBRANCH  11  12
ENDBRANCH   9  11
ENDBRANCH   8   9
ENDBRANCH   5   8
ENDBRANCH   1   2
BRANCH   1  20
ATOM     18  O   UNL     1      49.962   6.623  15.224  0.00  0.00    +0.000 OA
ATOM     19  C   UNL     1      48.858   6.298  15.654  0.00  0.00    +0.000 C 
ATOM     20  N   UNL     1      47.698   6.520  14.966  0.00  0.00    +0.000 N 
ATOM     21  H   UNL     1      46.809   6.239  15.354  0.00  0.00    +0.000 HD
BRANCH  19  22
ATOM     22  C   UNL     1      48.693   5.691  16.978  0.00  0.00    +0.000 A 
ATOM     23  C   UNL     1      48.853   4.325  17.156  0.00  0.00    +0.000 A 
ATOM     24  S   UNL     1      48.686   3.832  18.783  0.00  0.00    +0.000 S 
ATOM     25  C   UNL     1      48.351   5.423  19.290  0.00  0.00    +0.000 A 
ATOM     26  N   UNL     1      48.120   5.711  20.600  0.00  0.00    +0.000 NA
ATOM     27  C   UNL     1      47.855   6.954  20.834  0.00  0.00    +0.000 A 
ATOM     28  N   UNL     1      47.785   7.932  19.877  0.00  0.00    +0.000 N 
ATOM     29  C   UNL     1      48.009   7.689  18.544  0.00  0.00    +0.000 A 
ATOM     30  O   UNL     1      47.941   8.592  17.718  0.00  0.00    +0.000 OA
ATOM     31  C   UNL     1      48.347   6.313  18.233  0.00  0.00    +0.000 A 
ATOM     32  H   UNL     1      47.563   8.886  20.122  0.00  0.00    +0.000 HD
ENDBRANCH  19  22
ENDBRANCH   1  20
TORSDOF 7
ENDMDL
MODEL 4
REMARK VINA RESULT:    -7.161      2.889      3.977
REMARK INTER + INTRA:         -11.011
REMARK INTER:                 -10.190
REMARK INTRA:                  -0.821
REMARK UNBOUND:                -0.920
REMARK  Name = 
REMARK  7 active torsions:
REMARK  status: ('A' for Active; 'I' for Inactive)
REMARK    1  A    between atoms: C_2  and  C_19
REMARK    2  A    between atoms: N_3  and  C_4
REMARK    3  A    between atoms: C_4  and  C_5
REMARK    4  A    between atoms: C_8  and  C_9
REMARK    5  A    between atoms: C_9  and  N_10
REMARK    6  A    between atoms: N_10  and  C_11
REMARK    7  A    between atoms: C_11  and  C_12
REMARK                            x       y       z     vdW  Elec       q    Type
REMARK                         _______ _______ _______ _____ _____    ______ ____
ROOT
ATOM      1  C   UNL     1      47.168   4.081  16.375  0.00  0.00    +0.000 C 
ENDROOT
BRANCH   1   2
ATOM      2  C   UNL     1      46.952   4.705  15.017  0.00  0.00    +0.000 A 
ATOM      3  C   UNL     1      47.777   5.742  14.591  0.00  0.00    +0.000 A 
ATOM      4  C   UNL     1      47.563   6.301  13.336  0.00  0.00    +0.000 A 
ATOM      5  C   UNL     1      46.530   5.821  12.528  0.00  0.00    +0.000 A 
ATOM      6  C   UNL     1      45.740   4.801  13.048  0.00  0.00    +0.000 A 
ATOM      7  N   UNL     1      45.922   4.236  14.265  0.00  0.00    +0.000 NA
BRANCH   5   8
ATOM      8  C   UNL     1      46.267   6.397  11.164  0.00  0.00    +0.000 C 
BRANCH   8   9
ATOM      9  N   UNL     1      45.278   5.602  10.435  0.00  0.00    +0.000 NA
ATOM     10  H   UNL     1      44.458   6.182  10.244  0.00  0.00    +0.000 HD
BRANCH   9  11
ATOM     11  C   UNL     1      45.825   5.107   9.165  0.00  0.00    +0.000 C 
BRANCH  11  12
ATOM     12  C   UNL     1      44.782   4.225   8.427  0.00  0.00    +0.000 C 
ATOM     13  C   UNL     1      45.418   3.193   7.511  0.00  0.00    +0.000 C 
ATOM     14  C   UNL     1      45.755   2.046   8.446  0.00  0.00    +0.000 C 
ATOM     15  C   UNL     1      44.741   2.159   9.577  0.00  0.00    +0.000 C 
ATOM     16  N   UNL     1      43.992   3.397   9.353  0.00  0.00    +0.000 NA
ATOM     17  H   UNL     1      43.879   3.912  10.231  0.00  0.00    +0.000 HD
ENDBRANCH  11  12
ENDBRANCH   9  11
ENDBRANCH   8   9
ENDBRANCH   5   8
ENDBRANCH   1   2
BRANCH   1  20
ATOM     18  O   UNL     1      48.499   4.986  18.706  0.00  0.00    +0.000 OA
ATOM     19  C   UNL     1      49.146   4.442  17.814  0.00  0.00    +0.000 C 
ATOM     20  N   UNL     1      48.568   3.930  16.686  0.00  0.00    +0.000 N 
ATOM     21  H   UNL     1      49.134   3.489  15.974  0.00  0.00    +0.000 HD
BRANCH  19  22
ATOM     22  C   UNL     1      50.594   4.247  17.919  0.00  0.00    +0.000 A 
ATOM     23  C   UNL     1      51.427   5.301  18.267  0.00  0.00    +0.000 A 
ATOM     24  S   UNL     1      53.068   4.847  18.400  0.00  0.00    +0.000 S 
ATOM     25  C   UNL     1      52.721   3.241  17.953  0.00  0.00    +0.000 A 
ATOM     26  N   UNL     1      53.702   2.301  17.884  0.00  0.00    +0.000 NA
ATOM     27  C   UNL     1      53.296   1.133  17.508  0.00  0.00    +0.000 A 
ATOM     28  N   UNL     1      52.001   0.823  17.181  0.00  0.00    +0.000 N 
ATOM     29  C   UNL     1      50.978   1.738  17.236  0.00  0.00    +0.000 A 
ATOM     30  O   UNL     1      49.832   1.421  16.939  0.00  0.00    +0.000 OA
ATOM     31  C   UNL     1      51.377   3.058  17.688  0.00  0.00    +0.000 A 
ATOM     32  H   UNL     1      51.748  -0.108  16.884  0.00  0.00    +0.000 HD
ENDBRANCH  19  22
ENDBRANCH   1  20
TORSDOF 7
ENDMDL
MODEL 5
REMARK VINA RESULT:    -7.021      1.562      1.929
REMARK INTER + INTRA:         -10.813
REMARK INTER:                 -10.078
REMARK INTRA:                  -0.736
REMARK UNBOUND:                -0.920
REMARK  Name = 
REMARK  7 active torsions:
REMARK  status: ('A' for Active; 'I' for Inactive)
REMARK    1  A    between atoms: C_2  and  C_19
REMARK    2  A    between atoms: N_3  and  C_4
REMARK    3  A    between atoms: C_4  and  C_5
REMARK    4  A    between atoms: C_8  and  C_9
REMARK    5  A    between atoms: C_9  and  N_10
REMARK    6  A    between atoms: N_10  and  C_11
REMARK    7  A    between atoms: C_11  and  C_12
REMARK                            x       y       z     vdW  Elec       q    Type
REMARK                         _______ _______ _______ _____ _____    ______ ____
ROOT
ATOM      1  C   UNL     1      47.534   7.186  13.314  0.00  0.00    +0.000 C 
ENDROOT
BRANCH   1   2
ATOM      2  C   UNL     1      46.385   6.317  12.864  0.00  0.00    +0.000 A 
ATOM      3  C   UNL     1      45.744   6.584  11.658  0.00  0.00    +0.000 A 
ATOM      4  C   UNL     1      44.690   5.770  11.261  0.00  0.00    +0.000 A 
ATOM      5  C   UNL     1      44.289   4.706  12.072  0.00  0.00    +0.000 A 
ATOM      6  C   UNL     1      44.969   4.532  13.272  0.00  0.00    +0.000 A 
ATOM      7  N   UNL     1      45.999   5.307  13.687  0.00  0.00    +0.000 NA
BRANCH   5   8
ATOM      8  C   UNL     1      43.153   3.801  11.677  0.00  0.00    +0.000 C 
BRANCH   8   9
ATOM      9  N   UNL     1      43.649   2.517  11.179  0.00  0.00    +0.000 NA
ATOM     10  H   UNL     1      42.924   2.079  10.607  0.00  0.00    +0.000 HD
BRANCH   9  11
ATOM     11  C   UNL     1      44.861   2.694  10.368  0.00  0.00    +0.000 C 
BRANCH  11  12
ATOM     12  C   UNL     1      44.613   2.235   8.906  0.00  0.00    +0.000 C 
ATOM     13  C   UNL     1      44.801   3.352   7.893  0.00  0.00    +0.000 C 
ATOM     14  C   UNL     1      46.299   3.367   7.653  0.00  0.00    +0.000 C 
ATOM     15  C   UNL     1      46.751   1.941   7.939  0.00  0.00    +0.000 C 
ATOM     16  N   UNL     1      45.586   1.224   8.461  0.00  0.00    +0.000 NA
ATOM     17  H   UNL     1      45.849   0.652   9.269  0.00  0.00    +0.000 HD
ENDBRANCH  11  12
ENDBRANCH   9  11
ENDBRANCH   8   9
ENDBRANCH   5   8
ENDBRANCH   1   2
BRANCH   1  20
ATOM     18  O   UNL     1      50.106   7.144  14.501  0.00  0.00    +0.000 OA
ATOM     19  C   UNL     1      49.116   6.941  15.199  0.00  0.00    +0.000 C 
ATOM     20  N   UNL     1      47.840   6.999  14.712  0.00  0.00    +0.000 N 
ATOM     21  H   UNL     1      47.050   6.826  15.317  0.00  0.00    +0.000 HD
BRANCH  19  22
ATOM     22  C   UNL     1      49.225   6.674  16.636  0.00  0.00    +0.000 A 
ATOM     23  C   UNL     1      49.732   7.635  17.498  0.00  0.00    +0.000 A 
ATOM     24  S   UNL     1      49.710   7.151  19.136  0.00  0.00    +0.000 S 
ATOM     25  C   UNL     1      49.065   5.626  18.736  0.00  0.00    +0.000 A 
ATOM     26  N   UNL     1      48.785   4.706  19.699  0.00  0.00    +0.000 NA
ATOM     27  C   UNL     1      48.325   3.586  19.247  0.00  0.00    +0.000 A 
ATOM     28  N   UNL     1      48.132   3.297  17.921  0.00  0.00    +0.000 N 
ATOM     29  C   UNL     1      48.401   4.193  16.915  0.00  0.00    +0.000 A 
ATOM     30  O   UNL     1      48.212   3.899  15.741  0.00  0.00    +0.000 OA
ATOM     31  C   UNL     1      48.887   5.481  17.374  0.00  0.00    +0.000 A 
ATOM     32  H   UNL     1      47.778   2.398  17.630  0.00  0.00    +0.000 HD
ENDBRANCH  19  22
ENDBRANCH   1  20
TORSDOF 7
ENDMDL
MODEL 6
REMARK VINA RESULT:    -6.957      2.572      3.110
REMARK INTER + INTRA:         -10.723
REMARK INTER:                  -9.938
REMARK INTRA:                  -0.786
REMARK UNBOUND:                -0.920
REMARK  Name = 
REMARK  7 active torsions:
REMARK  status: ('A' for Active; 'I' for Inactive)
REMARK    1  A    between atoms: C_2  and  C_19
REMARK    2  A    between atoms: N_3  and  C_4
REMARK    3  A    between atoms: C_4  and  C_5
REMARK    4  A    between atoms: C_8  and  C_9
REMARK    5  A    between atoms: C_9  and  N_10
REMARK    6  A    between atoms: N_10  and  C_11
REMARK    7  A    between atoms: C_11  and  C_12
REMARK                            x       y       z     vdW  Elec       q    Type
REMARK                         _______ _______ _______ _____ _____    ______ ____
ROOT
ATOM      1  C   UNL     1      47.157   4.190  15.048  0.00  0.00    +0.000 C 
ENDROOT
BRANCH   1   2
ATOM      2  C   UNL     1      46.481   4.361  13.710  0.00  0.00    +0.000 A 
ATOM      3  C   UNL     1      46.551   5.582  13.046  0.00  0.00    +0.000 A 
ATOM      4  C   UNL     1      45.924   5.717  11.813  0.00  0.00    +0.000 A 
ATOM      5  C   UNL     1      45.234   4.634  11.262  0.00  0.00    +0.000 A 
ATOM      6  C   UNL     1      45.194   3.462  12.009  0.00  0.00    +0.000 A 
ATOM      7  N   UNL     1      45.794   3.299  13.211  0.00  0.00    +0.000 NA
BRANCH   5   8
ATOM      8  C   UNL     1      44.544   4.739   9.930  0.00  0.00    +0.000 C 
BRANCH   8   9
ATOM      9  N   UNL     1      44.237   3.415   9.387  0.00  0.00    +0.000 NA
ATOM     10  H   UNL     1      43.225   3.271   9.409  0.00  0.00    +0.000 HD
BRANCH   9  11
ATOM     11  C   UNL     1      44.713   3.284   8.004  0.00  0.00    +0.000 C 
BRANCH  11  12
ATOM     12  C   UNL     1      46.263   3.316   7.954  0.00  0.00    +0.000 C 
ATOM     13  C   UNL     1      46.878   1.957   7.662  0.00  0.00    +0.000 C 
ATOM     14  C   UNL     1      46.813   1.853   6.150  0.00  0.00    +0.000 C 
ATOM     15  C   UNL     1      46.846   3.295   5.661  0.00  0.00    +0.000 C 
ATOM     16  N   UNL     1      46.773   4.147   6.850  0.00  0.00    +0.000 NA
ATOM     17  H   UNL     1      46.118   4.919   6.698  0.00  0.00    +0.000 HD
ENDBRANCH  11  12
ENDBRANCH   9  11
ENDBRANCH   8   9
ENDBRANCH   5   8
ENDBRANCH   1   2
BRANCH   1  20
ATOM     18  O   UNL     1      49.446   4.806  16.600  0.00  0.00    +0.000 OA
ATOM     19  C   UNL     1      48.577   5.659  16.440  0.00  0.00    +0.000 C 
ATOM     20  N   UNL     1      47.472   5.457  15.661  0.00  0.00    +0.000 N 
ATOM     21  H   UNL     1      46.779   6.185  15.553  0.00  0.00    +0.000 HD
BRANCH  19  22
ATOM     22  C   UNL     1      48.688   6.995  17.033  0.00  0.00    +0.000 A 
ATOM     23  C   UNL     1      49.234   8.047  16.313  0.00  0.00    +0.000 A 
ATOM     24  S   UNL     1      49.208   9.530  17.159  0.00  0.00    +0.000 S 
ATOM     25  C   UNL     1      48.509   8.802  18.530  0.00  0.00    +0.000 A 
ATOM     26  N   UNL     1      48.206   9.531  19.638  0.00  0.00    +0.000 NA
ATOM     27  C   UNL     1      47.703   8.842  20.609  0.00  0.00    +0.000 A 
ATOM     28  N   UNL     1      47.491   7.488  20.580  0.00  0.00    +0.000 N 
ATOM     29  C   UNL     1      47.783   6.711  19.485  0.00  0.00    +0.000 A 
ATOM     30  O   UNL     1      47.575   5.503  19.496  0.00  0.00    +0.000 OA
ATOM     31  C   UNL     1      48.316   7.445  18.353  0.00  0.00    +0.000 A 
ATOM     32  H   UNL     1      47.104   7.004  21.376  0.00  0.00    +0.000 HD
ENDBRANCH  19  22
ENDBRANCH   1  20
TORSDOF 7
ENDMDL
MODEL 7
REMARK VINA RESULT:    -6.828      2.728      8.270
REMARK INTER + INTRA:         -10.541
REMARK INTER:                  -9.344
REMARK INTRA:                  -1.197
REMARK UNBOUND:                -0.920
REMARK  Name = 
REMARK  7 active torsions:
REMARK  status: ('A' for Active; 'I' for Inactive)
REMARK    1  A    between atoms: C_2  and  C_19
REMARK    2  A    between atoms: N_3  and  C_4
REMARK    3  A    between atoms: C_4  and  C_5
REMARK    4  A    between atoms: C_8  and  C_9
REMARK    5  A    between atoms: C_9  and  N_10
REMARK    6  A    between atoms: N_10  and  C_11
REMARK    7  A    between atoms: C_11  and  C_12
REMARK                            x       y       z     vdW  Elec       q    Type
REMARK                         _______ _______ _______ _____ _____    ______ ____
ROOT
ATOM      1  C   UNL     1      47.438   7.816  12.163  0.00  0.00    +0.000 C 
ENDROOT
BRANCH   1   2
ATOM      2  C   UNL     1      48.039   7.798  13.548  0.00  0.00    +0.000 A 
ATOM      3  C   UNL     1      47.830   8.870  14.410  0.00  0.00    +0.000 A 
ATOM      4  C   UNL     1      48.389   8.832  15.681  0.00  0.00    +0.000 A 
ATOM      5  C   UNL     1      49.151   7.729  16.073  0.00  0.00    +0.000 A 
ATOM      6  C   UNL     1      49.330   6.717  15.136  0.00  0.00    +0.000 A 
ATOM      7  N   UNL     1      48.799   6.724  13.890  0.00  0.00    +0.000 NA
BRANCH   5   8
ATOM      8  C   UNL     1      49.773   7.648  17.440  0.00  0.00    +0.000 C 
BRANCH   8   9
ATOM      9  N   UNL     1      48.930   6.884  18.361  0.00  0.00    +0.000 NA
ATOM     10  H   UNL     1      48.016   6.732  17.929  0.00  0.00    +0.000 HD
BRANCH   9  11
ATOM     11  C   UNL     1      49.534   5.584  18.680  0.00  0.00    +0.000 C 
BRANCH  11  12
ATOM     12  C   UNL     1      48.436   4.505  18.878  0.00  0.00    +0.000 C 
ATOM     13  C   UNL     1      47.316   4.602  17.854  0.00  0.00    +0.000 C 
ATOM     14  C   UNL     1      47.864   3.852  16.654  0.00  0.00    +0.000 C 
ATOM     15  C   UNL     1      48.845   2.846  17.242  0.00  0.00    +0.000 C 
ATOM     16  N   UNL     1      48.947   3.139  18.673  0.00  0.00    +0.000 NA
ATOM     17  H   UNL     1      49.924   3.111  18.977  0.00  0.00    +0.000 HD
ENDBRANCH  11  12
ENDBRANCH   9  11
ENDBRANCH   8   9
ENDBRANCH   5   8
ENDBRANCH   1   2
BRANCH   1  20
ATOM     18  O   UNL     1      44.667   7.539  11.642  0.00  0.00    +0.000 OA
ATOM     19  C   UNL     1      45.379   6.538  11.673  0.00  0.00    +0.000 C 
ATOM     20  N   UNL     1      46.732   6.595  11.863  0.00  0.00    +0.000 N 
ATOM     21  H   UNL     1      47.284   5.749  11.882  0.00  0.00    +0.000 HD
BRANCH  19  22
ATOM     22  C   UNL     1      44.835   5.196  11.448  0.00  0.00    +0.000 A 
ATOM     23  C   UNL     1      44.134   4.539  12.449  0.00  0.00    +0.000 A 
ATOM     24  S   UNL     1      43.527   3.019  11.962  0.00  0.00    +0.000 S 
ATOM     25  C   UNL     1      44.222   3.173  10.414  0.00  0.00    +0.000 A 
ATOM     26  N   UNL     1      44.067   2.203   9.473  0.00  0.00    +0.000 NA
ATOM     27  C   UNL     1      44.670   2.444   8.355  0.00  0.00    +0.000 A 
ATOM     28  N   UNL     1      45.424   3.559   8.098  0.00  0.00    +0.000 N 
ATOM     29  C   UNL     1      45.609   4.563   9.017  0.00  0.00    +0.000 A 
ATOM     30  O   UNL     1      46.288   5.548   8.747  0.00  0.00    +0.000 OA
ATOM     31  C   UNL     1      44.921   4.357  10.278  0.00  0.00    +0.000 A 
ATOM     32  H   UNL     1      45.879   3.685   7.206  0.00  0.00    +0.000 HD
ENDBRANCH  19  22
ENDBRANCH   1  20
TORSDOF 7
ENDMDL
MODEL 8
REMARK VINA RESULT:    -6.700      2.077      2.609
REMARK INTER + INTRA:         -10.362
REMARK INTER:                  -9.516
REMARK INTRA:                  -0.846
REMARK UNBOUND:                -0.920
REMARK  Name = 
REMARK  7 active torsions:
REMARK  status: ('A' for Active; 'I' for Inactive)
REMARK    1  A    between atoms: C_2  and  C_19
REMARK    2  A    between atoms: N_3  and  C_4
REMARK    3  A    between atoms: C_4  and  C_5
REMARK    4  A    between atoms: C_8  and  C_9
REMARK    5  A    between atoms: C_9  and  N_10
REMARK    6  A    between atoms: N_10  and  C_11
REMARK    7  A    between atoms: C_11  and  C_12
REMARK                            x       y       z     vdW  Elec       q    Type
REMARK                         _______ _______ _______ _____ _____    ______ ____
ROOT
ATOM      1  C   UNL     1      46.498   8.711  13.025  0.00  0.00    +0.000 C 
ENDROOT
BRANCH   1   2
ATOM      2  C   UNL     1      45.726   7.455  12.703  0.00  0.00    +0.000 A 
ATOM      3  C   UNL     1      46.064   6.254  13.321  0.00  0.00    +0.000 A 
ATOM      4  C   UNL     1      45.338   5.110  13.013  0.00  0.00    +0.000 A 
ATOM      5  C   UNL     1      44.290   5.178  12.093  0.00  0.00    +0.000 A 
ATOM      6  C   UNL     1      44.041   6.414  11.505  0.00  0.00    +0.000 A 
ATOM      7  N   UNL     1      44.730   7.546  11.783  0.00  0.00    +0.000 NA
BRANCH   5   8
ATOM      8  C   UNL     1      43.479   3.963  11.733  0.00  0.00    +0.000 C 
BRANCH   8   9
ATOM      9  N   UNL     1      44.343   2.833  11.390  0.00  0.00    +0.000 NA
ATOM     10  H   UNL     1      43.761   2.024  11.162  0.00  0.00    +0.000 HD
BRANCH   9  11
ATOM     11  C   UNL     1      45.200   3.150  10.239  0.00  0.00    +0.000 C 
BRANCH  11  12
ATOM     12  C   UNL     1      44.661   2.469   8.953  0.00  0.00    +0.000 C 
ATOM     13  C   UNL     1      44.977   3.251   7.689  0.00  0.00    +0.000 C 
ATOM     14  C   UNL     1      46.391   2.821   7.347  0.00  0.00    +0.000 C 
ATOM     15  C   UNL     1      46.523   1.423   7.936  0.00  0.00    +0.000 C 
ATOM     16  N   UNL     1      45.298   1.166   8.697  0.00  0.00    +0.000 NA
ATOM     17  H   UNL     1      45.520   0.733   9.598  0.00  0.00    +0.000 HD
ENDBRANCH  11  12
ENDBRANCH   9  11
ENDBRANCH   8   9
ENDBRANCH   5   8
ENDBRANCH   1   2
BRANCH   1  20
ATOM     18  O   UNL     1      48.937   9.844  13.916  0.00  0.00    +0.000 OA
ATOM     19  C   UNL     1      48.233   9.226  14.710  0.00  0.00    +0.000 C 
ATOM     20  N   UNL     1      47.018   8.698  14.370  0.00  0.00    +0.000 N 
ATOM     21  H   UNL     1      46.467   8.196  15.052  0.00  0.00    +0.000 HD
BRANCH  19  22
ATOM     22  C   UNL     1      48.618   9.053  16.113  0.00  0.00    +0.000 A 
ATOM     23  C   UNL     1      48.705  10.146  16.964  0.00  0.00    +0.000 A 
ATOM     24  S   UNL     1      49.102   9.722  18.570  0.00  0.00    +0.000 S 
ATOM     25  C   UNL     1      49.215   8.071  18.167  0.00  0.00    +0.000 A 
ATOM     26  N   UNL     1      49.516   7.135  19.108  0.00  0.00    +0.000 NA
ATOM     27  C   UNL     1      49.592   5.928  18.653  0.00  0.00    +0.000 A 
ATOM     28  N   UNL     1      49.409   5.572  17.342  0.00  0.00    +0.000 N 
ATOM     29  C   UNL     1      49.105   6.481  16.358  0.00  0.00    +0.000 A 
ATOM     30  O   UNL     1      48.945   6.124  15.197  0.00  0.00    +0.000 OA
ATOM     31  C   UNL     1      48.972   7.849  16.825  0.00  0.00    +0.000 A 
ATOM     32  H   UNL     1      49.491   4.611  17.047  0.00  0.00    +0.000 HD
ENDBRANCH  19  22
ENDBRANCH   1  20
TORSDOF 7
ENDMDL
MODEL 9
REMARK VINA RESULT:    -6.345      3.538      8.469
REMARK INTER + INTRA:          -9.861
REMARK INTER:                  -8.339
REMARK INTRA:                  -1.522
REMARK UNBOUND:                -0.920
REMARK  Name = 
REMARK  7 active torsions:
REMARK  status: ('A' for Active; 'I' for Inactive)
REMARK    1  A    between atoms: C_2  and  C_19
REMARK    2  A    between atoms: N_3  and  C_4
REMARK    3  A    between atoms: C_4  and  C_5
REMARK    4  A    between atoms: C_8  and  C_9
REMARK    5  A    between atoms: C_9  and  N_10
REMARK    6  A    between atoms: N_10  and  C_11
REMARK    7  A    between atoms: C_11  and  C_12
REMARK                            x       y       z     vdW  Elec       q    Type
REMARK                         _______ _______ _______ _____ _____    ______ ____
ROOT
ATOM      1  C   UNL     1      48.222   8.624  14.345  0.00  0.00    +0.000 C 
ENDROOT
BRANCH   1   2
ATOM      2  C   UNL     1      48.851   8.348  15.689  0.00  0.00    +0.000 A 
ATOM      3  C   UNL     1      48.288   8.886  16.843  0.00  0.00    +0.000 A 
ATOM      4  C   UNL     1      48.880   8.616  18.071  0.00  0.00    +0.000 A 
ATOM      5  C   UNL     1      50.025   7.818  18.130  0.00  0.00    +0.000 A 
ATOM      6  C   UNL     1      50.532   7.346  16.925  0.00  0.00    +0.000 A 
ATOM      7  N   UNL     1      49.979   7.591  15.713  0.00  0.00    +0.000 NA
BRANCH   5   8
ATOM      8  C   UNL     1      50.695   7.502  19.440  0.00  0.00    +0.000 C 
BRANCH   8   9
ATOM      9  N   UNL     1      49.846   6.653  20.277  0.00  0.00    +0.000 NA
ATOM     10  H   UNL     1      48.891   7.014  20.258  0.00  0.00    +0.000 HD
BRANCH   9  11
ATOM     11  C   UNL     1      49.846   5.264  19.798  0.00  0.00    +0.000 C 
BRANCH  11  12
ATOM     12  C   UNL     1      48.406   4.686  19.801  0.00  0.00    +0.000 C 
ATOM     13  C   UNL     1      47.507   5.323  18.754  0.00  0.00    +0.000 C 
ATOM     14  C   UNL     1      47.834   4.554  17.488  0.00  0.00    +0.000 C 
ATOM     15  C   UNL     1      48.298   3.187  17.974  0.00  0.00    +0.000 C 
ATOM     16  N   UNL     1      48.372   3.260  19.435  0.00  0.00    +0.000 NA
ATOM     17  H   UNL     1      49.233   2.819  19.772  0.00  0.00    +0.000 HD
ENDBRANCH  11  12
ENDBRANCH   9  11
ENDBRANCH   8   9
ENDBRANCH   5   8
ENDBRANCH   1   2
BRANCH   1  20
ATOM     18  O   UNL     1      48.773   6.298  12.825  0.00  0.00    +0.000 OA
ATOM     19  C   UNL     1      47.620   6.527  13.183  0.00  0.00    +0.000 C 
ATOM     20  N   UNL     1      47.284   7.597  13.964  0.00  0.00    +0.000 N 
ATOM     21  H   UNL     1      46.324   7.751  14.239  0.00  0.00    +0.000 HD
BRANCH  19  22
ATOM     22  C   UNL     1      46.514   5.628  12.844  0.00  0.00    +0.000 A 
ATOM     23  C   UNL     1      46.607   4.266  13.089  0.00  0.00    +0.000 A 
ATOM     24  S   UNL     1      45.186   3.409  12.685  0.00  0.00    +0.000 S 
ATOM     25  C   UNL     1      44.420   4.825  12.129  0.00  0.00    +0.000 A 
ATOM     26  N   UNL     1      43.147   4.796  11.650  0.00  0.00    +0.000 NA
ATOM     27  C   UNL     1      42.705   5.939  11.241  0.00  0.00    +0.000 A 
ATOM     28  N   UNL     1      43.425   7.106  11.254  0.00  0.00    +0.000 N 
ATOM     29  C   UNL     1      44.713   7.183  11.727  0.00  0.00    +0.000 A 
ATOM     30  O   UNL     1      45.322   8.247  11.725  0.00  0.00    +0.000 OA
ATOM     31  C   UNL     1      45.242   5.931  12.232  0.00  0.00    +0.000 A 
ATOM     32  H   UNL     1      43.026   7.967  10.911  0.00  0.00    +0.000 HD
ENDBRANCH  19  22
ENDBRANCH   1  20
TORSDOF 7
ENDMDL
