MODEL 1
REMARK VINA RESULT:    -9.091      0.000      0.000
REMARK INTER + INTRA:         -13.544
REMARK INTER:                 -12.811
REMARK INTRA:                  -0.733
REMARK UNBOUND:                -0.733
REMARK  Name = 
REMARK  7 active torsions:
REMARK  status: ('A' for Active; 'I' for Inactive)
REMARK    1  A    between atoms: C_2  and  C_4
REMARK    2  A    between atoms: N_8  and  C_9
REMARK    3  A    between atoms: C_9  and  C_10
REMARK    4  A    between atoms: C_10  and  C_11
REMARK    5  A    between atoms: C_15  and  O_16
REMARK    6  A    between atoms: O_16  and  C_17
REMARK    7  A    between atoms: C_19  and  C_20
REMARK                            x       y       z     vdW  Elec       q    Type
REMARK                         _______ _______ _______ _____ _____    ______ ____
ROOT
ATOM      1  C   UNL     1      43.619   5.538  12.215  0.00  0.00    +0.000 C 
ENDROOT
BRANCH   1   2
ATOM      2  C   UNL     1      45.099   5.702  12.518  0.00  0.00    +0.000 A 
ATOM      3  C   UNL     1      45.906   6.678  11.915  0.00  0.00    +0.000 A 
ATOM      4  C   UNL     1      47.259   6.792  12.230  0.00  0.00    +0.000 A 
ATOM      5  C   UNL     1      47.838   5.932  13.157  0.00  0.00    +0.000 A 
ATOM      6  C   UNL     1      47.060   4.949  13.763  0.00  0.00    +0.000 A 
ATOM      7  C   UNL     1      45.700   4.839  13.448  0.00  0.00    +0.000 A 
BRANCH   6   8
ATOM      8  O   UNL     1      47.524   4.066  14.704  0.00  0.00    +0.000 OA
BRANCH   8   9
ATOM      9  C   UNL     1      47.522   4.459  16.093  0.00  0.00    +0.000 C 
ATOM     10  C   UNL     1      48.697   5.346  16.572  0.00  0.00    +0.000 C 
ATOM     11  C   UNL     1      48.903   4.398  17.779  0.00  0.00    +0.000 C 
ATOM     12  C   UNL     1      48.034   3.357  17.040  0.00  0.00    +0.000 C 
BRANCH  11  13
ATOM     13  C   UNL     1      48.406   4.866  19.130  0.00  0.00    +0.000 C 
ATOM     14  F   UNL     1      47.130   5.305  19.070  0.00  0.00    +0.000 F 
ATOM     15  F   UNL     1      48.461   3.873  20.045  0.00  0.00    +0.000 F 
ATOM     16  F   UNL     1      49.176   5.882  19.581  0.00  0.00    +0.000 F 
ENDBRANCH  11  13
ENDBRANCH   8   9
ENDBRANCH   6   8
ENDBRANCH   1   2
BRANCH   1  17
ATOM     17  C   UNL     1      43.303   4.432  11.201  0.00  0.00    +0.000 C 
BRANCH  17  22
ATOM     18  C   UNL     1      46.437   2.492   7.763  0.00  0.00    +0.000 A 
ATOM     19  C   UNL     1      45.600   1.848   8.663  0.00  0.00    +0.000 A 
ATOM     20  C   UNL     1      44.680   2.604   9.387  0.00  0.00    +0.000 A 
ATOM     21  C   UNL     1      44.631   3.988   9.221  0.00  0.00    +0.000 A 
ATOM     22  N   UNL     1      43.683   4.792   9.846  0.00  0.00    +0.000 N 
ATOM     23  N   UNL     1      45.472   4.627   8.386  0.00  0.00    +0.000 NA
ATOM     24  C   UNL     1      46.359   3.873   7.678  0.00  0.00    +0.000 A 
ATOM     25  H   UNL     1      43.970   5.758   9.696  0.00  0.00    +0.000 HD
BRANCH  18  27
ATOM     26  N   UNL     1      48.474   2.458   6.445  0.00  0.00    +0.000 N 
ATOM     27  C   UNL     1      47.386   1.764   6.900  0.00  0.00    +0.000 C 
ATOM     28  O   UNL     1      47.231   0.582   6.636  0.00  0.00    +0.000 OA
ATOM     29  H   UNL     1      49.179   1.914   5.958  0.00  0.00    +0.000 HD
ATOM     30  H   UNL     1      48.769   3.331   6.857  0.00  0.00    +0.000 HD
ENDBRANCH  18  27
ENDBRANCH  17  22
ENDBRANCH   1  17
TORSDOF 7
ENDMDL
MODEL 2
REMARK VINA RESULT:    -8.193      3.608      4.707
REMARK INTER + INTRA:         -12.279
REMARK INTER:                 -11.577
REMARK INTRA:                  -0.702
REMARK UNBOUND:                -0.733
REMARK  Name = 
REMARK  7 active torsions:
REMARK  status: ('A' for Active; 'I' for Inactive)
REMARK    1  A    between atoms: C_2  and  C_4
REMARK    2  A    between atoms: N_8  and  C_9
REMARK    3  A    between atoms: C_9  and  C_10
REMARK    4  A    between atoms: C_10  and  C_11
REMARK    5  A    between atoms: C_15  and  O_16
REMARK    6  A    between atoms: O_16  and  C_17
REMARK    7  A    between atoms: C_19  and  C_20
REMARK                            x       y       z     vdW  Elec       q    Type
REMARK                         _______ _______ _______ _____ _____    ______ ____
ROOT
ATOM      1  C   UNL     1      43.893   5.990  11.810  0.00  0.00    +0.000 C 
ENDROOT
BRANCH   1   2
ATOM      2  C   UNL     1      45.137   5.653  12.616  0.00  0.00    +0.000 A 
ATOM      3  C   UNL     1      45.407   4.369  13.113  0.00  0.00    +0.000 A 
ATOM      4  C   UNL     1      46.566   4.107  13.844  0.00  0.00    +0.000 A 
ATOM      5  C   UNL     1      47.482   5.123  14.094  0.00  0.00    +0.000 A 
ATOM      6  C   UNL     1      47.231   6.407  13.619  0.00  0.00    +0.000 A 
ATOM      7  C   UNL     1      46.069   6.668  12.882  0.00  0.00    +0.000 A 
BRANCH   6   8
ATOM      8  O   UNL     1      48.075   7.474  13.789  0.00  0.00    +0.000 OA
BRANCH   8   9
ATOM      9  C   UNL     1      49.326   7.498  13.071  0.00  0.00    +0.000 C 
ATOM     10  C   UNL     1      50.006   8.877  12.892  0.00  0.00    +0.000 C 
ATOM     11  C   UNL     1      50.188   8.577  11.383  0.00  0.00    +0.000 C 
ATOM     12  C   UNL     1      49.154   7.441  11.540  0.00  0.00    +0.000 C 
BRANCH  11  13
ATOM     13  C   UNL     1      51.569   8.182  10.909  0.00  0.00    +0.000 C 
ATOM     14  F   UNL     1      51.991   8.962   9.888  0.00  0.00    +0.000 F 
ATOM     15  F   UNL     1      52.477   8.276  11.905  0.00  0.00    +0.000 F 
ATOM     16  F   UNL     1      51.563   6.900  10.478  0.00  0.00    +0.000 F 
ENDBRANCH  11  13
ENDBRANCH   8   9
ENDBRANCH   6   8
ENDBRANCH   1   2
BRANCH   1  17
ATOM     17  C   UNL     1      43.404   4.855  10.903  0.00  0.00    +0.000 C 
BRANCH  17  22
ATOM     18  C   UNL     1      46.473   2.346   7.790  0.00  0.00    +0.000 A 
ATOM     19  C   UNL     1      45.590   1.862   8.745  0.00  0.00    +0.000 A 
ATOM     20  C   UNL     1      44.704   2.749   9.352  0.00  0.00    +0.000 A 
ATOM     21  C   UNL     1      44.732   4.103   9.018  0.00  0.00    +0.000 A 
ATOM     22  N   UNL     1      43.821   5.025   9.522  0.00  0.00    +0.000 N 
ATOM     23  N   UNL     1      45.617   4.589   8.128  0.00  0.00    +0.000 NA
ATOM     24  C   UNL     1      46.471   3.708   7.535  0.00  0.00    +0.000 A 
ATOM     25  H   UNL     1      44.162   5.949   9.260  0.00  0.00    +0.000 HD
BRANCH  18  27
ATOM     26  N   UNL     1      48.516   2.047   6.515  0.00  0.00    +0.000 N 
ATOM     27  C   UNL     1      47.392   1.469   7.041  0.00  0.00    +0.000 C 
ATOM     28  O   UNL     1      47.183   0.272   6.929  0.00  0.00    +0.000 OA
ATOM     29  H   UNL     1      49.197   1.412   6.112  0.00  0.00    +0.000 HD
ATOM     30  H   UNL     1      48.850   2.951   6.816  0.00  0.00    +0.000 HD
ENDBRANCH  18  27
ENDBRANCH  17  22
ENDBRANCH   1  17
TORSDOF 7
ENDMDL
MODEL 3
REMARK VINA RESULT:    -7.742      5.821      9.319
REMARK INTER + INTRA:         -11.643
REMARK INTER:                 -11.197
REMARK INTRA:                  -0.446
REMARK UNBOUND:                -0.733
REMARK  Name = 
REMARK  7 active torsions:
REMARK  status: ('A' for Active; 'I' for Inactive)
REMARK    1  A    between atoms: C_2  and  C_4
REMARK    2  A    between atoms: N_8  and  C_9
REMARK    3  A    between atoms: C_9  and  C_10
REMARK    4  A    between atoms: C_10  and  C_11
REMARK    5  A    between atoms: C_15  and  O_16
REMARK    6  A    between atoms: O_16  and  C_17
REMARK    7  A    between atoms: C_19  and  C_20
REMARK                            x       y       z     vdW  Elec       q    Type
REMARK                         _______ _______ _______ _____ _____    ______ ____
ROOT
ATOM      1  C   UNL     1      46.920   4.314  13.600  0.00  0.00    +0.000 C 
ENDROOT
BRANCH   1   2
ATOM      2  C   UNL     1      45.558   4.341  12.925  0.00  0.00    +0.000 A 
ATOM      3  C   UNL     1      44.441   4.991  13.470  0.00  0.00    +0.000 A 
ATOM      4  C   UNL     1      43.213   4.992  12.810  0.00  0.00    +0.000 A 
ATOM      5  C   UNL     1      43.072   4.343  11.588  0.00  0.00    +0.000 A 
ATOM      6  C   UNL     1      44.164   3.683  11.031  0.00  0.00    +0.000 A 
ATOM      7  C   UNL     1      45.398   3.687  11.693  0.00  0.00    +0.000 A 
BRANCH   6   8
ATOM      8  O   UNL     1      44.142   3.033   9.824  0.00  0.00    +0.000 OA
BRANCH   8   9
ATOM      9  C   UNL     1      45.311   3.085   8.980  0.00  0.00    +0.000 C 
ATOM     10  C   UNL     1      45.086   3.449   7.492  0.00  0.00    +0.000 C 
ATOM     11  C   UNL     1      45.956   2.237   7.077  0.00  0.00    +0.000 C 
ATOM     12  C   UNL     1      45.792   1.696   8.514  0.00  0.00    +0.000 C 
BRANCH  11  13
ATOM     13  C   UNL     1      47.367   2.514   6.610  0.00  0.00    +0.000 C 
ATOM     14  F   UNL     1      48.195   1.478   6.871  0.00  0.00    +0.000 F 
ATOM     15  F   UNL     1      47.408   2.752   5.279  0.00  0.00    +0.000 F 
ATOM     16  F   UNL     1      47.858   3.608   7.237  0.00  0.00    +0.000 F 
ENDBRANCH  11  13
ENDBRANCH   8   9
ENDBRANCH   6   8
ENDBRANCH   1   2
BRANCH   1  17
ATOM     17  C   UNL     1      46.866   4.426  15.128  0.00  0.00    +0.000 C 
BRANCH  17  22
ATOM     18  C   UNL     1      50.999   2.914  17.586  0.00  0.00    +0.000 A 
ATOM     19  C   UNL     1      50.368   4.150  17.589  0.00  0.00    +0.000 A 
ATOM     20  C   UNL     1      49.123   4.271  16.976  0.00  0.00    +0.000 A 
ATOM     21  C   UNL     1      48.544   3.169  16.347  0.00  0.00    +0.000 A 
ATOM     22  N   UNL     1      47.269   3.198  15.791  0.00  0.00    +0.000 N 
ATOM     23  N   UNL     1      49.171   1.978  16.298  0.00  0.00    +0.000 NA
ATOM     24  C   UNL     1      50.383   1.872  16.911  0.00  0.00    +0.000 A 
ATOM     25  H   UNL     1      47.160   2.337  15.258  0.00  0.00    +0.000 HD
BRANCH  18  27
ATOM     26  N   UNL     1      52.728   1.382  18.329  0.00  0.00    +0.000 N 
ATOM     27  C   UNL     1      52.279   2.675  18.277  0.00  0.00    +0.000 C 
ATOM     28  O   UNL     1      52.933   3.592  18.745  0.00  0.00    +0.000 OA
ATOM     29  H   UNL     1      53.665   1.250  18.695  0.00  0.00    +0.000 HD
ATOM     30  H   UNL     1      52.361   0.659  17.729  0.00  0.00    +0.000 HD
ENDBRANCH  18  27
ENDBRANCH  17  22
ENDBRANCH   1  17
TORSDOF 7
ENDMDL
MODEL 4
REMARK VINA RESULT:    -7.625      5.413      8.793
REMARK INTER + INTRA:         -11.478
REMARK INTER:                 -10.641
REMARK INTRA:                  -0.837
REMARK UNBOUND:                -0.733
REMARK  Name = 
REMARK  7 active torsions:
REMARK  status: ('A' for Active; 'I' for Inactive)
REMARK    1  A    between atoms: C_2  and  C_4
REMARK    2  A    between atoms: N_8  and  C_9
REMARK    3  A    between atoms: C_9  and  C_10
REMARK    4  A    between atoms: C_10  and  C_11
REMARK    5  A    between atoms: C_15  and  O_16
REMARK    6  A    between atoms: O_16  and  C_17
REMARK    7  A    between atoms: C_19  and  C_20
REMARK                            x       y       z     vdW  Elec       q    Type
REMARK                         _______ _______ _______ _____ _____    ______ ____
ROOT
ATOM      1  C   UNL     1      46.449   6.899  11.897  0.00  0.00    +0.000 C 
ENDROOT
BRANCH   1   2
ATOM      2  C   UNL     1      45.319   5.883  11.941  0.00  0.00    +0.000 A 
ATOM      3  C   UNL     1      44.279   5.929  12.881  0.00  0.00    +0.000 A 
ATOM      4  C   UNL     1      43.261   4.976  12.878  0.00  0.00    +0.000 A 
ATOM      5  C   UNL     1      43.259   3.954  11.935  0.00  0.00    +0.000 A 
ATOM      6  C   UNL     1      44.287   3.881  10.999  0.00  0.00    +0.000 A 
ATOM      7  C   UNL     1      45.306   4.841  11.000  0.00  0.00    +0.000 A 
BRANCH   6   8
ATOM      8  O   UNL     1      44.371   2.931  10.014  0.00  0.00    +0.000 OA
BRANCH   8   9
ATOM      9  C   UNL     1      45.443   3.013   9.051  0.00  0.00    +0.000 C 
ATOM     10  C   UNL     1      45.069   3.477   7.623  0.00  0.00    +0.000 C 
ATOM     11  C   UNL     1      45.856   2.277   7.041  0.00  0.00    +0.000 C 
ATOM     12  C   UNL     1      45.833   1.648   8.452  0.00  0.00    +0.000 C 
BRANCH  11  13
ATOM     13  C   UNL     1      47.216   2.555   6.440  0.00  0.00    +0.000 C 
ATOM     14  F   UNL     1      47.908   3.463   7.164  0.00  0.00    +0.000 F 
ATOM     15  F   UNL     1      47.961   1.430   6.365  0.00  0.00    +0.000 F 
ATOM     16  F   UNL     1      47.078   3.041   5.185  0.00  0.00    +0.000 F 
ENDBRANCH  11  13
ENDBRANCH   8   9
ENDBRANCH   6   8
ENDBRANCH   1   2
BRANCH   1  17
ATOM     17  C   UNL     1      46.797   7.512  13.258  0.00  0.00    +0.000 C 
BRANCH  17  22
ATOM     18  C   UNL     1      48.464   4.316  16.781  0.00  0.00    +0.000 A 
ATOM     19  C   UNL     1      47.394   4.192  15.907  0.00  0.00    +0.000 A 
ATOM     20  C   UNL     1      47.245   5.130  14.887  0.00  0.00    +0.000 A 
ATOM     21  C   UNL     1      48.148   6.187  14.775  0.00  0.00    +0.000 A 
ATOM     22  N   UNL     1      48.109   7.108  13.733  0.00  0.00    +0.000 N 
ATOM     23  N   UNL     1      49.162   6.342  15.647  0.00  0.00    +0.000 NA
ATOM     24  C   UNL     1      49.300   5.411  16.633  0.00  0.00    +0.000 A 
ATOM     25  H   UNL     1      48.755   7.857  13.977  0.00  0.00    +0.000 HD
BRANCH  18  27
ATOM     26  N   UNL     1      47.876   3.286  18.898  0.00  0.00    +0.000 N 
ATOM     27  C   UNL     1      48.743   3.328  17.839  0.00  0.00    +0.000 C 
ATOM     28  O   UNL     1      49.682   2.552  17.758  0.00  0.00    +0.000 OA
ATOM     29  H   UNL     1      48.008   2.522  19.553  0.00  0.00    +0.000 HD
ATOM     30  H   UNL     1      46.961   3.711  18.863  0.00  0.00    +0.000 HD
ENDBRANCH  18  27
ENDBRANCH  17  22
ENDBRANCH   1  17
TORSDOF 7
ENDMDL
MODEL 5
REMARK VINA RESULT:    -7.089      5.421      8.366
REMARK INTER + INTRA:         -10.724
REMARK INTER:                 -10.062
REMARK INTRA:                  -0.662
REMARK UNBOUND:                -0.733
REMARK  Name = 
REMARK  7 active torsions:
REMARK  status: ('A' for Active; 'I' for Inactive)
REMARK    1  A    between atoms: C_2  and  C_4
REMARK    2  A    between atoms: N_8  and  C_9
REMARK    3  A    between atoms: C_9  and  C_10
REMARK    4  A    between atoms: C_10  and  C_11
REMARK    5  A    between atoms: C_15  and  O_16
REMARK    6  A    between atoms: O_16  and  C_17
REMARK    7  A    between atoms: C_19  and  C_20
REMARK                            x       y       z     vdW  Elec       q    Type
REMARK                         _______ _______ _______ _____ _____    ______ ____
ROOT
ATOM      1  C   UNL     1      46.741   4.167  13.573  0.00  0.00    +0.000 C 
ENDROOT
BRANCH   1   2
ATOM      2  C   UNL     1      45.412   4.251  12.841  0.00  0.00    +0.000 A 
ATOM      3  C   UNL     1      44.288   4.912  13.358  0.00  0.00    +0.000 A 
ATOM      4  C   UNL     1      43.090   4.966  12.645  0.00  0.00    +0.000 A 
ATOM      5  C   UNL     1      42.989   4.361  11.397  0.00  0.00    +0.000 A 
ATOM      6  C   UNL     1      44.088   3.691  10.867  0.00  0.00    +0.000 A 
ATOM      7  C   UNL     1      45.291   3.641  11.582  0.00  0.00    +0.000 A 
BRANCH   6   8
ATOM      8  O   UNL     1      44.104   3.080   9.639  0.00  0.00    +0.000 OA
BRANCH   8   9
ATOM      9  C   UNL     1      45.310   3.130   8.848  0.00  0.00    +0.000 C 
ATOM     10  C   UNL     1      45.145   3.410   7.335  0.00  0.00    +0.000 C 
ATOM     11  C   UNL     1      46.073   2.210   7.025  0.00  0.00    +0.000 C 
ATOM     12  C   UNL     1      45.858   1.738   8.479  0.00  0.00    +0.000 C 
BRANCH  11  13
ATOM     13  C   UNL     1      47.495   2.513   6.609  0.00  0.00    +0.000 C 
ATOM     14  F   UNL     1      47.970   3.623   7.217  0.00  0.00    +0.000 F 
ATOM     15  F   UNL     1      48.325   1.489   6.911  0.00  0.00    +0.000 F 
ATOM     16  F   UNL     1      47.557   2.711   5.273  0.00  0.00    +0.000 F 
ENDBRANCH  11  13
ENDBRANCH   8   9
ENDBRANCH   6   8
ENDBRANCH   1   2
BRANCH   1  17
ATOM     17  C   UNL     1      46.744   4.844  14.949  0.00  0.00    +0.000 C 
BRANCH  17  22
ATOM     18  C   UNL     1      48.813   8.635  12.350  0.00  0.00    +0.000 A 
ATOM     19  C   UNL     1      47.476   8.325  12.552  0.00  0.00    +0.000 A 
ATOM     20  C   UNL     1      47.147   7.332  13.472  0.00  0.00    +0.000 A 
ATOM     21  C   UNL     1      48.156   6.648  14.151  0.00  0.00    +0.000 A 
ATOM     22  N   UNL     1      47.897   5.708  15.142  0.00  0.00    +0.000 N 
ATOM     23  N   UNL     1      49.457   6.909  13.926  0.00  0.00    +0.000 NA
ATOM     24  C   UNL     1      49.763   7.890  13.031  0.00  0.00    +0.000 A 
ATOM     25  H   UNL     1      48.781   5.246  15.349  0.00  0.00    +0.000 HD
BRANCH  18  27
ATOM     26  N   UNL     1      50.573   9.751  11.106  0.00  0.00    +0.000 N 
ATOM     27  C   UNL     1      49.249   9.723  11.455  0.00  0.00    +0.000 C 
ATOM     28  O   UNL     1      48.459  10.539  11.009  0.00  0.00    +0.000 OA
ATOM     29  H   UNL     1      50.833  10.427  10.395  0.00  0.00    +0.000 HD
ATOM     30  H   UNL     1      51.181   8.955  11.230  0.00  0.00    +0.000 HD
ENDBRANCH  18  27
ENDBRANCH  17  22
ENDBRANCH   1  17
TORSDOF 7
ENDMDL
MODEL 6
REMARK VINA RESULT:    -6.912      3.348      4.454
REMARK INTER + INTRA:         -10.474
REMARK INTER:                 -10.318
REMARK INTRA:                  -0.157
REMARK UNBOUND:                -0.733
REMARK  Name = 
REMARK  7 active torsions:
REMARK  status: ('A' for Active; 'I' for Inactive)
REMARK    1  A    between atoms: C_2  and  C_4
REMARK    2  A    between atoms: N_8  and  C_9
REMARK    3  A    between atoms: C_9  and  C_10
REMARK    4  A    between atoms: C_10  and  C_11
REMARK    5  A    between atoms: C_15  and  O_16
REMARK    6  A    between atoms: O_16  and  C_17
REMARK    7  A    between atoms: C_19  and  C_20
REMARK                            x       y       z     vdW  Elec       q    Type
REMARK                         _______ _______ _______ _____ _____    ______ ____
ROOT
ATOM      1  C   UNL     1      43.596   5.979  11.553  0.00  0.00    +0.000 C 
ENDROOT
BRANCH   1   2
ATOM      2  C   UNL     1      44.970   5.817  12.184  0.00  0.00    +0.000 A 
ATOM      3  C   UNL     1      45.225   4.959  13.264  0.00  0.00    +0.000 A 
ATOM      4  C   UNL     1      46.505   4.841  13.805  0.00  0.00    +0.000 A 
ATOM      5  C   UNL     1      47.560   5.578  13.279  0.00  0.00    +0.000 A 
ATOM      6  C   UNL     1      47.329   6.444  12.214  0.00  0.00    +0.000 A 
ATOM      7  C   UNL     1      46.045   6.558  11.668  0.00  0.00    +0.000 A 
BRANCH   6   8
ATOM      8  O   UNL     1      48.299   7.199  11.607  0.00  0.00    +0.000 OA
BRANCH   8   9
ATOM      9  C   UNL     1      48.666   8.468  12.190  0.00  0.00    +0.000 C 
ATOM     10  C   UNL     1      50.006   9.090  11.729  0.00  0.00    +0.000 C 
ATOM     11  C   UNL     1      50.390   9.327  13.211  0.00  0.00    +0.000 C 
ATOM     12  C   UNL     1      49.268   8.340  13.603  0.00  0.00    +0.000 C 
BRANCH  11  13
ATOM     13  C   UNL     1      50.276  10.737  13.748  0.00  0.00    +0.000 C 
ATOM     14  F   UNL     1      50.298  10.762  15.099  0.00  0.00    +0.000 F 
ATOM     15  F   UNL     1      51.287  11.516  13.303  0.00  0.00    +0.000 F 
ATOM     16  F   UNL     1      49.116  11.297  13.339  0.00  0.00    +0.000 F 
ENDBRANCH  11  13
ENDBRANCH   8   9
ENDBRANCH   6   8
ENDBRANCH   1   2
BRANCH   1  17
ATOM     17  C   UNL     1      43.130   4.765  10.742  0.00  0.00    +0.000 C 
BRANCH  17  22
ATOM     18  C   UNL     1      46.482   2.772   7.549  0.00  0.00    +0.000 A 
ATOM     19  C   UNL     1      46.149   4.101   7.769  0.00  0.00    +0.000 A 
ATOM     20  C   UNL     1      45.325   4.418   8.846  0.00  0.00    +0.000 A 
ATOM     21  C   UNL     1      44.826   3.405   9.665  0.00  0.00    +0.000 A 
ATOM     22  N   UNL     1      44.069   3.658  10.805  0.00  0.00    +0.000 N 
ATOM     23  N   UNL     1      45.104   2.109   9.430  0.00  0.00    +0.000 NA
ATOM     24  C   UNL     1      45.920   1.815   8.379  0.00  0.00    +0.000 A 
ATOM     25  H   UNL     1      43.695   2.762  11.115  0.00  0.00    +0.000 HD
BRANCH  18  27
ATOM     26  N   UNL     1      47.309   2.997   5.278  0.00  0.00    +0.000 N 
ATOM     27  C   UNL     1      47.409   2.352   6.482  0.00  0.00    +0.000 C 
ATOM     28  O   UNL     1      48.258   1.497   6.673  0.00  0.00    +0.000 OA
ATOM     29  H   UNL     1      48.031   2.786   4.597  0.00  0.00    +0.000 HD
ATOM     30  H   UNL     1      46.818   3.873   5.174  0.00  0.00    +0.000 HD
ENDBRANCH  18  27
ENDBRANCH  17  22
ENDBRANCH   1  17
TORSDOF 7
ENDMDL
MODEL 7
REMARK VINA RESULT:    -6.853      5.908      9.729
REMARK INTER + INTRA:         -10.391
REMARK INTER:                 -10.148
REMARK INTRA:                  -0.243
REMARK UNBOUND:                -0.733
REMARK  Name = 
REMARK  7 active torsions:
REMARK  status: ('A' for Active; 'I' for Inactive)
REMARK    1  A    between atoms: C_2  and  C_4
REMARK    2  A    between atoms: N_8  and  C_9
REMARK    3  A    between atoms: C_9  and  C_10
REMARK    4  A    between atoms: C_10  and  C_11
REMARK    5  A    between atoms: C_15  and  O_16
REMARK    6  A    between atoms: O_16  and  C_17
REMARK    7  A    between atoms: C_19  and  C_20
REMARK                            x       y       z     vdW  Elec       q    Type
REMARK                         _______ _______ _______ _____ _____    ______ ____
ROOT
ATOM      1  C   UNL     1      46.787   3.980  13.392  0.00  0.00    +0.000 C 
ENDROOT
BRANCH   1   2
ATOM      2  C   UNL     1      45.653   4.345  12.447  0.00  0.00    +0.000 A 
ATOM      3  C   UNL     1      45.008   5.590  12.464  0.00  0.00    +0.000 A 
ATOM      4  C   UNL     1      43.975   5.880  11.572  0.00  0.00    +0.000 A 
ATOM      5  C   UNL     1      43.564   4.932  10.642  0.00  0.00    +0.000 A 
ATOM      6  C   UNL     1      44.183   3.685  10.613  0.00  0.00    +0.000 A 
ATOM      7  C   UNL     1      45.223   3.397  11.505  0.00  0.00    +0.000 A 
BRANCH   6   8
ATOM      8  O   UNL     1      43.872   2.688   9.725  0.00  0.00    +0.000 OA
BRANCH   8   9
ATOM      9  C   UNL     1      44.596   2.609   8.479  0.00  0.00    +0.000 C 
ATOM     10  C   UNL     1      45.953   1.865   8.502  0.00  0.00    +0.000 C 
ATOM     11  C   UNL     1      46.604   3.057   7.758  0.00  0.00    +0.000 C 
ATOM     12  C   UNL     1      45.366   3.899   8.136  0.00  0.00    +0.000 C 
BRANCH  11  13
ATOM     13  C   UNL     1      46.890   2.890   6.282  0.00  0.00    +0.000 C 
ATOM     14  F   UNL     1      46.858   4.073   5.628  0.00  0.00    +0.000 F 
ATOM     15  F   UNL     1      48.106   2.336   6.075  0.00  0.00    +0.000 F 
ATOM     16  F   UNL     1      45.967   2.078   5.719  0.00  0.00    +0.000 F 
ENDBRANCH  11  13
ENDBRANCH   8   9
ENDBRANCH   6   8
ENDBRANCH   1   2
BRANCH   1  17
ATOM     17  C   UNL     1      46.646   4.568  14.800  0.00  0.00    +0.000 C 
BRANCH  17  22
ATOM     18  C   UNL     1      49.629   5.246  18.806  0.00  0.00    +0.000 A 
ATOM     19  C   UNL     1      49.165   4.069  18.235  0.00  0.00    +0.000 A 
ATOM     20  C   UNL     1      48.505   4.131  17.010  0.00  0.00    +0.000 A 
ATOM     21  C   UNL     1      48.295   5.363  16.391  0.00  0.00    +0.000 A 
ATOM     22  N   UNL     1      47.720   5.489  15.131  0.00  0.00    +0.000 N 
ATOM     23  N   UNL     1      48.699   6.514  16.961  0.00  0.00    +0.000 NA
ATOM     24  C   UNL     1      49.352   6.437  18.154  0.00  0.00    +0.000 A 
ATOM     25  H   UNL     1      47.529   6.480  14.991  0.00  0.00    +0.000 HD
BRANCH  18  27
ATOM     26  N   UNL     1      49.984   4.443  21.069  0.00  0.00    +0.000 N 
ATOM     27  C   UNL     1      50.405   5.268  20.060  0.00  0.00    +0.000 C 
ATOM     28  O   UNL     1      51.404   5.959  20.181  0.00  0.00    +0.000 OA
ATOM     29  H   UNL     1      50.597   4.377  21.875  0.00  0.00    +0.000 HD
ATOM     30  H   UNL     1      49.346   3.678  20.909  0.00  0.00    +0.000 HD
ENDBRANCH  18  27
ENDBRANCH  17  22
ENDBRANCH   1  17
TORSDOF 7
ENDMDL
MODEL 8
REMARK VINA RESULT:    -6.606      5.785      8.997
REMARK INTER + INTRA:         -10.042
REMARK INTER:                  -9.993
REMARK INTRA:                  -0.049
REMARK UNBOUND:                -0.733
REMARK  Name = 
REMARK  7 active torsions:
REMARK  status: ('A' for Active; 'I' for Inactive)
REMARK    1  A    between atoms: C_2  and  C_4
REMARK    2  A    between atoms: N_8  and  C_9
REMARK    3  A    between atoms: C_9  and  C_10
REMARK    4  A    between atoms: C_10  and  C_11
REMARK    5  A    between atoms: C_15  and  O_16
REMARK    6  A    between atoms: O_16  and  C_17
REMARK    7  A    between atoms: C_19  and  C_20
REMARK                            x       y       z     vdW  Elec       q    Type
REMARK                         _______ _______ _______ _____ _____    ______ ____
ROOT
ATOM      1  C   UNL     1      47.231   3.883  14.614  0.00  0.00    +0.000 C 
ENDROOT
BRANCH   1   2
ATOM      2  C   UNL     1      46.663   5.069  13.852  0.00  0.00    +0.000 A 
ATOM      3  C   UNL     1      47.259   6.338  13.847  0.00  0.00    +0.000 A 
ATOM      4  C   UNL     1      46.703   7.395  13.127  0.00  0.00    +0.000 A 
ATOM      5  C   UNL     1      45.535   7.207  12.395  0.00  0.00    +0.000 A 
ATOM      6  C   UNL     1      44.920   5.958  12.392  0.00  0.00    +0.000 A 
ATOM      7  C   UNL     1      45.482   4.897  13.112  0.00  0.00    +0.000 A 
BRANCH   6   8
ATOM      8  O   UNL     1      43.781   5.658  11.689  0.00  0.00    +0.000 OA
BRANCH   8   9
ATOM      9  C   UNL     1      43.866   4.738  10.580  0.00  0.00    +0.000 C 
ATOM     10  C   UNL     1      43.997   3.235  10.924  0.00  0.00    +0.000 C 
ATOM     11  C   UNL     1      45.180   3.124   9.931  0.00  0.00    +0.000 C 
ATOM     12  C   UNL     1      45.272   4.665   9.952  0.00  0.00    +0.000 C 
BRANCH  11  13
ATOM     13  C   UNL     1      44.910   2.475   8.591  0.00  0.00    +0.000 C 
ATOM     14  F   UNL     1      44.203   3.286   7.774  0.00  0.00    +0.000 F 
ATOM     15  F   UNL     1      46.061   2.153   7.959  0.00  0.00    +0.000 F 
ATOM     16  F   UNL     1      44.203   1.335   8.761  0.00  0.00    +0.000 F 
ENDBRANCH  11  13
ENDBRANCH   8   9
ENDBRANCH   6   8
ENDBRANCH   1   2
BRANCH   1  17
ATOM     17  C   UNL     1      47.186   4.036  16.139  0.00  0.00    +0.000 C 
BRANCH  17  22
ATOM     18  C   UNL     1      51.829   2.960  17.780  0.00  0.00    +0.000 A 
ATOM     19  C   UNL     1      51.145   4.167  17.784  0.00  0.00    +0.000 A 
ATOM     20  C   UNL     1      49.792   4.175  17.450  0.00  0.00    +0.000 A 
ATOM     21  C   UNL     1      49.155   2.987  17.092  0.00  0.00    +0.000 A 
ATOM     22  N   UNL     1      47.791   2.910  16.831  0.00  0.00    +0.000 N 
ATOM     23  N   UNL     1      49.822   1.819  17.039  0.00  0.00    +0.000 NA
ATOM     24  C   UNL     1      51.142   1.826  17.378  0.00  0.00    +0.000 A 
ATOM     25  H   UNL     1      47.618   1.987  16.435  0.00  0.00    +0.000 HD
BRANCH  18  27
ATOM     26  N   UNL     1      53.509   2.059  19.282  0.00  0.00    +0.000 N 
ATOM     27  C   UNL     1      53.239   2.845  18.194  0.00  0.00    +0.000 C 
ATOM     28  O   UNL     1      54.134   3.393  17.571  0.00  0.00    +0.000 OA
ATOM     29  H   UNL     1      54.490   1.890  19.478  0.00  0.00    +0.000 HD
ATOM     30  H   UNL     1      52.844   1.390  19.642  0.00  0.00    +0.000 HD
ENDBRANCH  18  27
ENDBRANCH  17  22
ENDBRANCH   1  17
TORSDOF 7
ENDMDL
MODEL 9
REMARK VINA RESULT:    -6.564      3.542      5.241
REMARK INTER + INTRA:          -9.983
REMARK INTER:                  -8.748
REMARK INTRA:                  -1.235
REMARK UNBOUND:                -0.733
REMARK  Name = 
REMARK  7 active torsions:
REMARK  status: ('A' for Active; 'I' for Inactive)
REMARK    1  A    between atoms: C_2  and  C_4
REMARK    2  A    between atoms: N_8  and  C_9
REMARK    3  A    between atoms: C_9  and  C_10
REMARK    4  A    between atoms: C_10  and  C_11
REMARK    5  A    between atoms: C_15  and  O_16
REMARK    6  A    between atoms: O_16  and  C_17
REMARK    7  A    between atoms: C_19  and  C_20
REMARK                            x       y       z     vdW  Elec       q    Type
REMARK                         _______ _______ _______ _____ _____    ______ ____
ROOT
ATOM      1  C   UNL     1      50.037   8.503  12.959  0.00  0.00    +0.000 C 
ENDROOT
BRANCH   1   2
ATOM      2  C   UNL     1      49.628   8.932  14.359  0.00  0.00    +0.000 A 
ATOM      3  C   UNL     1      49.293  10.253  14.692  0.00  0.00    +0.000 A 
ATOM      4  C   UNL     1      48.919  10.598  15.990  0.00  0.00    +0.000 A 
ATOM      5  C   UNL     1      48.871   9.629  16.987  0.00  0.00    +0.000 A 
ATOM      6  C   UNL     1      49.209   8.313  16.683  0.00  0.00    +0.000 A 
ATOM      7  C   UNL     1      49.580   7.968  15.378  0.00  0.00    +0.000 A 
BRANCH   6   8
ATOM      8  O   UNL     1      49.175   7.279  17.582  0.00  0.00    +0.000 OA
BRANCH   8   9
ATOM      9  C   UNL     1      48.625   6.010  17.168  0.00  0.00    +0.000 C 
ATOM     10  C   UNL     1      47.644   5.319  18.145  0.00  0.00    +0.000 C 
ATOM     11  C   UNL     1      48.437   3.998  17.988  0.00  0.00    +0.000 C 
ATOM     12  C   UNL     1      49.590   4.827  17.380  0.00  0.00    +0.000 C 
BRANCH  11  13
ATOM     13  C   UNL     1      47.837   2.920  17.113  0.00  0.00    +0.000 C 
ATOM     14  F   UNL     1      48.762   2.012  16.730  0.00  0.00    +0.000 F 
ATOM     15  F   UNL     1      46.848   2.259  17.755  0.00  0.00    +0.000 F 
ATOM     16  F   UNL     1      47.306   3.470  15.997  0.00  0.00    +0.000 F 
ENDBRANCH  11  13
ENDBRANCH   8   9
ENDBRANCH   6   8
ENDBRANCH   1   2
BRANCH   1  17
ATOM     17  C   UNL     1      49.407   7.183  12.498  0.00  0.00    +0.000 C 
BRANCH  17  22
ATOM     18  C   UNL     1      44.952   4.828  12.628  0.00  0.00    +0.000 A 
ATOM     19  C   UNL     1      45.844   5.096  13.657  0.00  0.00    +0.000 A 
ATOM     20  C   UNL     1      46.928   5.934  13.407  0.00  0.00    +0.000 A 
ATOM     21  C   UNL     1      47.118   6.468  12.132  0.00  0.00    +0.000 A 
ATOM     22  N   UNL     1      48.128   7.377  11.836  0.00  0.00    +0.000 N 
ATOM     23  N   UNL     1      46.285   6.175  11.116  0.00  0.00    +0.000 NA
ATOM     24  C   UNL     1      45.224   5.362  11.379  0.00  0.00    +0.000 A 
ATOM     25  H   UNL     1      48.151   7.472  10.822  0.00  0.00    +0.000 HD
BRANCH  18  27
ATOM     26  N   UNL     1      43.826   2.681  12.531  0.00  0.00    +0.000 N 
ATOM     27  C   UNL     1      43.737   4.016  12.822  0.00  0.00    +0.000 C 
ATOM     28  O   UNL     1      42.708   4.502  13.262  0.00  0.00    +0.000 OA
ATOM     29  H   UNL     1      43.023   2.115  12.786  0.00  0.00    +0.000 HD
ATOM     30  H   UNL     1      44.712   2.208  12.432  0.00  0.00    +0.000 HD
ENDBRANCH  18  27
ENDBRANCH  17  22
ENDBRANCH   1  17
TORSDOF 7
ENDMDL
