MODEL 1
REMARK VINA RESULT:    -8.575      0.000      0.000
REMARK INTER + INTRA:         -11.128
REMARK INTER:                 -10.580
REMARK INTRA:                  -0.548
REMARK UNBOUND:                -0.548
REMARK  Name = 
REMARK  4 active torsions:
REMARK  status: ('A' for Active; 'I' for Inactive)
REMARK    1  A    between atoms: C_2  and  C_4
REMARK    2  A    between atoms: N_8  and  C_9
REMARK    3  A    between atoms: C_9  and  C_10
REMARK    4  A    between atoms: C_14  and  N_15
REMARK                            x       y       z     vdW  Elec       q    Type
REMARK                         _______ _______ _______ _____ _____    ______ ____
ROOT
ATOM      1  C   UNL     1      46.407   2.475   7.739  0.00  0.00    +0.000 A 
ATOM      2  C   UNL     1      46.191   3.849   7.755  0.00  0.00    +0.000 A 
ATOM      3  C   UNL     1      45.266   4.382   8.656  0.00  0.00    +0.000 A 
ATOM      4  C   UNL     1      44.577   3.539   9.521  0.00  0.00    +0.000 A 
ATOM      5  N   UNL     1      43.665   3.969  10.440  0.00  0.00    +0.000 N 
ATOM      6  N   UNL     1      44.763   2.204   9.496  0.00  0.00    +0.000 NA
ATOM      7  C   UNL     1      45.661   1.698   8.609  0.00  0.00    +0.000 A 
ATOM      8  H   UNL     1      43.238   3.220  10.970  0.00  0.00    +0.000 HD
ENDROOT
BRANCH   1  10
ATOM      9  N   UNL     1      48.439   2.558   6.410  0.00  0.00    +0.000 N 
ATOM     10  C   UNL     1      47.365   1.820   6.827  0.00  0.00    +0.000 C 
ATOM     11  O   UNL     1      47.225   0.654   6.482  0.00  0.00    +0.000 OA
ATOM     12  H   UNL     1      49.138   2.066   5.868  0.00  0.00    +0.000 HD
ATOM     13  H   UNL     1      48.717   3.419   6.859  0.00  0.00    +0.000 HD
ENDBRANCH   1  10
BRANCH   5  14
ATOM     14  C   UNL     1      43.307   5.332  10.745  0.00  0.00    +0.000 C 
BRANCH  14  15
ATOM     15  C   UNL     1      44.349   6.074  11.539  0.00  0.00    +0.000 A 
ATOM     16  C   UNL     1      44.349   7.464  11.506  0.00  0.00    +0.000 A 
ATOM     17  N   UNL     1      45.225   8.238  12.174  0.00  0.00    +0.000 NA
ATOM     18  C   UNL     1      46.163   7.586  12.908  0.00  0.00    +0.000 A 
ATOM     19  C   UNL     1      46.291   6.200  13.032  0.00  0.00    +0.000 A 
ATOM     20  C   UNL     1      45.347   5.457  12.313  0.00  0.00    +0.000 A 
BRANCH  19  21
ATOM     21  N   UNL     1      47.274   5.610  13.796  0.00  0.00    +0.000 N 
ATOM     22  C   UNL     1      47.156   4.263  14.374  0.00  0.00    +0.000 C 
ATOM     23  C   UNL     1      47.287   4.327  15.902  0.00  0.00    +0.000 C 
ATOM     24  O   UNL     1      48.502   4.991  16.297  0.00  0.00    +0.000 OA
ATOM     25  C   UNL     1      48.524   6.335  15.786  0.00  0.00    +0.000 C 
ATOM     26  C   UNL     1      48.455   6.361  14.248  0.00  0.00    +0.000 C 
ENDBRANCH  19  21
ENDBRANCH  14  15
ENDBRANCH   5  14
TORSDOF 4
ENDMDL
MODEL 2
REMARK VINA RESULT:    -7.961      2.197      3.222
REMARK INTER + INTRA:         -10.370
REMARK INTER:                  -9.907
REMARK INTRA:                  -0.464
REMARK UNBOUND:                -0.548
REMARK  Name = 
REMARK  4 active torsions:
REMARK  status: ('A' for Active; 'I' for Inactive)
REMARK    1  A    between atoms: C_2  and  C_4
REMARK    2  A    between atoms: N_8  and  C_9
REMARK    3  A    between atoms: C_9  and  C_10
REMARK    4  A    between atoms: C_14  and  N_15
REMARK                            x       y       z     vdW  Elec       q    Type
REMARK                         _______ _______ _______ _____ _____    ______ ____
ROOT
ATOM      1  C   UNL     1      46.662   2.374   7.127  0.00  0.00    +0.000 A 
ATOM      2  C   UNL     1      46.038   3.547   7.537  0.00  0.00    +0.000 A 
ATOM      3  C   UNL     1      45.169   3.510   8.630  0.00  0.00    +0.000 A 
ATOM      4  C   UNL     1      44.941   2.309   9.293  0.00  0.00    +0.000 A 
ATOM      5  N   UNL     1      44.120   2.179  10.375  0.00  0.00    +0.000 N 
ATOM      6  N   UNL     1      45.525   1.164   8.888  0.00  0.00    +0.000 NA
ATOM      7  C   UNL     1      46.362   1.212   7.818  0.00  0.00    +0.000 A 
ATOM      8  H   UNL     1      44.048   1.229  10.717  0.00  0.00    +0.000 HD
ENDROOT
BRANCH   1  10
ATOM      9  N   UNL     1      47.498   3.298   5.042  0.00  0.00    +0.000 N 
ATOM     10  C   UNL     1      47.597   2.314   5.987  0.00  0.00    +0.000 C 
ATOM     11  O   UNL     1      48.451   1.440   5.904  0.00  0.00    +0.000 OA
ATOM     12  H   UNL     1      48.209   3.302   4.321  0.00  0.00    +0.000 HD
ATOM     13  H   UNL     1      46.988   4.157   5.198  0.00  0.00    +0.000 HD
ENDBRANCH   1  10
BRANCH   5  14
ATOM     14  C   UNL     1      43.417   3.228  11.070  0.00  0.00    +0.000 C 
BRANCH  14  15
ATOM     15  C   UNL     1      44.315   4.145  11.859  0.00  0.00    +0.000 A 
ATOM     16  C   UNL     1      44.789   3.714  13.093  0.00  0.00    +0.000 A 
ATOM     17  N   UNL     1      45.598   4.439  13.889  0.00  0.00    +0.000 NA
ATOM     18  C   UNL     1      45.944   5.669  13.431  0.00  0.00    +0.000 A 
ATOM     19  C   UNL     1      45.541   6.237  12.219  0.00  0.00    +0.000 A 
ATOM     20  C   UNL     1      44.703   5.429  11.442  0.00  0.00    +0.000 A 
BRANCH  19  21
ATOM     21  N   UNL     1      45.933   7.497  11.823  0.00  0.00    +0.000 N 
ATOM     22  C   UNL     1      47.296   8.020  12.005  0.00  0.00    +0.000 C 
ATOM     23  C   UNL     1      47.266   9.297  12.858  0.00  0.00    +0.000 C 
ATOM     24  O   UNL     1      46.370  10.277  12.303  0.00  0.00    +0.000 OA
ATOM     25  C   UNL     1      45.034   9.749  12.235  0.00  0.00    +0.000 C 
ATOM     26  C   UNL     1      44.961   8.494  11.346  0.00  0.00    +0.000 C 
ENDBRANCH  19  21
ENDBRANCH  14  15
ENDBRANCH   5  14
TORSDOF 4
ENDMDL
MODEL 3
REMARK VINA RESULT:    -7.327      2.543      8.305
REMARK INTER + INTRA:          -9.588
REMARK INTER:                  -9.171
REMARK INTRA:                  -0.417
REMARK UNBOUND:                -0.548
REMARK  Name = 
REMARK  4 active torsions:
REMARK  status: ('A' for Active; 'I' for Inactive)
REMARK    1  A    between atoms: C_2  and  C_4
REMARK    2  A    between atoms: N_8  and  C_9
REMARK    3  A    between atoms: C_9  and  C_10
REMARK    4  A    between atoms: C_14  and  N_15
REMARK                            x       y       z     vdW  Elec       q    Type
REMARK                         _______ _______ _______ _____ _____    ______ ____
ROOT
ATOM      1  C   UNL     1      48.634   4.526  18.402  0.00  0.00    +0.000 A 
ATOM      2  C   UNL     1      48.787   5.515  17.436  0.00  0.00    +0.000 A 
ATOM      3  C   UNL     1      48.125   5.380  16.213  0.00  0.00    +0.000 A 
ATOM      4  C   UNL     1      47.326   4.266  15.977  0.00  0.00    +0.000 A 
ATOM      5  N   UNL     1      46.634   4.055  14.820  0.00  0.00    +0.000 N 
ATOM      6  N   UNL     1      47.191   3.293  16.899  0.00  0.00    +0.000 NA
ATOM      7  C   UNL     1      47.846   3.433  18.083  0.00  0.00    +0.000 A 
ATOM      8  H   UNL     1      46.124   3.182  14.807  0.00  0.00    +0.000 HD
ENDROOT
BRANCH   1  10
ATOM      9  N   UNL     1      48.656   3.961  20.764  0.00  0.00    +0.000 N 
ATOM     10  C   UNL     1      49.289   4.582  19.723  0.00  0.00    +0.000 C 
ATOM     11  O   UNL     1      50.372   5.131  19.878  0.00  0.00    +0.000 OA
ATOM     12  H   UNL     1      49.163   3.920  21.639  0.00  0.00    +0.000 HD
ATOM     13  H   UNL     1      47.905   3.298  20.630  0.00  0.00    +0.000 HD
ENDBRANCH   1  10
BRANCH   5  14
ATOM     14  C   UNL     1      46.530   4.943  13.690  0.00  0.00    +0.000 C 
BRANCH  14  15
ATOM     15  C   UNL     1      45.398   4.610  12.754  0.00  0.00    +0.000 A 
ATOM     16  C   UNL     1      44.093   4.822  13.183  0.00  0.00    +0.000 A 
ATOM     17  N   UNL     1      43.000   4.567  12.441  0.00  0.00    +0.000 NA
ATOM     18  C   UNL     1      43.222   4.060  11.201  0.00  0.00    +0.000 A 
ATOM     19  C   UNL     1      44.472   3.788  10.637  0.00  0.00    +0.000 A 
ATOM     20  C   UNL     1      45.564   4.079  11.464  0.00  0.00    +0.000 A 
BRANCH  19  21
ATOM     21  N   UNL     1      44.618   3.269   9.370  0.00  0.00    +0.000 N 
ATOM     22  C   UNL     1      44.713   1.829   9.086  0.00  0.00    +0.000 C 
ATOM     23  C   UNL     1      46.036   1.513   8.375  0.00  0.00    +0.000 C 
ATOM     24  O   UNL     1      46.200   2.319   7.193  0.00  0.00    +0.000 OA
ATOM     25  C   UNL     1      46.195   3.715   7.537  0.00  0.00    +0.000 C 
ATOM     26  C   UNL     1      44.873   4.133   8.206  0.00  0.00    +0.000 C 
ENDBRANCH  19  21
ENDBRANCH  14  15
ENDBRANCH   5  14
TORSDOF 4
ENDMDL
MODEL 4
REMARK VINA RESULT:    -7.305      2.029      2.793
REMARK INTER + INTRA:          -9.561
REMARK INTER:                  -8.934
REMARK INTRA:                  -0.627
REMARK UNBOUND:                -0.548
REMARK  Name = 
REMARK  4 active torsions:
REMARK  status: ('A' for Active; 'I' for Inactive)
REMARK    1  A    between atoms: C_2  and  C_4
REMARK    2  A    between atoms: N_8  and  C_9
REMARK    3  A    between atoms: C_9  and  C_10
REMARK    4  A    between atoms: C_14  and  N_15
REMARK                            x       y       z     vdW  Elec       q    Type
REMARK                         _______ _______ _______ _____ _____    ______ ____
ROOT
ATOM      1  C   UNL     1      46.519   2.877   7.244  0.00  0.00    +0.000 A 
ATOM      2  C   UNL     1      46.264   4.174   7.673  0.00  0.00    +0.000 A 
ATOM      3  C   UNL     1      45.532   4.371   8.847  0.00  0.00    +0.000 A 
ATOM      4  C   UNL     1      45.070   3.275   9.567  0.00  0.00    +0.000 A 
ATOM      5  N   UNL     1      44.358   3.370  10.727  0.00  0.00    +0.000 N 
ATOM      6  N   UNL     1      45.293   2.015   9.146  0.00  0.00    +0.000 NA
ATOM      7  C   UNL     1      46.002   1.837   7.998  0.00  0.00    +0.000 A 
ATOM      8  H   UNL     1      44.079   2.474  11.106  0.00  0.00    +0.000 HD
ENDROOT
BRANCH   1  10
ATOM      9  N   UNL     1      48.583   2.163   6.178  0.00  0.00    +0.000 N 
ATOM     10  C   UNL     1      47.286   2.568   6.020  0.00  0.00    +0.000 C 
ATOM     11  O   UNL     1      46.774   2.638   4.910  0.00  0.00    +0.000 OA
ATOM     12  H   UNL     1      49.063   1.860   5.341  0.00  0.00    +0.000 HD
ATOM     13  H   UNL     1      48.955   1.858   7.067  0.00  0.00    +0.000 HD
ENDBRANCH   1  10
BRANCH   5  14
ATOM     14  C   UNL     1      44.025   4.571  11.453  0.00  0.00    +0.000 C 
BRANCH  14  15
ATOM     15  C   UNL     1      45.157   5.115  12.284  0.00  0.00    +0.000 A 
ATOM     16  C   UNL     1      45.512   4.444  13.449  0.00  0.00    +0.000 A 
ATOM     17  N   UNL     1      46.504   4.828  14.273  0.00  0.00    +0.000 NA
ATOM     18  C   UNL     1      47.174   5.955  13.919  0.00  0.00    +0.000 A 
ATOM     19  C   UNL     1      46.927   6.736  12.786  0.00  0.00    +0.000 A 
ATOM     20  C   UNL     1      45.883   6.277  11.974  0.00  0.00    +0.000 A 
BRANCH  19  21
ATOM     21  N   UNL     1      47.649   7.872  12.495  0.00  0.00    +0.000 N 
ATOM     22  C   UNL     1      48.841   7.880  11.633  0.00  0.00    +0.000 C 
ATOM     23  C   UNL     1      50.054   8.415  12.408  0.00  0.00    +0.000 C 
ATOM     24  O   UNL     1      49.781   9.707  12.981  0.00  0.00    +0.000 OA
ATOM     25  C   UNL     1      48.668   9.625  13.888  0.00  0.00    +0.000 C 
ATOM     26  C   UNL     1      47.387   9.149  13.176  0.00  0.00    +0.000 C 
ENDBRANCH  19  21
ENDBRANCH  14  15
ENDBRANCH   5  14
TORSDOF 4
ENDMDL
MODEL 5
REMARK VINA RESULT:    -7.275      2.634      6.859
REMARK INTER + INTRA:          -9.524
REMARK INTER:                  -8.864
REMARK INTRA:                  -0.660
REMARK UNBOUND:                -0.548
REMARK  Name = 
REMARK  4 active torsions:
REMARK  status: ('A' for Active; 'I' for Inactive)
REMARK    1  A    between atoms: C_2  and  C_4
REMARK    2  A    between atoms: N_8  and  C_9
REMARK    3  A    between atoms: C_9  and  C_10
REMARK    4  A    between atoms: C_14  and  N_15
REMARK                            x       y       z     vdW  Elec       q    Type
REMARK                         _______ _______ _______ _____ _____    ______ ____
ROOT
ATOM      1  C   UNL     1      49.941   7.927  12.392  0.00  0.00    +0.000 A 
ATOM      2  C   UNL     1      48.905   8.001  11.467  0.00  0.00    +0.000 A 
ATOM      3  C   UNL     1      47.645   7.509  11.818  0.00  0.00    +0.000 A 
ATOM      4  C   UNL     1      47.442   6.957  13.077  0.00  0.00    +0.000 A 
ATOM      5  N   UNL     1      46.247   6.463  13.511  0.00  0.00    +0.000 N 
ATOM      6  N   UNL     1      48.447   6.861  13.970  0.00  0.00    +0.000 NA
ATOM      7  C   UNL     1      49.670   7.337  13.615  0.00  0.00    +0.000 A 
ATOM      8  H   UNL     1      46.283   6.075  14.444  0.00  0.00    +0.000 HD
ENDROOT
BRANCH   1  10
ATOM      9  N   UNL     1      52.295   8.047  12.981  0.00  0.00    +0.000 N 
ATOM     10  C   UNL     1      51.304   8.422  12.115  0.00  0.00    +0.000 C 
ATOM     11  O   UNL     1      51.548   9.113  11.134  0.00  0.00    +0.000 OA
ATOM     12  H   UNL     1      53.238   8.310  12.724  0.00  0.00    +0.000 HD
ATOM     13  H   UNL     1      52.185   7.292  13.643  0.00  0.00    +0.000 HD
ENDBRANCH   1  10
BRANCH   5  14
ATOM     14  C   UNL     1      44.986   6.487  12.811  0.00  0.00    +0.000 C 
BRANCH  14  15
ATOM     15  C   UNL     1      44.572   5.150  12.255  0.00  0.00    +0.000 A 
ATOM     16  C   UNL     1      43.891   4.265  13.083  0.00  0.00    +0.000 A 
ATOM     17  N   UNL     1      43.466   3.045  12.703  0.00  0.00    +0.000 NA
ATOM     18  C   UNL     1      43.748   2.683  11.425  0.00  0.00    +0.000 A 
ATOM     19  C   UNL     1      44.428   3.461  10.483  0.00  0.00    +0.000 A 
ATOM     20  C   UNL     1      44.839   4.717  10.945  0.00  0.00    +0.000 A 
BRANCH  19  21
ATOM     21  N   UNL     1      44.680   3.023   9.202  0.00  0.00    +0.000 N 
ATOM     22  C   UNL     1      44.870   1.607   8.848  0.00  0.00    +0.000 C 
ATOM     23  C   UNL     1      46.250   1.401   8.208  0.00  0.00    +0.000 C 
ATOM     24  O   UNL     1      46.444   2.279   7.085  0.00  0.00    +0.000 OA
ATOM     25  C   UNL     1      46.342   3.651   7.501  0.00  0.00    +0.000 C 
ATOM     26  C   UNL     1      44.959   3.963   8.105  0.00  0.00    +0.000 C 
ENDBRANCH  19  21
ENDBRANCH  14  15
ENDBRANCH   5  14
TORSDOF 4
ENDMDL
MODEL 6
REMARK VINA RESULT:    -6.608      4.343      8.456
REMARK INTER + INTRA:          -8.702
REMARK INTER:                  -8.152
REMARK INTRA:                  -0.550
REMARK UNBOUND:                -0.548
REMARK  Name = 
REMARK  4 active torsions:
REMARK  status: ('A' for Active; 'I' for Inactive)
REMARK    1  A    between atoms: C_2  and  C_4
REMARK    2  A    between atoms: N_8  and  C_9
REMARK    3  A    between atoms: C_9  and  C_10
REMARK    4  A    between atoms: C_14  and  N_15
REMARK                            x       y       z     vdW  Elec       q    Type
REMARK                         _______ _______ _______ _____ _____    ______ ____
ROOT
ATOM      1  C   UNL     1      52.433   2.397  18.020  0.00  0.00    +0.000 A 
ATOM      2  C   UNL     1      51.747   3.599  18.156  0.00  0.00    +0.000 A 
ATOM      3  C   UNL     1      50.430   3.685  17.698  0.00  0.00    +0.000 A 
ATOM      4  C   UNL     1      49.824   2.577  17.118  0.00  0.00    +0.000 A 
ATOM      5  N   UNL     1      48.541   2.564  16.654  0.00  0.00    +0.000 N 
ATOM      6  N   UNL     1      50.490   1.415  16.962  0.00  0.00    +0.000 NA
ATOM      7  C   UNL     1      51.773   1.347  17.405  0.00  0.00    +0.000 A 
ATOM      8  H   UNL     1      48.269   1.682  16.238  0.00  0.00    +0.000 HD
ENDROOT
BRANCH   1  10
ATOM      9  N   UNL     1      54.812   2.305  17.533  0.00  0.00    +0.000 N 
ATOM     10  C   UNL     1      53.825   2.208  18.475  0.00  0.00    +0.000 C 
ATOM     11  O   UNL     1      54.091   2.007  19.653  0.00  0.00    +0.000 OA
ATOM     12  H   UNL     1      55.764   2.273  17.875  0.00  0.00    +0.000 HD
ATOM     13  H   UNL     1      54.657   2.709  16.620  0.00  0.00    +0.000 HD
ENDBRANCH   1  10
BRANCH   5  14
ATOM     14  C   UNL     1      47.569   3.626  16.741  0.00  0.00    +0.000 C 
BRANCH  14  15
ATOM     15  C   UNL     1      47.449   4.448  15.485  0.00  0.00    +0.000 A 
ATOM     16  C   UNL     1      48.241   5.583  15.352  0.00  0.00    +0.000 A 
ATOM     17  N   UNL     1      48.227   6.396  14.279  0.00  0.00    +0.000 NA
ATOM     18  C   UNL     1      47.363   6.063  13.286  0.00  0.00    +0.000 A 
ATOM     19  C   UNL     1      46.504   4.960  13.281  0.00  0.00    +0.000 A 
ATOM     20  C   UNL     1      46.572   4.158  14.426  0.00  0.00    +0.000 A 
BRANCH  19  21
ATOM     21  N   UNL     1      45.651   4.688  12.234  0.00  0.00    +0.000 N 
ATOM     22  C   UNL     1      45.139   5.715  11.314  0.00  0.00    +0.000 C 
ATOM     23  C   UNL     1      43.605   5.746  11.353  0.00  0.00    +0.000 C 
ATOM     24  O   UNL     1      43.047   4.446  11.091  0.00  0.00    +0.000 OA
ATOM     25  C   UNL     1      43.503   3.501  12.074  0.00  0.00    +0.000 C 
ATOM     26  C   UNL     1      45.037   3.362  12.062  0.00  0.00    +0.000 C 
ENDBRANCH  19  21
ENDBRANCH  14  15
ENDBRANCH   5  14
TORSDOF 4
ENDMDL
MODEL 7
REMARK VINA RESULT:    -6.480      2.862      4.993
REMARK INTER + INTRA:          -8.543
REMARK INTER:                  -7.901
REMARK INTRA:                  -0.642
REMARK UNBOUND:                -0.548
REMARK  Name = 
REMARK  4 active torsions:
REMARK  status: ('A' for Active; 'I' for Inactive)
REMARK    1  A    between atoms: C_2  and  C_4
REMARK    2  A    between atoms: N_8  and  C_9
REMARK    3  A    between atoms: C_9  and  C_10
REMARK    4  A    between atoms: C_14  and  N_15
REMARK                            x       y       z     vdW  Elec       q    Type
REMARK                         _______ _______ _______ _____ _____    ______ ____
ROOT
ATOM      1  C   UNL     1      44.742   5.146  10.974  0.00  0.00    +0.000 A 
ATOM      2  C   UNL     1      45.946   5.720  10.581  0.00  0.00    +0.000 A 
ATOM      3  C   UNL     1      46.593   6.604  11.448  0.00  0.00    +0.000 A 
ATOM      4  C   UNL     1      46.031   6.897  12.685  0.00  0.00    +0.000 A 
ATOM      5  N   UNL     1      46.596   7.737  13.600  0.00  0.00    +0.000 N 
ATOM      6  N   UNL     1      44.854   6.361  13.064  0.00  0.00    +0.000 NA
ATOM      7  C   UNL     1      44.231   5.508  12.208  0.00  0.00    +0.000 A 
ATOM      8  H   UNL     1      46.040   7.857  14.437  0.00  0.00    +0.000 HD
ENDROOT
BRANCH   1  10
ATOM      9  N   UNL     1      44.055   4.375   8.774  0.00  0.00    +0.000 N 
ATOM     10  C   UNL     1      43.987   4.199  10.129  0.00  0.00    +0.000 C 
ATOM     11  O   UNL     1      43.352   3.273  10.617  0.00  0.00    +0.000 OA
ATOM     12  H   UNL     1      43.617   3.662   8.206  0.00  0.00    +0.000 HD
ATOM     13  H   UNL     1      44.753   4.959   8.334  0.00  0.00    +0.000 HD
ENDBRANCH   1  10
BRANCH   5  14
ATOM     14  C   UNL     1      47.873   8.399  13.507  0.00  0.00    +0.000 C 
BRANCH  14  15
ATOM     15  C   UNL     1      48.924   7.830  14.424  0.00  0.00    +0.000 A 
ATOM     16  C   UNL     1      50.244   8.231  14.254  0.00  0.00    +0.000 A 
ATOM     17  N   UNL     1      51.271   7.797  15.009  0.00  0.00    +0.000 NA
ATOM     18  C   UNL     1      50.963   6.901  15.983  0.00  0.00    +0.000 A 
ATOM     19  C   UNL     1      49.688   6.404  16.266  0.00  0.00    +0.000 A 
ATOM     20  C   UNL     1      48.668   6.898  15.444  0.00  0.00    +0.000 A 
BRANCH  19  21
ATOM     21  N   UNL     1      49.453   5.492  17.271  0.00  0.00    +0.000 N 
ATOM     22  C   UNL     1      50.376   4.397  17.609  0.00  0.00    +0.000 C 
ATOM     23  C   UNL     1      49.668   3.042  17.467  0.00  0.00    +0.000 C 
ATOM     24  O   UNL     1      48.457   3.000  18.244  0.00  0.00    +0.000 OA
ATOM     25  C   UNL     1      47.551   4.029  17.811  0.00  0.00    +0.000 C 
ATOM     26  C   UNL     1      48.163   5.433  17.975  0.00  0.00    +0.000 C 
ENDBRANCH  19  21
ENDBRANCH  14  15
ENDBRANCH   5  14
TORSDOF 4
ENDMDL
MODEL 8
REMARK VINA RESULT:    -6.257      3.779      6.429
REMARK INTER + INTRA:          -8.268
REMARK INTER:                  -7.731
REMARK INTRA:                  -0.537
REMARK UNBOUND:                -0.548
REMARK  Name = 
REMARK  4 active torsions:
REMARK  status: ('A' for Active; 'I' for Inactive)
REMARK    1  A    between atoms: C_2  and  C_4
REMARK    2  A    between atoms: N_8  and  C_9
REMARK    3  A    between atoms: C_9  and  C_10
REMARK    4  A    between atoms: C_14  and  N_15
REMARK                            x       y       z     vdW  Elec       q    Type
REMARK                         _______ _______ _______ _____ _____    ______ ____
ROOT
ATOM      1  C   UNL     1      45.674   5.095  11.433  0.00  0.00    +0.000 A 
ATOM      2  C   UNL     1      45.464   4.013  12.281  0.00  0.00    +0.000 A 
ATOM      3  C   UNL     1      45.995   4.049  13.573  0.00  0.00    +0.000 A 
ATOM      4  C   UNL     1      46.721   5.157  13.994  0.00  0.00    +0.000 A 
ATOM      5  N   UNL     1      47.265   5.285  15.238  0.00  0.00    +0.000 N 
ATOM      6  N   UNL     1      46.947   6.200  13.171  0.00  0.00    +0.000 NA
ATOM      7  C   UNL     1      46.431   6.150  11.914  0.00  0.00    +0.000 A 
ATOM      8  H   UNL     1      47.783   6.145  15.368  0.00  0.00    +0.000 HD
ENDROOT
BRANCH   1  10
ATOM      9  N   UNL     1      43.817   4.906   9.878  0.00  0.00    +0.000 N 
ATOM     10  C   UNL     1      45.151   5.151  10.054  0.00  0.00    +0.000 C 
ATOM     11  O   UNL     1      45.873   5.440   9.107  0.00  0.00    +0.000 OA
ATOM     12  H   UNL     1      43.454   5.046   8.944  0.00  0.00    +0.000 HD
ATOM     13  H   UNL     1      43.155   4.912  10.642  0.00  0.00    +0.000 HD
ENDBRANCH   1  10
BRANCH   5  14
ATOM     14  C   UNL     1      47.136   4.373  16.347  0.00  0.00    +0.000 C 
BRANCH  14  15
ATOM     15  C   UNL     1      48.398   3.615  16.664  0.00  0.00    +0.000 A 
ATOM     16  C   UNL     1      48.556   2.335  16.145  0.00  0.00    +0.000 A 
ATOM     17  N   UNL     1      49.637   1.560  16.354  0.00  0.00    +0.000 NA
ATOM     18  C   UNL     1      50.611   2.089  17.137  0.00  0.00    +0.000 A 
ATOM     19  C   UNL     1      50.590   3.354  17.732  0.00  0.00    +0.000 A 
ATOM     20  C   UNL     1      49.438   4.106  17.471  0.00  0.00    +0.000 A 
BRANCH  19  21
ATOM     21  N   UNL     1      51.619   3.822  18.518  0.00  0.00    +0.000 N 
ATOM     22  C   UNL     1      51.510   5.009  19.381  0.00  0.00    +0.000 C 
ATOM     23  C   UNL     1      52.562   6.054  18.983  0.00  0.00    +0.000 C 
ATOM     24  O   UNL     1      53.887   5.492  18.986  0.00  0.00    +0.000 OA
ATOM     25  C   UNL     1      53.966   4.397  18.058  0.00  0.00    +0.000 C 
ATOM     26  C   UNL     1      52.980   3.270  18.419  0.00  0.00    +0.000 C 
ENDBRANCH  19  21
ENDBRANCH  14  15
ENDBRANCH   5  14
TORSDOF 4
ENDMDL
MODEL 9
REMARK VINA RESULT:    -6.158      3.065      4.466
REMARK INTER + INTRA:          -8.146
REMARK INTER:                  -7.480
REMARK INTRA:                  -0.666
REMARK UNBOUND:                -0.548
REMARK  Name = 
REMARK  4 active torsions:
REMARK  status: ('A' for Active; 'I' for Inactive)
REMARK    1  A    between atoms: C_2  and  C_4
REMARK    2  A    between atoms: N_8  and  C_9
REMARK    3  A    between atoms: C_9  and  C_10
REMARK    4  A    between atoms: C_14  and  N_15
REMARK                            x       y       z     vdW  Elec       q    Type
REMARK                         _______ _______ _______ _____ _____    ______ ____
ROOT
ATOM      1  C   UNL     1      44.285   4.181  11.463  0.00  0.00    +0.000 A 
ATOM      2  C   UNL     1      45.187   4.980  10.769  0.00  0.00    +0.000 A 
ATOM      3  C   UNL     1      45.539   6.225  11.296  0.00  0.00    +0.000 A 
ATOM      4  C   UNL     1      44.989   6.648  12.501  0.00  0.00    +0.000 A 
ATOM      5  N   UNL     1      45.281   7.840  13.097  0.00  0.00    +0.000 N 
ATOM      6  N   UNL     1      44.097   5.889  13.168  0.00  0.00    +0.000 NA
ATOM      7  C   UNL     1      43.758   4.683  12.641  0.00  0.00    +0.000 A 
ATOM      8  H   UNL     1      44.772   7.999  13.956  0.00  0.00    +0.000 HD
ENDROOT
BRANCH   1  10
ATOM      9  N   UNL     1      44.580   2.281   9.978  0.00  0.00    +0.000 N 
ATOM     10  C   UNL     1      43.855   2.851  10.989  0.00  0.00    +0.000 C 
ATOM     11  O   UNL     1      42.910   2.264  11.499  0.00  0.00    +0.000 OA
ATOM     12  H   UNL     1      44.337   1.329   9.733  0.00  0.00    +0.000 HD
ATOM     13  H   UNL     1      45.496   2.613   9.709  0.00  0.00    +0.000 HD
ENDBRANCH   1  10
BRANCH   5  14
ATOM     14  C   UNL     1      46.240   8.824  12.659  0.00  0.00    +0.000 C 
BRANCH  14  15
ATOM     15  C   UNL     1      47.653   8.533  13.090  0.00  0.00    +0.000 A 
ATOM     16  C   UNL     1      48.668   8.606  12.142  0.00  0.00    +0.000 A 
ATOM     17  N   UNL     1      49.967   8.372  12.404  0.00  0.00    +0.000 NA
ATOM     18  C   UNL     1      50.270   8.034  13.683  0.00  0.00    +0.000 A 
ATOM     19  C   UNL     1      49.360   7.915  14.738  0.00  0.00    +0.000 A 
ATOM     20  C   UNL     1      48.028   8.173  14.395  0.00  0.00    +0.000 A 
BRANCH  19  21
ATOM     21  N   UNL     1      49.744   7.563  16.013  0.00  0.00    +0.000 N 
ATOM     22  C   UNL     1      50.870   6.663  16.305  0.00  0.00    +0.000 C 
ATOM     23  C   UNL     1      50.384   5.444  17.102  0.00  0.00    +0.000 C 
ATOM     24  O   UNL     1      49.676   5.843  18.290  0.00  0.00    +0.000 OA
ATOM     25  C   UNL     1      48.531   6.641  17.944  0.00  0.00    +0.000 C 
ATOM     26  C   UNL     1      48.935   7.921  17.189  0.00  0.00    +0.000 C 
ENDBRANCH  19  21
ENDBRANCH  14  15
ENDBRANCH   5  14
TORSDOF 4
ENDMDL
