MODEL 1
REMARK VINA RESULT:    -7.979      0.000      0.000
REMARK INTER + INTRA:         -12.326
REMARK INTER:                 -11.244
REMARK INTRA:                  -1.082
REMARK UNBOUND:                -1.082
REMARK  Name = 
REMARK  8 active torsions:
REMARK  status: ('A' for Active; 'I' for Inactive)
REMARK    1  A    between atoms: C_1  and  O_2
REMARK    2  A    between atoms: O_2  and  C_3
REMARK    3  A    between atoms: C_5  and  C_6
REMARK    4  A    between atoms: C_6  and  N_7
REMARK    5  A    between atoms: C_8  and  C_10
REMARK    6  A    between atoms: C_17  and  C_18
REMARK    7  A    between atoms: C_18  and  N_19
REMARK    8  A    between atoms: C_20  and  C_22
REMARK                            x       y       z     vdW  Elec       q    Type
REMARK                         _______ _______ _______ _____ _____    ______ ____
ROOT
ATOM      1  C   UNL     1      45.255   8.110  12.236  0.00  0.00    +0.000 A 
ATOM      2  C   UNL     1      44.510   7.298  11.367  0.00  0.00    +0.000 A 
ATOM      3  C   UNL     1      44.955   6.014  11.015  0.00  0.00    +0.000 A 
ATOM      4  C   UNL     1      46.152   5.539  11.559  0.00  0.00    +0.000 A 
ATOM      5  C   UNL     1      46.897   6.337  12.428  0.00  0.00    +0.000 A 
ATOM      6  C   UNL     1      46.468   7.631  12.767  0.00  0.00    +0.000 A 
ENDROOT
BRANCH   1   8
ATOM      7  C   UNL     1      44.926  10.371  11.557  0.00  0.00    +0.000 C 
ATOM      8  O   UNL     1      44.903   9.389  12.587  0.00  0.00    +0.000 OA
ENDBRANCH   1   8
BRANCH   3   9
ATOM      9  C   UNL     1      44.146   5.149  10.084  0.00  0.00    +0.000 C 
BRANCH   9  10
ATOM     10  N   UNL     1      44.984   4.340   9.240  0.00  0.00    +0.000 N 
ATOM     11  C   UNL     1      44.937   2.965   9.276  0.00  0.00    +0.000 C 
ATOM     12  O   UNL     1      44.212   2.333  10.033  0.00  0.00    +0.000 OA
ATOM     13  H   UNL     1      45.576   4.757   8.527  0.00  0.00    +0.000 HD
BRANCH  11  14
ATOM     14  C   UNL     1      45.845   2.321   8.310  0.00  0.00    +0.000 A 
ATOM     15  C   UNL     1      46.538   2.955   7.241  0.00  0.00    +0.000 A 
ATOM     16  C   UNL     1      47.238   1.951   6.617  0.00  0.00    +0.000 A 
ATOM     17  N   UNL     1      46.952   0.812   7.305  0.00  0.00    +0.000 N 
ATOM     18  N   UNL     1      46.116   1.000   8.341  0.00  0.00    +0.000 NA
ATOM     19  H   UNL     1      47.291  -0.128   7.125  0.00  0.00    +0.000 HD
ENDBRANCH  11  14
ENDBRANCH   9  10
ENDBRANCH   3   9
BRANCH   6  20
ATOM     20  C   UNL     1      47.289   8.429  13.753  0.00  0.00    +0.000 C 
BRANCH  20  21
ATOM     21  N   UNL     1      47.722   7.595  14.851  0.00  0.00    +0.000 N 
ATOM     22  C   UNL     1      48.992   7.105  14.989  0.00  0.00    +0.000 C 
ATOM     23  O   UNL     1      49.885   7.346  14.182  0.00  0.00    +0.000 OA
ATOM     24  H   UNL     1      46.986   7.282  15.474  0.00  0.00    +0.000 HD
BRANCH  22  25
ATOM     25  C   UNL     1      49.255   6.329  16.211  0.00  0.00    +0.000 A 
ATOM     26  C   UNL     1      50.264   6.724  17.080  0.00  0.00    +0.000 A 
ATOM     27  S   UNL     1      50.371   5.761  18.485  0.00  0.00    +0.000 S 
ATOM     28  C   UNL     1      49.110   4.750  17.956  0.00  0.00    +0.000 A 
ATOM     29  N   UNL     1      48.689   3.698  18.710  0.00  0.00    +0.000 NA
ATOM     30  C   UNL     1      47.751   2.995  18.167  0.00  0.00    +0.000 A 
ATOM     31  N   UNL     1      47.200   3.242  16.941  0.00  0.00    +0.000 N 
ATOM     32  C   UNL     1      47.567   4.310  16.160  0.00  0.00    +0.000 A 
ATOM     33  O   UNL     1      47.007   4.531  15.092  0.00  0.00    +0.000 OA
ATOM     34  C   UNL     1      48.617   5.137  16.722  0.00  0.00    +0.000 A 
ATOM     35  H   UNL     1      46.466   2.656  16.572  0.00  0.00    +0.000 HD
ENDBRANCH  22  25
ENDBRANCH  20  21
ENDBRANCH   6  20
TORSDOF 7
ENDMDL
MODEL 2
REMARK VINA RESULT:    -7.958      1.848      2.603
REMARK INTER + INTRA:         -12.297
REMARK INTER:                 -11.058
REMARK INTRA:                  -1.239
REMARK UNBOUND:                -1.082
REMARK  Name = 
REMARK  8 active torsions:
REMARK  status: ('A' for Active; 'I' for Inactive)
REMARK    1  A    between atoms: C_1  and  O_2
REMARK    2  A    between atoms: O_2  and  C_3
REMARK    3  A    between atoms: C_5  and  C_6
REMARK    4  A    between atoms: C_6  and  N_7
REMARK    5  A    between atoms: C_8  and  C_10
REMARK    6  A    between atoms: C_17  and  C_18
REMARK    7  A    between atoms: C_18  and  N_19
REMARK    8  A    between atoms: C_20  and  C_22
REMARK                            x       y       z     vdW  Elec       q    Type
REMARK                         _______ _______ _______ _____ _____    ______ ____
ROOT
ATOM      1  C   UNL     1      46.898   5.597  13.133  0.00  0.00    +0.000 A 
ATOM      2  C   UNL     1      45.958   4.897  12.360  0.00  0.00    +0.000 A 
ATOM      3  C   UNL     1      45.126   5.567  11.449  0.00  0.00    +0.000 A 
ATOM      4  C   UNL     1      45.256   6.951  11.305  0.00  0.00    +0.000 A 
ATOM      5  C   UNL     1      46.191   7.655  12.065  0.00  0.00    +0.000 A 
ATOM      6  C   UNL     1      47.012   6.993  12.993  0.00  0.00    +0.000 A 
ENDROOT
BRANCH   1   8
ATOM      7  C   UNL     1      47.085   4.176  15.037  0.00  0.00    +0.000 C 
ATOM      8  O   UNL     1      47.711   5.012  14.071  0.00  0.00    +0.000 OA
ENDBRANCH   1   8
BRANCH   3   9
ATOM      9  C   UNL     1      44.122   4.806  10.622  0.00  0.00    +0.000 C 
BRANCH   9  10
ATOM     10  N   UNL     1      44.733   3.721   9.903  0.00  0.00    +0.000 N 
ATOM     11  C   UNL     1      45.481   3.933   8.767  0.00  0.00    +0.000 C 
ATOM     12  O   UNL     1      45.660   5.039   8.273  0.00  0.00    +0.000 OA
ATOM     13  H   UNL     1      44.706   2.769  10.258  0.00  0.00    +0.000 HD
BRANCH  11  14
ATOM     14  C   UNL     1      46.052   2.699   8.199  0.00  0.00    +0.000 A 
ATOM     15  C   UNL     1      46.950   2.606   7.100  0.00  0.00    +0.000 A 
ATOM     16  C   UNL     1      47.183   1.263   6.935  0.00  0.00    +0.000 A 
ATOM     17  N   UNL     1      46.453   0.635   7.897  0.00  0.00    +0.000 N 
ATOM     18  N   UNL     1      45.760   1.476   8.685  0.00  0.00    +0.000 NA
ATOM     19  H   UNL     1      46.379  -0.362   8.074  0.00  0.00    +0.000 HD
ENDBRANCH  11  14
ENDBRANCH   9  10
ENDBRANCH   3   9
BRANCH   6  20
ATOM     20  C   UNL     1      48.041   7.799  13.750  0.00  0.00    +0.000 C 
BRANCH  20  21
ATOM     21  N   UNL     1      47.919   7.577  15.173  0.00  0.00    +0.000 N 
ATOM     22  C   UNL     1      48.983   7.425  16.020  0.00  0.00    +0.000 C 
ATOM     23  O   UNL     1      50.147   7.475  15.635  0.00  0.00    +0.000 OA
ATOM     24  H   UNL     1      46.976   7.417  15.508  0.00  0.00    +0.000 HD
BRANCH  22  25
ATOM     25  C   UNL     1      48.656   7.274  17.446  0.00  0.00    +0.000 A 
ATOM     26  C   UNL     1      48.107   8.338  18.149  0.00  0.00    +0.000 A 
ATOM     27  S   UNL     1      47.711   7.960  19.765  0.00  0.00    +0.000 S 
ATOM     28  C   UNL     1      48.310   6.376  19.599  0.00  0.00    +0.000 A 
ATOM     29  N   UNL     1      48.271   5.498  20.638  0.00  0.00    +0.000 NA
ATOM     30  C   UNL     1      48.794   4.345  20.380  0.00  0.00    +0.000 A 
ATOM     31  N   UNL     1      49.356   3.991  19.185  0.00  0.00    +0.000 N 
ATOM     32  C   UNL     1      49.387   4.831  18.099  0.00  0.00    +0.000 A 
ATOM     33  O   UNL     1      49.847   4.455  17.026  0.00  0.00    +0.000 OA
ATOM     34  C   UNL     1      48.809   6.141  18.331  0.00  0.00    +0.000 A 
ATOM     35  H   UNL     1      49.747   3.072  19.045  0.00  0.00    +0.000 HD
ENDBRANCH  22  25
ENDBRANCH  20  21
ENDBRANCH   6  20
TORSDOF 7
ENDMDL
MODEL 3
REMARK VINA RESULT:    -7.692      2.219      3.228
REMARK INTER + INTRA:         -11.921
REMARK INTER:                 -10.734
REMARK INTRA:                  -1.187
REMARK UNBOUND:                -1.082
REMARK  Name = 
REMARK  8 active torsions:
REMARK  status: ('A' for Active; 'I' for Inactive)
REMARK    1  A    between atoms: C_1  and  O_2
REMARK    2  A    between atoms: O_2  and  C_3
REMARK    3  A    between atoms: C_5  and  C_6
REMARK    4  A    between atoms: C_6  and  N_7
REMARK    5  A    between atoms: C_8  and  C_10
REMARK    6  A    between atoms: C_17  and  C_18
REMARK    7  A    between atoms: C_18  and  N_19
REMARK    8  A    between atoms: C_20  and  C_22
REMARK                            x       y       z     vdW  Elec       q    Type
REMARK                         _______ _______ _______ _____ _____    ______ ____
ROOT
ATOM      1  C   UNL     1      46.880   5.444  13.081  0.00  0.00    +0.000 A 
ATOM      2  C   UNL     1      45.947   4.795  12.257  0.00  0.00    +0.000 A 
ATOM      3  C   UNL     1      45.121   5.521  11.385  0.00  0.00    +0.000 A 
ATOM      4  C   UNL     1      45.250   6.912  11.332  0.00  0.00    +0.000 A 
ATOM      5  C   UNL     1      46.178   7.567  12.144  0.00  0.00    +0.000 A 
ATOM      6  C   UNL     1      46.992   6.846  13.033  0.00  0.00    +0.000 A 
ENDROOT
BRANCH   1   8
ATOM      7  C   UNL     1      47.161   3.632  14.603  0.00  0.00    +0.000 C 
ATOM      8  O   UNL     1      47.686   4.801  13.986  0.00  0.00    +0.000 OA
ENDBRANCH   1   8
BRANCH   3   9
ATOM      9  C   UNL     1      44.125   4.815  10.502  0.00  0.00    +0.000 C 
BRANCH   9  10
ATOM     10  N   UNL     1      44.724   3.717   9.791  0.00  0.00    +0.000 N 
ATOM     11  C   UNL     1      45.532   3.917   8.696  0.00  0.00    +0.000 C 
ATOM     12  O   UNL     1      45.781   5.023   8.232  0.00  0.00    +0.000 OA
ATOM     13  H   UNL     1      44.640   2.761  10.126  0.00  0.00    +0.000 HD
BRANCH  11  14
ATOM     14  C   UNL     1      46.078   2.670   8.131  0.00  0.00    +0.000 A 
ATOM     15  C   UNL     1      46.905   2.549   6.980  0.00  0.00    +0.000 A 
ATOM     16  C   UNL     1      47.140   1.203   6.842  0.00  0.00    +0.000 A 
ATOM     17  N   UNL     1      46.478   0.600   7.868  0.00  0.00    +0.000 N 
ATOM     18  N   UNL     1      45.829   1.460   8.672  0.00  0.00    +0.000 NA
ATOM     19  H   UNL     1      46.425  -0.392   8.081  0.00  0.00    +0.000 HD
ENDBRANCH  11  14
ENDBRANCH   9  10
ENDBRANCH   3   9
BRANCH   6  20
ATOM     20  C   UNL     1      48.014   7.603  13.849  0.00  0.00    +0.000 C 
BRANCH  20  21
ATOM     21  N   UNL     1      47.927   7.237  15.244  0.00  0.00    +0.000 N 
ATOM     22  C   UNL     1      48.980   6.768  15.983  0.00  0.00    +0.000 C 
ATOM     23  O   UNL     1      50.105   6.627  15.513  0.00  0.00    +0.000 OA
ATOM     24  H   UNL     1      46.992   7.232  15.634  0.00  0.00    +0.000 HD
BRANCH  22  25
ATOM     25  C   UNL     1      48.708   6.513  17.405  0.00  0.00    +0.000 A 
ATOM     26  C   UNL     1      48.909   5.245  17.934  0.00  0.00    +0.000 A 
ATOM     27  S   UNL     1      48.626   5.151  19.614  0.00  0.00    +0.000 S 
ATOM     28  C   UNL     1      48.173   6.790  19.685  0.00  0.00    +0.000 A 
ATOM     29  N   UNL     1      47.805   7.366  20.862  0.00  0.00    +0.000 NA
ATOM     30  C   UNL     1      47.450   8.604  20.759  0.00  0.00    +0.000 A 
ATOM     31  N   UNL     1      47.423   9.316  19.592  0.00  0.00    +0.000 N 
ATOM     32  C   UNL     1      47.818   8.787  18.388  0.00  0.00    +0.000 A 
ATOM     33  O   UNL     1      47.836   9.476  17.373  0.00  0.00    +0.000 OA
ATOM     34  C   UNL     1      48.230   7.398  18.444  0.00  0.00    +0.000 A 
ATOM     35  H   UNL     1      47.138  10.284  19.578  0.00  0.00    +0.000 HD
ENDBRANCH  22  25
ENDBRANCH  20  21
ENDBRANCH   6  20
TORSDOF 7
ENDMDL
MODEL 4
REMARK VINA RESULT:    -7.548      4.428      9.443
REMARK INTER + INTRA:         -11.719
REMARK INTER:                 -10.510
REMARK INTRA:                  -1.209
REMARK UNBOUND:                -1.082
REMARK  Name = 
REMARK  8 active torsions:
REMARK  status: ('A' for Active; 'I' for Inactive)
REMARK    1  A    between atoms: C_1  and  O_2
REMARK    2  A    between atoms: O_2  and  C_3
REMARK    3  A    between atoms: C_5  and  C_6
REMARK    4  A    between atoms: C_6  and  N_7
REMARK    5  A    between atoms: C_8  and  C_10
REMARK    6  A    between atoms: C_17  and  C_18
REMARK    7  A    between atoms: C_18  and  N_19
REMARK    8  A    between atoms: C_20  and  C_22
REMARK                            x       y       z     vdW  Elec       q    Type
REMARK                         _______ _______ _______ _____ _____    ______ ____
ROOT
ATOM      1  C   UNL     1      49.158   4.551  17.701  0.00  0.00    +0.000 A 
ATOM      2  C   UNL     1      50.539   4.526  17.946  0.00  0.00    +0.000 A 
ATOM      3  C   UNL     1      51.291   3.357  17.747  0.00  0.00    +0.000 A 
ATOM      4  C   UNL     1      50.645   2.209  17.279  0.00  0.00    +0.000 A 
ATOM      5  C   UNL     1      49.272   2.224  17.028  0.00  0.00    +0.000 A 
ATOM      6  C   UNL     1      48.512   3.385  17.245  0.00  0.00    +0.000 A 
ENDROOT
BRANCH   1   8
ATOM      7  C   UNL     1      48.043   5.959  19.268  0.00  0.00    +0.000 C 
ATOM      8  O   UNL     1      48.357   5.644  17.916  0.00  0.00    +0.000 OA
ENDBRANCH   1   8
BRANCH   3   9
ATOM      9  C   UNL     1      52.774   3.342  18.010  0.00  0.00    +0.000 C 
BRANCH   9  10
ATOM     10  N   UNL     1      53.190   2.131  18.665  0.00  0.00    +0.000 N 
ATOM     11  C   UNL     1      54.126   1.290  18.107  0.00  0.00    +0.000 C 
ATOM     12  O   UNL     1      54.649   1.489  17.018  0.00  0.00    +0.000 OA
ATOM     13  H   UNL     1      52.872   1.899  19.601  0.00  0.00    +0.000 HD
BRANCH  11  14
ATOM     14  C   UNL     1      54.444   0.123  18.948  0.00  0.00    +0.000 A 
ATOM     15  C   UNL     1      54.294  -1.247  18.593  0.00  0.00    +0.000 A 
ATOM     16  C   UNL     1      54.701  -1.954  19.698  0.00  0.00    +0.000 A 
ATOM     17  N   UNL     1      55.064  -1.025  20.625  0.00  0.00    +0.000 N 
ATOM     18  N   UNL     1      54.927   0.243  20.201  0.00  0.00    +0.000 NA
ATOM     19  H   UNL     1      55.413  -1.185  21.565  0.00  0.00    +0.000 HD
ENDBRANCH  11  14
ENDBRANCH   9  10
ENDBRANCH   3   9
BRANCH   6  20
ATOM     20  C   UNL     1      47.040   3.358  16.906  0.00  0.00    +0.000 C 
BRANCH  20  21
ATOM     21  N   UNL     1      46.731   4.336  15.889  0.00  0.00    +0.000 N 
ATOM     22  C   UNL     1      46.874   4.118  14.545  0.00  0.00    +0.000 C 
ATOM     23  O   UNL     1      47.273   3.051  14.088  0.00  0.00    +0.000 OA
ATOM     24  H   UNL     1      46.508   5.264  16.231  0.00  0.00    +0.000 HD
BRANCH  22  25
ATOM     25  C   UNL     1      46.444   5.214  13.664  0.00  0.00    +0.000 A 
ATOM     26  C   UNL     1      47.297   6.282  13.418  0.00  0.00    +0.000 A 
ATOM     27  S   UNL     1      46.670   7.416  12.307  0.00  0.00    +0.000 S 
ATOM     28  C   UNL     1      45.215   6.548  12.157  0.00  0.00    +0.000 A 
ATOM     29  N   UNL     1      44.219   6.983  11.338  0.00  0.00    +0.000 NA
ATOM     30  C   UNL     1      43.158   6.245  11.352  0.00  0.00    +0.000 A 
ATOM     31  N   UNL     1      42.998   5.120  12.111  0.00  0.00    +0.000 N 
ATOM     32  C   UNL     1      43.988   4.624  12.926  0.00  0.00    +0.000 A 
ATOM     33  O   UNL     1      43.827   3.579  13.546  0.00  0.00    +0.000 OA
ATOM     34  C   UNL     1      45.205   5.412  12.947  0.00  0.00    +0.000 A 
ATOM     35  H   UNL     1      42.144   4.584  12.076  0.00  0.00    +0.000 HD
ENDBRANCH  22  25
ENDBRANCH  20  21
ENDBRANCH   6  20
TORSDOF 7
ENDMDL
MODEL 5
REMARK VINA RESULT:    -7.157      4.487      9.208
REMARK INTER + INTRA:         -11.168
REMARK INTER:                  -9.627
REMARK INTRA:                  -1.541
REMARK UNBOUND:                -1.082
REMARK  Name = 
REMARK  8 active torsions:
REMARK  status: ('A' for Active; 'I' for Inactive)
REMARK    1  A    between atoms: C_1  and  O_2
REMARK    2  A    between atoms: O_2  and  C_3
REMARK    3  A    between atoms: C_5  and  C_6
REMARK    4  A    between atoms: C_6  and  N_7
REMARK    5  A    between atoms: C_8  and  C_10
REMARK    6  A    between atoms: C_17  and  C_18
REMARK    7  A    between atoms: C_18  and  N_19
REMARK    8  A    between atoms: C_20  and  C_22
REMARK                            x       y       z     vdW  Elec       q    Type
REMARK                         _______ _______ _______ _____ _____    ______ ____
ROOT
ATOM      1  C   UNL     1      49.410   4.498  17.783  0.00  0.00    +0.000 A 
ATOM      2  C   UNL     1      50.764   4.259  18.065  0.00  0.00    +0.000 A 
ATOM      3  C   UNL     1      51.351   3.012  17.796  0.00  0.00    +0.000 A 
ATOM      4  C   UNL     1      50.570   2.006  17.221  0.00  0.00    +0.000 A 
ATOM      5  C   UNL     1      49.223   2.235  16.933  0.00  0.00    +0.000 A 
ATOM      6  C   UNL     1      48.626   3.473  17.220  0.00  0.00    +0.000 A 
ENDROOT
BRANCH   1   8
ATOM      7  C   UNL     1      48.494   5.958  19.429  0.00  0.00    +0.000 C 
ATOM      8  O   UNL     1      48.762   5.675  18.061  0.00  0.00    +0.000 OA
ENDBRANCH   1   8
BRANCH   3   9
ATOM      9  C   UNL     1      52.806   2.767  18.099  0.00  0.00    +0.000 C 
BRANCH   9  10
ATOM     10  N   UNL     1      53.053   1.400  18.472  0.00  0.00    +0.000 N 
ATOM     11  C   UNL     1      53.927   0.603  17.768  0.00  0.00    +0.000 C 
ATOM     12  O   UNL     1      54.532   0.979  16.772  0.00  0.00    +0.000 OA
ATOM     13  H   UNL     1      52.657   1.003  19.319  0.00  0.00    +0.000 HD
BRANCH  11  14
ATOM     14  C   UNL     1      54.070  -0.752  18.330  0.00  0.00    +0.000 A 
ATOM     15  C   UNL     1      55.175  -1.631  18.157  0.00  0.00    +0.000 A 
ATOM     16  C   UNL     1      54.844  -2.770  18.849  0.00  0.00    +0.000 A 
ATOM     17  N   UNL     1      53.614  -2.539  19.385  0.00  0.00    +0.000 N 
ATOM     18  N   UNL     1      53.118  -1.323  19.095  0.00  0.00    +0.000 NA
ATOM     19  H   UNL     1      53.055  -3.164  19.957  0.00  0.00    +0.000 HD
ENDBRANCH  11  14
ENDBRANCH   9  10
ENDBRANCH   3   9
BRANCH   6  20
ATOM     20  C   UNL     1      47.178   3.681  16.838  0.00  0.00    +0.000 C 
BRANCH  20  21
ATOM     21  N   UNL     1      47.064   4.654  15.776  0.00  0.00    +0.000 N 
ATOM     22  C   UNL     1      47.097   4.343  14.443  0.00  0.00    +0.000 C 
ATOM     23  O   UNL     1      47.218   3.191  14.036  0.00  0.00    +0.000 OA
ATOM     24  H   UNL     1      47.077   5.623  16.071  0.00  0.00    +0.000 HD
BRANCH  22  25
ATOM     25  C   UNL     1      46.898   5.465  13.513  0.00  0.00    +0.000 A 
ATOM     26  C   UNL     1      45.830   5.450  12.625  0.00  0.00    +0.000 A 
ATOM     27  S   UNL     1      45.704   6.868  11.684  0.00  0.00    +0.000 S 
ATOM     28  C   UNL     1      47.103   7.529  12.391  0.00  0.00    +0.000 A 
ATOM     29  N   UNL     1      47.562   8.757  12.026  0.00  0.00    +0.000 NA
ATOM     30  C   UNL     1      48.654   9.115  12.617  0.00  0.00    +0.000 A 
ATOM     31  N   UNL     1      49.331   8.358  13.532  0.00  0.00    +0.000 N 
ATOM     32  C   UNL     1      48.888   7.129  13.957  0.00  0.00    +0.000 A 
ATOM     33  O   UNL     1      49.493   6.508  14.824  0.00  0.00    +0.000 OA
ATOM     34  C   UNL     1      47.662   6.678  13.328  0.00  0.00    +0.000 A 
ATOM     35  H   UNL     1      50.179   8.696  13.962  0.00  0.00    +0.000 HD
ENDBRANCH  22  25
ENDBRANCH  20  21
ENDBRANCH   6  20
TORSDOF 7
ENDMDL
MODEL 6
REMARK VINA RESULT:    -7.145      3.326      7.900
REMARK INTER + INTRA:         -11.151
REMARK INTER:                 -10.082
REMARK INTRA:                  -1.069
REMARK UNBOUND:                -1.082
REMARK  Name = 
REMARK  8 active torsions:
REMARK  status: ('A' for Active; 'I' for Inactive)
REMARK    1  A    between atoms: C_1  and  O_2
REMARK    2  A    between atoms: O_2  and  C_3
REMARK    3  A    between atoms: C_5  and  C_6
REMARK    4  A    between atoms: C_6  and  N_7
REMARK    5  A    between atoms: C_8  and  C_10
REMARK    6  A    between atoms: C_17  and  C_18
REMARK    7  A    between atoms: C_18  and  N_19
REMARK    8  A    between atoms: C_20  and  C_22
REMARK                            x       y       z     vdW  Elec       q    Type
REMARK                         _______ _______ _______ _____ _____    ______ ____
ROOT
ATOM      1  C   UNL     1      50.041   7.924  14.246  0.00  0.00    +0.000 A 
ATOM      2  C   UNL     1      50.441   7.500  15.523  0.00  0.00    +0.000 A 
ATOM      3  C   UNL     1      49.683   6.568  16.248  0.00  0.00    +0.000 A 
ATOM      4  C   UNL     1      48.521   6.046  15.672  0.00  0.00    +0.000 A 
ATOM      5  C   UNL     1      48.117   6.458  14.402  0.00  0.00    +0.000 A 
ATOM      6  C   UNL     1      48.861   7.405  13.680  0.00  0.00    +0.000 A 
ENDROOT
BRANCH   1   8
ATOM      7  C   UNL     1      52.013   8.519  13.047  0.00  0.00    +0.000 C 
ATOM      8  O   UNL     1      50.709   8.863  13.502  0.00  0.00    +0.000 OA
ENDBRANCH   1   8
BRANCH   3   9
ATOM      9  C   UNL     1      50.123   6.117  17.617  0.00  0.00    +0.000 C 
BRANCH   9  10
ATOM     10  N   UNL     1      50.888   4.900  17.560  0.00  0.00    +0.000 N 
ATOM     11  C   UNL     1      50.313   3.671  17.790  0.00  0.00    +0.000 C 
ATOM     12  O   UNL     1      49.133   3.520  18.081  0.00  0.00    +0.000 OA
ATOM     13  H   UNL     1      51.860   4.899  17.263  0.00  0.00    +0.000 HD
BRANCH  11  14
ATOM     14  C   UNL     1      51.254   2.546  17.649  0.00  0.00    +0.000 A 
ATOM     15  C   UNL     1      52.600   2.500  18.109  0.00  0.00    +0.000 A 
ATOM     16  C   UNL     1      53.070   1.266  17.735  0.00  0.00    +0.000 A 
ATOM     17  N   UNL     1      52.036   0.649  17.098  0.00  0.00    +0.000 N 
ATOM     18  N   UNL     1      50.919   1.394  17.033  0.00  0.00    +0.000 NA
ATOM     19  H   UNL     1      52.022  -0.278  16.683  0.00  0.00    +0.000 HD
ENDBRANCH  11  14
ENDBRANCH   9  10
ENDBRANCH   3   9
BRANCH   6  20
ATOM     20  C   UNL     1      48.403   7.774  12.288  0.00  0.00    +0.000 C 
BRANCH  20  21
ATOM     21  N   UNL     1      47.581   6.727  11.726  0.00  0.00    +0.000 N 
ATOM     22  C   UNL     1      46.254   6.872  11.423  0.00  0.00    +0.000 C 
ATOM     23  O   UNL     1      45.647   7.925  11.599  0.00  0.00    +0.000 OA
ATOM     24  H   UNL     1      48.017   5.814  11.674  0.00  0.00    +0.000 HD
BRANCH  22  25
ATOM     25  C   UNL     1      45.604   5.711  10.796  0.00  0.00    +0.000 A 
ATOM     26  C   UNL     1      45.727   5.501   9.429  0.00  0.00    +0.000 A 
ATOM     27  S   UNL     1      44.984   4.063   8.888  0.00  0.00    +0.000 S 
ATOM     28  C   UNL     1      44.425   3.698  10.453  0.00  0.00    +0.000 A 
ATOM     29  N   UNL     1      43.700   2.572  10.695  0.00  0.00    +0.000 NA
ATOM     30  C   UNL     1      43.310   2.443  11.920  0.00  0.00    +0.000 A 
ATOM     31  N   UNL     1      43.572   3.336  12.922  0.00  0.00    +0.000 N 
ATOM     32  C   UNL     1      44.327   4.467  12.732  0.00  0.00    +0.000 A 
ATOM     33  O   UNL     1      44.589   5.213  13.670  0.00  0.00    +0.000 OA
ATOM     34  C   UNL     1      44.795   4.662  11.374  0.00  0.00    +0.000 A 
ATOM     35  H   UNL     1      43.241   3.177  13.861  0.00  0.00    +0.000 HD
ENDBRANCH  22  25
ENDBRANCH  20  21
ENDBRANCH   6  20
TORSDOF 7
ENDMDL
MODEL 7
REMARK VINA RESULT:    -7.027      2.822      4.189
REMARK INTER + INTRA:         -10.985
REMARK INTER:                  -9.498
REMARK INTRA:                  -1.486
REMARK UNBOUND:                -1.082
REMARK  Name = 
REMARK  8 active torsions:
REMARK  status: ('A' for Active; 'I' for Inactive)
REMARK    1  A    between atoms: C_1  and  O_2
REMARK    2  A    between atoms: O_2  and  C_3
REMARK    3  A    between atoms: C_5  and  C_6
REMARK    4  A    between atoms: C_6  and  N_7
REMARK    5  A    between atoms: C_8  and  C_10
REMARK    6  A    between atoms: C_17  and  C_18
REMARK    7  A    between atoms: C_18  and  N_19
REMARK    8  A    between atoms: C_20  and  C_22
REMARK                            x       y       z     vdW  Elec       q    Type
REMARK                         _______ _______ _______ _____ _____    ______ ____
ROOT
ATOM      1  C   UNL     1      46.084   6.541  12.368  0.00  0.00    +0.000 A 
ATOM      2  C   UNL     1      45.365   6.087  11.251  0.00  0.00    +0.000 A 
ATOM      3  C   UNL     1      45.058   4.727  11.089  0.00  0.00    +0.000 A 
ATOM      4  C   UNL     1      45.467   3.820  12.072  0.00  0.00    +0.000 A 
ATOM      5  C   UNL     1      46.179   4.262  13.188  0.00  0.00    +0.000 A 
ATOM      6  C   UNL     1      46.506   5.618  13.344  0.00  0.00    +0.000 A 
ENDROOT
BRANCH   1   8
ATOM      7  C   UNL     1      45.409   8.797  12.735  0.00  0.00    +0.000 C 
ATOM      8  O   UNL     1      46.455   7.847  12.566  0.00  0.00    +0.000 OA
ENDBRANCH   1   8
BRANCH   3   9
ATOM      9  C   UNL     1      44.283   4.251   9.889  0.00  0.00    +0.000 C 
BRANCH   9  10
ATOM     10  N   UNL     1      45.138   4.017   8.756  0.00  0.00    +0.000 N 
ATOM     11  C   UNL     1      45.610   2.761   8.452  0.00  0.00    +0.000 C 
ATOM     12  O   UNL     1      45.365   1.766   9.123  0.00  0.00    +0.000 OA
ATOM     13  H   UNL     1      45.352   4.756   8.093  0.00  0.00    +0.000 HD
BRANCH  11  14
ATOM     14  C   UNL     1      46.439   2.723   7.234  0.00  0.00    +0.000 A 
ATOM     15  C   UNL     1      47.355   1.700   6.862  0.00  0.00    +0.000 A 
ATOM     16  C   UNL     1      47.895   2.114   5.668  0.00  0.00    +0.000 A 
ATOM     17  N   UNL     1      47.306   3.309   5.385  0.00  0.00    +0.000 N 
ATOM     18  N   UNL     1      46.414   3.704   6.310  0.00  0.00    +0.000 NA
ATOM     19  H   UNL     1      47.465   3.908   4.581  0.00  0.00    +0.000 HD
ENDBRANCH  11  14
ENDBRANCH   9  10
ENDBRANCH   3   9
BRANCH   6  20
ATOM     20  C   UNL     1      47.233   6.046  14.598  0.00  0.00    +0.000 C 
BRANCH  20  21
ATOM     21  N   UNL     1      48.521   6.614  14.274  0.00  0.00    +0.000 N 
ATOM     22  C   UNL     1      48.919   7.872  14.640  0.00  0.00    +0.000 C 
ATOM     23  O   UNL     1      48.206   8.627  15.293  0.00  0.00    +0.000 OA
ATOM     24  H   UNL     1      49.091   6.066  13.640  0.00  0.00    +0.000 HD
BRANCH  22  25
ATOM     25  C   UNL     1      50.294   8.246  14.273  0.00  0.00    +0.000 A 
ATOM     26  C   UNL     1      51.170   8.712  15.244  0.00  0.00    +0.000 A 
ATOM     27  S   UNL     1      52.743   9.015  14.657  0.00  0.00    +0.000 S 
ATOM     28  C   UNL     1      52.295   8.586  13.073  0.00  0.00    +0.000 A 
ATOM     29  N   UNL     1      53.196   8.624  12.054  0.00  0.00    +0.000 NA
ATOM     30  C   UNL     1      52.708   8.310  10.900  0.00  0.00    +0.000 A 
ATOM     31  N   UNL     1      51.404   7.967  10.670  0.00  0.00    +0.000 N 
ATOM     32  C   UNL     1      50.468   7.882  11.672  0.00  0.00    +0.000 A 
ATOM     33  O   UNL     1      49.323   7.514  11.433  0.00  0.00    +0.000 OA
ATOM     34  C   UNL     1      50.963   8.222  12.992  0.00  0.00    +0.000 A 
ATOM     35  H   UNL     1      51.084   7.729   9.743  0.00  0.00    +0.000 HD
ENDBRANCH  22  25
ENDBRANCH  20  21
ENDBRANCH   6  20
TORSDOF 7
ENDMDL
MODEL 8
REMARK VINA RESULT:    -6.839      3.567      5.216
REMARK INTER + INTRA:         -10.720
REMARK INTER:                  -9.353
REMARK INTRA:                  -1.366
REMARK UNBOUND:                -1.082
REMARK  Name = 
REMARK  8 active torsions:
REMARK  status: ('A' for Active; 'I' for Inactive)
REMARK    1  A    between atoms: C_1  and  O_2
REMARK    2  A    between atoms: O_2  and  C_3
REMARK    3  A    between atoms: C_5  and  C_6
REMARK    4  A    between atoms: C_6  and  N_7
REMARK    5  A    between atoms: C_8  and  C_10
REMARK    6  A    between atoms: C_17  and  C_18
REMARK    7  A    between atoms: C_18  and  N_19
REMARK    8  A    between atoms: C_20  and  C_22
REMARK                            x       y       z     vdW  Elec       q    Type
REMARK                         _______ _______ _______ _____ _____    ______ ____
ROOT
ATOM      1  C   UNL     1      47.364   5.444  13.792  0.00  0.00    +0.000 A 
ATOM      2  C   UNL     1      46.390   5.108  12.839  0.00  0.00    +0.000 A 
ATOM      3  C   UNL     1      45.866   6.074  11.966  0.00  0.00    +0.000 A 
ATOM      4  C   UNL     1      46.341   7.386  12.044  0.00  0.00    +0.000 A 
ATOM      5  C   UNL     1      47.312   7.730  12.986  0.00  0.00    +0.000 A 
ATOM      6  C   UNL     1      47.825   6.772  13.875  0.00  0.00    +0.000 A 
ENDROOT
BRANCH   1   8
ATOM      7  C   UNL     1      47.082   4.249  15.834  0.00  0.00    +0.000 C 
ATOM      8  O   UNL     1      47.886   4.562  14.703  0.00  0.00    +0.000 OA
ENDBRANCH   1   8
BRANCH   3   9
ATOM      9  C   UNL     1      44.823   5.701  10.944  0.00  0.00    +0.000 C 
BRANCH   9  10
ATOM     10  N   UNL     1      45.413   5.152   9.752  0.00  0.00    +0.000 N 
ATOM     11  C   UNL     1      45.340   3.810   9.460  0.00  0.00    +0.000 C 
ATOM     12  O   UNL     1      44.801   2.987  10.189  0.00  0.00    +0.000 OA
ATOM     13  H   UNL     1      45.827   5.751   9.043  0.00  0.00    +0.000 HD
BRANCH  11  14
ATOM     14  C   UNL     1      45.972   3.452   8.177  0.00  0.00    +0.000 A 
ATOM     15  C   UNL     1      46.268   2.140   7.713  0.00  0.00    +0.000 A 
ATOM     16  C   UNL     1      46.861   2.315   6.487  0.00  0.00    +0.000 A 
ATOM     17  N   UNL     1      46.894   3.660   6.274  0.00  0.00    +0.000 N 
ATOM     18  N   UNL     1      46.357   4.378   7.276  0.00  0.00    +0.000 NA
ATOM     19  H   UNL     1      47.266   4.156   5.471  0.00  0.00    +0.000 HD
ENDBRANCH  11  14
ENDBRANCH   9  10
ENDBRANCH   3   9
BRANCH   6  20
ATOM     20  C   UNL     1      48.913   7.190  14.838  0.00  0.00    +0.000 C 
BRANCH  20  21
ATOM     21  N   UNL     1      50.150   7.438  14.134  0.00  0.00    +0.000 N 
ATOM     22  C   UNL     1      50.770   8.658  14.079  0.00  0.00    +0.000 C 
ATOM     23  O   UNL     1      50.322   9.653  14.639  0.00  0.00    +0.000 OA
ATOM     24  H   UNL     1      50.489   6.670  13.567  0.00  0.00    +0.000 HD
BRANCH  22  25
ATOM     25  C   UNL     1      52.058   8.695  13.369  0.00  0.00    +0.000 A 
ATOM     26  C   UNL     1      53.192   9.174  14.011  0.00  0.00    +0.000 A 
ATOM     27  S   UNL     1      54.610   9.064  13.069  0.00  0.00    +0.000 S 
ATOM     28  C   UNL     1      53.749   8.424  11.748  0.00  0.00    +0.000 A 
ATOM     29  N   UNL     1      54.383   8.097  10.589  0.00  0.00    +0.000 NA
ATOM     30  C   UNL     1      53.600   7.658   9.660  0.00  0.00    +0.000 A 
ATOM     31  N   UNL     1      52.245   7.522   9.780  0.00  0.00    +0.000 N 
ATOM     32  C   UNL     1      51.567   7.806  10.940  0.00  0.00    +0.000 A 
ATOM     33  O   UNL     1      50.359   7.614  11.026  0.00  0.00    +0.000 OA
ATOM     34  C   UNL     1      52.399   8.301  12.020  0.00  0.00    +0.000 A 
ATOM     35  H   UNL     1      51.687   7.170   9.016  0.00  0.00    +0.000 HD
ENDBRANCH  22  25
ENDBRANCH  20  21
ENDBRANCH   6  20
TORSDOF 7
ENDMDL
MODEL 9
REMARK VINA RESULT:    -6.436      3.018      8.652
REMARK INTER + INTRA:         -10.151
REMARK INTER:                  -9.132
REMARK INTRA:                  -1.020
REMARK UNBOUND:                -1.082
REMARK  Name = 
REMARK  8 active torsions:
REMARK  status: ('A' for Active; 'I' for Inactive)
REMARK    1  A    between atoms: C_1  and  O_2
REMARK    2  A    between atoms: O_2  and  C_3
REMARK    3  A    between atoms: C_5  and  C_6
REMARK    4  A    between atoms: C_6  and  N_7
REMARK    5  A    between atoms: C_8  and  C_10
REMARK    6  A    between atoms: C_17  and  C_18
REMARK    7  A    between atoms: C_18  and  N_19
REMARK    8  A    between atoms: C_20  and  C_22
REMARK                            x       y       z     vdW  Elec       q    Type
REMARK                         _______ _______ _______ _____ _____    ______ ____
ROOT
ATOM      1  C   UNL     1      49.693   8.217  12.895  0.00  0.00    +0.000 A 
ATOM      2  C   UNL     1      50.631   8.018  13.920  0.00  0.00    +0.000 A 
ATOM      3  C   UNL     1      50.286   7.330  15.095  0.00  0.00    +0.000 A 
ATOM      4  C   UNL     1      48.990   6.824  15.227  0.00  0.00    +0.000 A 
ATOM      5  C   UNL     1      48.051   7.013  14.211  0.00  0.00    +0.000 A 
ATOM      6  C   UNL     1      48.385   7.717  13.043  0.00  0.00    +0.000 A 
ENDROOT
BRANCH   1   8
ATOM      7  C   UNL     1      49.986  10.335  11.843  0.00  0.00    +0.000 C 
ATOM      8  O   UNL     1      49.950   8.916  11.743  0.00  0.00    +0.000 OA
ENDBRANCH   1   8
BRANCH   3   9
ATOM      9  C   UNL     1      51.301   7.119  16.188  0.00  0.00    +0.000 C 
BRANCH   9  10
ATOM     10  N   UNL     1      50.695   6.614  17.391  0.00  0.00    +0.000 N 
ATOM     11  C   UNL     1      50.793   5.290  17.752  0.00  0.00    +0.000 C 
ATOM     12  O   UNL     1      51.370   4.447  17.077  0.00  0.00    +0.000 OA
ATOM     13  H   UNL     1      50.249   7.236  18.060  0.00  0.00    +0.000 HD
BRANCH  11  14
ATOM     14  C   UNL     1      50.139   4.980  19.035  0.00  0.00    +0.000 A 
ATOM     15  C   UNL     1      48.755   4.718  19.242  0.00  0.00    +0.000 A 
ATOM     16  C   UNL     1      48.625   4.501  20.592  0.00  0.00    +0.000 A 
ATOM     17  N   UNL     1      49.876   4.632  21.115  0.00  0.00    +0.000 N 
ATOM     18  N   UNL     1      50.818   4.916  20.198  0.00  0.00    +0.000 NA
ATOM     19  H   UNL     1      50.159   4.542  22.085  0.00  0.00    +0.000 HD
ENDBRANCH  11  14
ENDBRANCH   9  10
ENDBRANCH   3   9
BRANCH   6  20
ATOM     20  C   UNL     1      47.345   7.845  11.955  0.00  0.00    +0.000 C 
BRANCH  20  21
ATOM     21  N   UNL     1      46.641   6.597  11.771  0.00  0.00    +0.000 N 
ATOM     22  C   UNL     1      45.281   6.492  11.648  0.00  0.00    +0.000 C 
ATOM     23  O   UNL     1      44.539   7.469  11.675  0.00  0.00    +0.000 OA
ATOM     24  H   UNL     1      47.208   5.761  11.858  0.00  0.00    +0.000 HD
BRANCH  22  25
ATOM     25  C   UNL     1      44.758   5.140  11.401  0.00  0.00    +0.000 A 
ATOM     26  C   UNL     1      44.034   4.485  12.388  0.00  0.00    +0.000 A 
ATOM     27  S   UNL     1      43.431   2.965  11.899  0.00  0.00    +0.000 S 
ATOM     28  C   UNL     1      44.163   3.105  10.370  0.00  0.00    +0.000 A 
ATOM     29  N   UNL     1      44.035   2.122   9.437  0.00  0.00    +0.000 NA
ATOM     30  C   UNL     1      44.673   2.345   8.337  0.00  0.00    +0.000 A 
ATOM     31  N   UNL     1      45.431   3.455   8.085  0.00  0.00    +0.000 N 
ATOM     32  C   UNL     1      45.561   4.488   8.981  0.00  0.00    +0.000 A 
ATOM     33  O   UNL     1      46.202   5.493   8.694  0.00  0.00    +0.000 OA
ATOM     34  C   UNL     1      44.861   4.291  10.235  0.00  0.00    +0.000 A 
ATOM     35  H   UNL     1      45.905   3.573   7.202  0.00  0.00    +0.000 HD
ENDBRANCH  22  25
ENDBRANCH  20  21
ENDBRANCH   6  20
TORSDOF 7
ENDMDL
