MODEL 1
REMARK VINA RESULT:    -7.717      0.000      0.000
REMARK INTER + INTRA:         -11.866
REMARK INTER:                 -10.875
REMARK INTRA:                  -0.991
REMARK UNBOUND:                -0.991
REMARK  Name = 
REMARK  8 active torsions:
REMARK  status: ('A' for Active; 'I' for Inactive)
REMARK    1  A    between atoms: C_1  and  O_2
REMARK    2  A    between atoms: O_2  and  C_3
REMARK    3  A    between atoms: C_8  and  C_9
REMARK    4  A    between atoms: N_11  and  C_12
REMARK    5  A    between atoms: C_12  and  C_13
REMARK    6  A    between atoms: C_16  and  C_17
REMARK    7  A    between atoms: C_17  and  N_18
REMARK    8  A    between atoms: C_19  and  C_21
REMARK                            x       y       z     vdW  Elec       q    Type
REMARK                         _______ _______ _______ _____ _____    ______ ____
ROOT
ATOM      1  C   UNL     1      45.229   4.280  12.855  0.00  0.00    +0.000 C 
ATOM      2  C   UNL     1      45.641   5.518  12.045  0.00  0.00    +0.000 C 
ATOM      3  C   UNL     1      46.309   6.585  12.909  0.00  0.00    +0.000 C 
ATOM      4  C   UNL     1      47.519   6.031  13.676  0.00  0.00    +0.000 C 
ATOM      5  C   UNL     1      47.101   4.804  14.503  0.00  0.00    +0.000 C 
ATOM      6  C   UNL     1      46.429   3.732  13.644  0.00  0.00    +0.000 C 
ENDROOT
BRANCH   1   7
ATOM      7  C   UNL     1      44.648   3.190  11.934  0.00  0.00    +0.000 C 
BRANCH   7  10
ATOM      8  C   UNL     1      44.949   2.306   9.638  0.00  0.00    +0.000 C 
ATOM      9  O   UNL     1      43.874   1.712   9.660  0.00  0.00    +0.000 OA
ATOM     10  N   UNL     1      45.409   3.029  10.714  0.00  0.00    +0.000 N 
ATOM     11  H   UNL     1      46.288   3.525  10.611  0.00  0.00    +0.000 HD
BRANCH   8  17
ATOM     12  C   UNL     1      45.991   3.390   7.534  0.00  0.00    +0.000 A 
ATOM     13  C   UNL     1      46.725   3.214   6.354  0.00  0.00    +0.000 A 
ATOM     14  C   UNL     1      47.268   1.974   6.020  0.00  0.00    +0.000 A 
ATOM     15  C   UNL     1      47.107   0.896   6.882  0.00  0.00    +0.000 A 
ATOM     16  C   UNL     1      46.378   1.053   8.059  0.00  0.00    +0.000 A 
ATOM     17  C   UNL     1      45.792   2.290   8.396  0.00  0.00    +0.000 A 
BRANCH  12  19
ATOM     18  C   UNL     1      46.382   5.447   8.659  0.00  0.00    +0.000 C 
ATOM     19  O   UNL     1      45.496   4.618   7.910  0.00  0.00    +0.000 OA
ENDBRANCH  12  19
ENDBRANCH   8  17
ENDBRANCH   7  10
ENDBRANCH   1   7
BRANCH   4  20
ATOM     20  C   UNL     1      48.155   7.097  14.590  0.00  0.00    +0.000 C 
BRANCH  20  21
ATOM     21  N   UNL     1      49.397   6.658  15.188  0.00  0.00    +0.000 N 
ATOM     22  C   UNL     1      49.513   6.390  16.531  0.00  0.00    +0.000 C 
ATOM     23  O   UNL     1      48.569   6.496  17.306  0.00  0.00    +0.000 OA
ATOM     24  H   UNL     1      50.239   6.769  14.638  0.00  0.00    +0.000 HD
BRANCH  22  25
ATOM     25  C   UNL     1      50.818   5.900  16.983  0.00  0.00    +0.000 A 
ATOM     26  C   UNL     1      51.894   6.773  17.083  0.00  0.00    +0.000 A 
ATOM     27  S   UNL     1      53.319   6.039  17.659  0.00  0.00    +0.000 S 
ATOM     28  C   UNL     1      52.562   4.516  17.750  0.00  0.00    +0.000 A 
ATOM     29  N   UNL     1      53.247   3.414  18.158  0.00  0.00    +0.000 NA
ATOM     30  C   UNL     1      52.554   2.322  18.148  0.00  0.00    +0.000 A 
ATOM     31  N   UNL     1      51.237   2.238  17.773  0.00  0.00    +0.000 N 
ATOM     32  C   UNL     1      50.500   3.323  17.372  0.00  0.00    +0.000 A 
ATOM     33  O   UNL     1      49.317   3.218  17.074  0.00  0.00    +0.000 OA
ATOM     34  C   UNL     1      51.238   4.575  17.361  0.00  0.00    +0.000 A 
ATOM     35  H   UNL     1      50.750   1.350  17.795  0.00  0.00    +0.000 HD
ENDBRANCH  22  25
ENDBRANCH  20  21
ENDBRANCH   4  20
TORSDOF 7
ENDMDL
MODEL 2
REMARK VINA RESULT:    -7.272      3.489      9.283
REMARK INTER + INTRA:         -11.238
REMARK INTER:                  -9.976
REMARK INTRA:                  -1.262
REMARK UNBOUND:                -0.991
REMARK  Name = 
REMARK  8 active torsions:
REMARK  status: ('A' for Active; 'I' for Inactive)
REMARK    1  A    between atoms: C_1  and  O_2
REMARK    2  A    between atoms: O_2  and  C_3
REMARK    3  A    between atoms: C_8  and  C_9
REMARK    4  A    between atoms: N_11  and  C_12
REMARK    5  A    between atoms: C_12  and  C_13
REMARK    6  A    between atoms: C_16  and  C_17
REMARK    7  A    between atoms: C_17  and  N_18
REMARK    8  A    between atoms: C_19  and  C_21
REMARK                            x       y       z     vdW  Elec       q    Type
REMARK                         _______ _______ _______ _____ _____    ______ ____
ROOT
ATOM      1  C   UNL     1      50.162   7.813  16.001  0.00  0.00    +0.000 C 
ATOM      2  C   UNL     1      49.289   6.640  15.531  0.00  0.00    +0.000 C 
ATOM      3  C   UNL     1      48.424   7.002  14.327  0.00  0.00    +0.000 C 
ATOM      4  C   UNL     1      49.262   7.534  13.155  0.00  0.00    +0.000 C 
ATOM      5  C   UNL     1      50.120   8.722  13.620  0.00  0.00    +0.000 C 
ATOM      6  C   UNL     1      50.988   8.367  14.828  0.00  0.00    +0.000 C 
ENDROOT
BRANCH   1   7
ATOM      7  C   UNL     1      51.089   7.381  17.154  0.00  0.00    +0.000 C 
BRANCH   7  10
ATOM      8  C   UNL     1      51.452   5.153  18.179  0.00  0.00    +0.000 C 
ATOM      9  O   UNL     1      51.183   5.561  19.306  0.00  0.00    +0.000 OA
ATOM     10  N   UNL     1      51.452   5.982  17.081  0.00  0.00    +0.000 N 
ATOM     11  H   UNL     1      51.649   5.570  16.176  0.00  0.00    +0.000 HD
BRANCH   8  17
ATOM     12  C   UNL     1      50.876   2.760  17.390  0.00  0.00    +0.000 A 
ATOM     13  C   UNL     1      51.254   1.412  17.328  0.00  0.00    +0.000 A 
ATOM     14  C   UNL     1      52.491   0.987  17.811  0.00  0.00    +0.000 A 
ATOM     15  C   UNL     1      53.381   1.914  18.338  0.00  0.00    +0.000 A 
ATOM     16  C   UNL     1      53.020   3.258  18.409  0.00  0.00    +0.000 A 
ATOM     17  C   UNL     1      51.760   3.701  17.958  0.00  0.00    +0.000 A 
BRANCH  12  19
ATOM     18  C   UNL     1      48.543   3.078  17.711  0.00  0.00    +0.000 C 
ATOM     19  O   UNL     1      49.685   3.209  16.867  0.00  0.00    +0.000 OA
ENDBRANCH  12  19
ENDBRANCH   8  17
ENDBRANCH   7  10
ENDBRANCH   1   7
BRANCH   4  20
ATOM     20  C   UNL     1      48.379   7.951  11.962  0.00  0.00    +0.000 C 
BRANCH  20  21
ATOM     21  N   UNL     1      47.617   6.851  11.414  0.00  0.00    +0.000 N 
ATOM     22  C   UNL     1      46.244   6.808  11.465  0.00  0.00    +0.000 C 
ATOM     23  O   UNL     1      45.577   7.705  11.970  0.00  0.00    +0.000 OA
ATOM     24  H   UNL     1      48.124   6.003  11.193  0.00  0.00    +0.000 HD
BRANCH  22  25
ATOM     25  C   UNL     1      45.608   5.656  10.819  0.00  0.00    +0.000 A 
ATOM     26  C   UNL     1      45.706   5.485   9.445  0.00  0.00    +0.000 A 
ATOM     27  S   UNL     1      44.939   4.075   8.875  0.00  0.00    +0.000 S 
ATOM     28  C   UNL     1      44.405   3.667  10.440  0.00  0.00    +0.000 A 
ATOM     29  N   UNL     1      43.653   2.556  10.658  0.00  0.00    +0.000 NA
ATOM     30  C   UNL     1      43.294   2.389  11.890  0.00  0.00    +0.000 A 
ATOM     31  N   UNL     1      43.628   3.231  12.920  0.00  0.00    +0.000 N 
ATOM     32  C   UNL     1      44.399   4.353  12.752  0.00  0.00    +0.000 A 
ATOM     33  O   UNL     1      44.704   5.067  13.700  0.00  0.00    +0.000 OA
ATOM     34  C   UNL     1      44.822   4.587  11.382  0.00  0.00    +0.000 A 
ATOM     35  H   UNL     1      43.318   3.039  13.865  0.00  0.00    +0.000 HD
ENDBRANCH  22  25
ENDBRANCH  20  21
ENDBRANCH   4  20
TORSDOF 7
ENDMDL
MODEL 3
REMARK VINA RESULT:    -6.959      2.340      3.343
REMARK INTER + INTRA:         -10.797
REMARK INTER:                  -9.997
REMARK INTRA:                  -0.801
REMARK UNBOUND:                -0.991
REMARK  Name = 
REMARK  8 active torsions:
REMARK  status: ('A' for Active; 'I' for Inactive)
REMARK    1  A    between atoms: C_1  and  O_2
REMARK    2  A    between atoms: O_2  and  C_3
REMARK    3  A    between atoms: C_8  and  C_9
REMARK    4  A    between atoms: N_11  and  C_12
REMARK    5  A    between atoms: C_12  and  C_13
REMARK    6  A    between atoms: C_16  and  C_17
REMARK    7  A    between atoms: C_17  and  N_18
REMARK    8  A    between atoms: C_19  and  C_21
REMARK                            x       y       z     vdW  Elec       q    Type
REMARK                         _______ _______ _______ _____ _____    ______ ____
ROOT
ATOM      1  C   UNL     1      46.337   7.704  12.816  0.00  0.00    +0.000 C 
ATOM      2  C   UNL     1      47.331   8.710  12.217  0.00  0.00    +0.000 C 
ATOM      3  C   UNL     1      48.550   8.928  13.109  0.00  0.00    +0.000 C 
ATOM      4  C   UNL     1      49.269   7.610  13.434  0.00  0.00    +0.000 C 
ATOM      5  C   UNL     1      48.278   6.611  14.054  0.00  0.00    +0.000 C 
ATOM      6  C   UNL     1      47.052   6.389  13.167  0.00  0.00    +0.000 C 
ENDROOT
BRANCH   1   7
ATOM      7  C   UNL     1      45.171   7.439  11.845  0.00  0.00    +0.000 C 
BRANCH   7  10
ATOM      8  C   UNL     1      44.284   5.468  10.631  0.00  0.00    +0.000 C 
ATOM      9  O   UNL     1      43.117   5.769  10.871  0.00  0.00    +0.000 OA
ATOM     10  N   UNL     1      45.342   6.217  11.090  0.00  0.00    +0.000 N 
ATOM     11  H   UNL     1      46.278   5.929  10.823  0.00  0.00    +0.000 HD
BRANCH   8  17
ATOM     12  C   UNL     1      44.133   2.958  10.030  0.00  0.00    +0.000 A 
ATOM     13  C   UNL     1      44.574   1.910   9.211  0.00  0.00    +0.000 A 
ATOM     14  C   UNL     1      45.451   2.141   8.152  0.00  0.00    +0.000 A 
ATOM     15  C   UNL     1      45.878   3.435   7.881  0.00  0.00    +0.000 A 
ATOM     16  C   UNL     1      45.451   4.489   8.686  0.00  0.00    +0.000 A 
ATOM     17  C   UNL     1      44.592   4.269   9.782  0.00  0.00    +0.000 A 
BRANCH  12  19
ATOM     18  C   UNL     1      43.768   2.609  12.352  0.00  0.00    +0.000 C 
ATOM     19  O   UNL     1      43.223   2.760  11.043  0.00  0.00    +0.000 OA
ENDBRANCH  12  19
ENDBRANCH   8  17
ENDBRANCH   7  10
ENDBRANCH   1   7
BRANCH   4  20
ATOM     20  C   UNL     1      50.465   7.829  14.382  0.00  0.00    +0.000 C 
BRANCH  20  21
ATOM     21  N   UNL     1      50.140   7.573  15.768  0.00  0.00    +0.000 N 
ATOM     22  C   UNL     1      50.998   6.913  16.615  0.00  0.00    +0.000 C 
ATOM     23  O   UNL     1      52.098   6.509  16.253  0.00  0.00    +0.000 OA
ATOM     24  H   UNL     1      49.174   7.688  16.044  0.00  0.00    +0.000 HD
BRANCH  22  25
ATOM     25  C   UNL     1      50.556   6.776  18.006  0.00  0.00    +0.000 A 
ATOM     26  C   UNL     1      50.792   7.797  18.916  0.00  0.00    +0.000 A 
ATOM     27  S   UNL     1      50.176   7.480  20.473  0.00  0.00    +0.000 S 
ATOM     28  C   UNL     1      49.615   5.944  19.998  0.00  0.00    +0.000 A 
ATOM     29  N   UNL     1      48.995   5.118  20.882  0.00  0.00    +0.000 NA
ATOM     30  C   UNL     1      48.650   3.973  20.390  0.00  0.00    +0.000 A 
ATOM     31  N   UNL     1      48.865   3.586  19.092  0.00  0.00    +0.000 N 
ATOM     32  C   UNL     1      49.469   4.390  18.159  0.00  0.00    +0.000 A 
ATOM     33  O   UNL     1      49.617   4.025  16.999  0.00  0.00    +0.000 OA
ATOM     34  C   UNL     1      49.881   5.688  18.667  0.00  0.00    +0.000 A 
ATOM     35  H   UNL     1      48.564   2.675  18.768  0.00  0.00    +0.000 HD
ENDBRANCH  22  25
ENDBRANCH  20  21
ENDBRANCH   4  20
TORSDOF 7
ENDMDL
MODEL 4
REMARK VINA RESULT:    -6.894      2.203      4.062
REMARK INTER + INTRA:         -10.706
REMARK INTER:                  -9.369
REMARK INTRA:                  -1.337
REMARK UNBOUND:                -0.991
REMARK  Name = 
REMARK  8 active torsions:
REMARK  status: ('A' for Active; 'I' for Inactive)
REMARK    1  A    between atoms: C_1  and  O_2
REMARK    2  A    between atoms: O_2  and  C_3
REMARK    3  A    between atoms: C_8  and  C_9
REMARK    4  A    between atoms: N_11  and  C_12
REMARK    5  A    between atoms: C_12  and  C_13
REMARK    6  A    between atoms: C_16  and  C_17
REMARK    7  A    between atoms: C_17  and  N_18
REMARK    8  A    between atoms: C_19  and  C_21
REMARK                            x       y       z     vdW  Elec       q    Type
REMARK                         _______ _______ _______ _____ _____    ______ ____
ROOT
ATOM      1  C   UNL     1      48.721   8.173  13.082  0.00  0.00    +0.000 C 
ATOM      2  C   UNL     1      48.965   6.831  13.789  0.00  0.00    +0.000 C 
ATOM      3  C   UNL     1      49.647   7.000  15.144  0.00  0.00    +0.000 C 
ATOM      4  C   UNL     1      48.867   7.947  16.068  0.00  0.00    +0.000 C 
ATOM      5  C   UNL     1      48.642   9.297  15.368  0.00  0.00    +0.000 C 
ATOM      6  C   UNL     1      47.961   9.136  14.009  0.00  0.00    +0.000 C 
ENDROOT
BRANCH   1   7
ATOM      7  C   UNL     1      47.947   7.968  11.766  0.00  0.00    +0.000 C 
BRANCH   7  10
ATOM      8  C   UNL     1      45.734   6.852  11.816  0.00  0.00    +0.000 C 
ATOM      9  O   UNL     1      45.128   7.920  11.858  0.00  0.00    +0.000 OA
ATOM     10  N   UNL     1      47.107   6.789  11.793  0.00  0.00    +0.000 N 
ATOM     11  H   UNL     1      47.539   5.874  11.721  0.00  0.00    +0.000 HD
BRANCH   8  17
ATOM     12  C   UNL     1      44.852   4.746  10.602  0.00  0.00    +0.000 A 
ATOM     13  C   UNL     1      44.033   3.609  10.650  0.00  0.00    +0.000 A 
ATOM     14  C   UNL     1      43.344   3.265  11.812  0.00  0.00    +0.000 A 
ATOM     15  C   UNL     1      43.489   4.041  12.955  0.00  0.00    +0.000 A 
ATOM     16  C   UNL     1      44.298   5.175  12.925  0.00  0.00    +0.000 A 
ATOM     17  C   UNL     1      44.975   5.558  11.749  0.00  0.00    +0.000 A 
BRANCH  12  19
ATOM     18  C   UNL     1      45.533   4.136   8.409  0.00  0.00    +0.000 C 
ATOM     19  O   UNL     1      45.586   5.071   9.484  0.00  0.00    +0.000 OA
ENDBRANCH  12  19
ENDBRANCH   8  17
ENDBRANCH   7  10
ENDBRANCH   1   7
BRANCH   4  20
ATOM     20  C   UNL     1      49.590   8.159  17.413  0.00  0.00    +0.000 C 
BRANCH  20  21
ATOM     21  N   UNL     1      50.527   7.101  17.721  0.00  0.00    +0.000 N 
ATOM     22  C   UNL     1      50.184   6.015  18.490  0.00  0.00    +0.000 C 
ATOM     23  O   UNL     1      49.059   5.868  18.955  0.00  0.00    +0.000 OA
ATOM     24  H   UNL     1      51.507   7.288  17.549  0.00  0.00    +0.000 HD
BRANCH  22  25
ATOM     25  C   UNL     1      51.222   4.997  18.672  0.00  0.00    +0.000 A 
ATOM     26  C   UNL     1      52.357   5.284  19.418  0.00  0.00    +0.000 A 
ATOM     27  S   UNL     1      53.435   3.972  19.553  0.00  0.00    +0.000 S 
ATOM     28  C   UNL     1      52.446   2.987  18.578  0.00  0.00    +0.000 A 
ATOM     29  N   UNL     1      52.808   1.712  18.272  0.00  0.00    +0.000 NA
ATOM     30  C   UNL     1      51.976   1.094  17.498  0.00  0.00    +0.000 A 
ATOM     31  N   UNL     1      50.813   1.636  17.012  0.00  0.00    +0.000 N 
ATOM     32  C   UNL     1      50.397   2.910  17.308  0.00  0.00    +0.000 A 
ATOM     33  O   UNL     1      49.337   3.351  16.883  0.00  0.00    +0.000 OA
ATOM     34  C   UNL     1      51.303   3.648  18.171  0.00  0.00    +0.000 A 
ATOM     35  H   UNL     1      50.201   1.094  16.415  0.00  0.00    +0.000 HD
ENDBRANCH  22  25
ENDBRANCH  20  21
ENDBRANCH   4  20
TORSDOF 7
ENDMDL
MODEL 5
REMARK VINA RESULT:    -6.859      2.973      9.704
REMARK INTER + INTRA:         -10.656
REMARK INTER:                  -9.544
REMARK INTRA:                  -1.112
REMARK UNBOUND:                -0.991
REMARK  Name = 
REMARK  8 active torsions:
REMARK  status: ('A' for Active; 'I' for Inactive)
REMARK    1  A    between atoms: C_1  and  O_2
REMARK    2  A    between atoms: O_2  and  C_3
REMARK    3  A    between atoms: C_8  and  C_9
REMARK    4  A    between atoms: N_11  and  C_12
REMARK    5  A    between atoms: C_12  and  C_13
REMARK    6  A    between atoms: C_16  and  C_17
REMARK    7  A    between atoms: C_17  and  N_18
REMARK    8  A    between atoms: C_19  and  C_21
REMARK                            x       y       z     vdW  Elec       q    Type
REMARK                         _______ _______ _______ _____ _____    ______ ____
ROOT
ATOM      1  C   UNL     1      50.247   7.187  15.138  0.00  0.00    +0.000 C 
ATOM      2  C   UNL     1      50.127   8.589  14.522  0.00  0.00    +0.000 C 
ATOM      3  C   UNL     1      49.145   8.630  13.354  0.00  0.00    +0.000 C 
ATOM      4  C   UNL     1      47.756   8.108  13.750  0.00  0.00    +0.000 C 
ATOM      5  C   UNL     1      47.875   6.697  14.347  0.00  0.00    +0.000 C 
ATOM      6  C   UNL     1      48.858   6.647  15.517  0.00  0.00    +0.000 C 
ENDROOT
BRANCH   1   7
ATOM      7  C   UNL     1      51.171   7.207  16.372  0.00  0.00    +0.000 C 
BRANCH   7  10
ATOM      8  C   UNL     1      51.212   5.075  17.635  0.00  0.00    +0.000 C 
ATOM      9  O   UNL     1      50.263   5.404  18.341  0.00  0.00    +0.000 OA
ATOM     10  N   UNL     1      51.730   5.905  16.669  0.00  0.00    +0.000 N 
ATOM     11  H   UNL     1      52.491   5.553  16.099  0.00  0.00    +0.000 HD
BRANCH   8  17
ATOM     12  C   UNL     1      53.156   3.459  18.181  0.00  0.00    +0.000 A 
ATOM     13  C   UNL     1      53.630   2.140  18.190  0.00  0.00    +0.000 A 
ATOM     14  C   UNL     1      52.809   1.075  17.821  0.00  0.00    +0.000 A 
ATOM     15  C   UNL     1      51.488   1.315  17.466  0.00  0.00    +0.000 A 
ATOM     16  C   UNL     1      51.000   2.620  17.450  0.00  0.00    +0.000 A 
ATOM     17  C   UNL     1      51.825   3.712  17.786  0.00  0.00    +0.000 A 
BRANCH  12  19
ATOM     18  C   UNL     1      55.135   4.735  17.863  0.00  0.00    +0.000 C 
ATOM     19  O   UNL     1      53.932   4.517  18.596  0.00  0.00    +0.000 OA
ENDBRANCH  12  19
ENDBRANCH   8  17
ENDBRANCH   7  10
ENDBRANCH   1   7
BRANCH   4  20
ATOM     20  C   UNL     1      46.785   8.098  12.552  0.00  0.00    +0.000 C 
BRANCH  20  21
ATOM     21  N   UNL     1      46.216   6.793  12.300  0.00  0.00    +0.000 N 
ATOM     22  C   UNL     1      45.044   6.623  11.602  0.00  0.00    +0.000 C 
ATOM     23  O   UNL     1      44.412   7.567  11.140  0.00  0.00    +0.000 OA
ATOM     24  H   UNL     1      46.577   6.019  12.842  0.00  0.00    +0.000 HD
BRANCH  22  25
ATOM     25  C   UNL     1      44.618   5.239  11.377  0.00  0.00    +0.000 A 
ATOM     26  C   UNL     1      43.880   4.571  12.345  0.00  0.00    +0.000 A 
ATOM     27  S   UNL     1      43.443   2.986  11.897  0.00  0.00    +0.000 S 
ATOM     28  C   UNL     1      44.267   3.119  10.413  0.00  0.00    +0.000 A 
ATOM     29  N   UNL     1      44.308   2.081   9.536  0.00  0.00    +0.000 NA
ATOM     30  C   UNL     1      44.994   2.314   8.465  0.00  0.00    +0.000 A 
ATOM     31  N   UNL     1      45.635   3.496   8.192  0.00  0.00    +0.000 N 
ATOM     32  C   UNL     1      45.607   4.577   9.036  0.00  0.00    +0.000 A 
ATOM     33  O   UNL     1      46.164   5.629   8.747  0.00  0.00    +0.000 OA
ATOM     34  C   UNL     1      44.851   4.362  10.258  0.00  0.00    +0.000 A 
ATOM     35  H   UNL     1      46.152   3.616   7.330  0.00  0.00    +0.000 HD
ENDBRANCH  22  25
ENDBRANCH  20  21
ENDBRANCH   4  20
TORSDOF 7
ENDMDL
MODEL 6
REMARK VINA RESULT:    -6.736      3.928      9.415
REMARK INTER + INTRA:         -10.483
REMARK INTER:                  -9.302
REMARK INTRA:                  -1.181
REMARK UNBOUND:                -0.991
REMARK  Name = 
REMARK  8 active torsions:
REMARK  status: ('A' for Active; 'I' for Inactive)
REMARK    1  A    between atoms: C_1  and  O_2
REMARK    2  A    between atoms: O_2  and  C_3
REMARK    3  A    between atoms: C_8  and  C_9
REMARK    4  A    between atoms: N_11  and  C_12
REMARK    5  A    between atoms: C_12  and  C_13
REMARK    6  A    between atoms: C_16  and  C_17
REMARK    7  A    between atoms: C_17  and  N_18
REMARK    8  A    between atoms: C_19  and  C_21
REMARK                            x       y       z     vdW  Elec       q    Type
REMARK                         _______ _______ _______ _____ _____    ______ ____
ROOT
ATOM      1  C   UNL     1      49.924   4.654  17.188  0.00  0.00    +0.000 C 
ATOM      2  C   UNL     1      50.571   6.043  17.078  0.00  0.00    +0.000 C 
ATOM      3  C   UNL     1      50.171   6.773  15.798  0.00  0.00    +0.000 C 
ATOM      4  C   UNL     1      48.647   6.890  15.653  0.00  0.00    +0.000 C 
ATOM      5  C   UNL     1      48.003   5.497  15.742  0.00  0.00    +0.000 C 
ATOM      6  C   UNL     1      48.400   4.759  17.021  0.00  0.00    +0.000 C 
ENDROOT
BRANCH   1   7
ATOM      7  C   UNL     1      50.273   3.991  18.534  0.00  0.00    +0.000 C 
BRANCH   7  10
ATOM      8  C   UNL     1      51.736   2.156  17.735  0.00  0.00    +0.000 C 
ATOM      9  O   UNL     1      50.837   1.647  17.069  0.00  0.00    +0.000 OA
ATOM     10  N   UNL     1      51.536   3.284  18.495  0.00  0.00    +0.000 N 
ATOM     11  H   UNL     1      52.333   3.670  18.990  0.00  0.00    +0.000 HD
BRANCH   8  17
ATOM     12  C   UNL     1      54.307   2.296  17.500  0.00  0.00    +0.000 A 
ATOM     13  C   UNL     1      55.525   1.610  17.403  0.00  0.00    +0.000 A 
ATOM     14  C   UNL     1      55.581   0.221  17.515  0.00  0.00    +0.000 A 
ATOM     15  C   UNL     1      54.418  -0.499  17.756  0.00  0.00    +0.000 A 
ATOM     16  C   UNL     1      53.198   0.167  17.854  0.00  0.00    +0.000 A 
ATOM     17  C   UNL     1      53.117   1.567  17.708  0.00  0.00    +0.000 A 
BRANCH  12  19
ATOM     18  C   UNL     1      54.943   4.369  18.473  0.00  0.00    +0.000 C 
ATOM     19  O   UNL     1      54.237   3.670  17.450  0.00  0.00    +0.000 OA
ENDBRANCH  12  19
ENDBRANCH   8  17
ENDBRANCH   7  10
ENDBRANCH   1   7
BRANCH   4  20
ATOM     20  C   UNL     1      48.248   7.577  14.332  0.00  0.00    +0.000 C 
BRANCH  20  21
ATOM     21  N   UNL     1      47.000   7.082  13.794  0.00  0.00    +0.000 N 
ATOM     22  C   UNL     1      46.806   6.883  12.448  0.00  0.00    +0.000 C 
ATOM     23  O   UNL     1      47.682   7.102  11.618  0.00  0.00    +0.000 OA
ATOM     24  H   UNL     1      46.194   7.100  14.406  0.00  0.00    +0.000 HD
BRANCH  22  25
ATOM     25  C   UNL     1      45.509   6.325  12.056  0.00  0.00    +0.000 A 
ATOM     26  C   UNL     1      44.528   7.150  11.523  0.00  0.00    +0.000 A 
ATOM     27  S   UNL     1      43.101   6.324  11.091  0.00  0.00    +0.000 S 
ATOM     28  C   UNL     1      43.726   4.841  11.647  0.00  0.00    +0.000 A 
ATOM     29  N   UNL     1      42.987   3.701  11.590  0.00  0.00    +0.000 NA
ATOM     30  C   UNL     1      43.578   2.658  12.075  0.00  0.00    +0.000 A 
ATOM     31  N   UNL     1      44.844   2.654  12.605  0.00  0.00    +0.000 N 
ATOM     32  C   UNL     1      45.634   3.774  12.668  0.00  0.00    +0.000 A 
ATOM     33  O   UNL     1      46.772   3.729  13.118  0.00  0.00    +0.000 OA
ATOM     34  C   UNL     1      45.011   4.975  12.139  0.00  0.00    +0.000 A 
ATOM     35  H   UNL     1      45.251   1.800  12.964  0.00  0.00    +0.000 HD
ENDBRANCH  22  25
ENDBRANCH  20  21
ENDBRANCH   4  20
TORSDOF 7
ENDMDL
MODEL 7
REMARK VINA RESULT:    -6.355      3.096      4.384
REMARK INTER + INTRA:          -9.946
REMARK INTER:                  -8.370
REMARK INTRA:                  -1.576
REMARK UNBOUND:                -0.991
REMARK  Name = 
REMARK  8 active torsions:
REMARK  status: ('A' for Active; 'I' for Inactive)
REMARK    1  A    between atoms: C_1  and  O_2
REMARK    2  A    between atoms: O_2  and  C_3
REMARK    3  A    between atoms: C_8  and  C_9
REMARK    4  A    between atoms: N_11  and  C_12
REMARK    5  A    between atoms: C_12  and  C_13
REMARK    6  A    between atoms: C_16  and  C_17
REMARK    7  A    between atoms: C_17  and  N_18
REMARK    8  A    between atoms: C_19  and  C_21
REMARK                            x       y       z     vdW  Elec       q    Type
REMARK                         _______ _______ _______ _____ _____    ______ ____
ROOT
ATOM      1  C   UNL     1      48.480   7.945  13.036  0.00  0.00    +0.000 C 
ATOM      2  C   UNL     1      47.877   9.150  13.775  0.00  0.00    +0.000 C 
ATOM      3  C   UNL     1      48.345   9.238  15.225  0.00  0.00    +0.000 C 
ATOM      4  C   UNL     1      49.876   9.266  15.336  0.00  0.00    +0.000 C 
ATOM      5  C   UNL     1      50.478   8.049  14.615  0.00  0.00    +0.000 C 
ATOM      6  C   UNL     1      50.013   7.952  13.162  0.00  0.00    +0.000 C 
ENDROOT
BRANCH   1   7
ATOM      7  C   UNL     1      48.062   7.945  11.553  0.00  0.00    +0.000 C 
BRANCH   7  10
ATOM      8  C   UNL     1      45.997   6.629  11.171  0.00  0.00    +0.000 C 
ATOM      9  O   UNL     1      45.270   7.549  11.538  0.00  0.00    +0.000 OA
ATOM     10  N   UNL     1      47.368   6.734  11.171  0.00  0.00    +0.000 N 
ATOM     11  H   UNL     1      47.904   5.947  10.821  0.00  0.00    +0.000 HD
BRANCH   8  17
ATOM     12  C   UNL     1      44.695   4.414  11.459  0.00  0.00    +0.000 A 
ATOM     13  C   UNL     1      44.265   3.211  10.882  0.00  0.00    +0.000 A 
ATOM     14  C   UNL     1      44.511   2.927   9.539  0.00  0.00    +0.000 A 
ATOM     15  C   UNL     1      45.167   3.860   8.746  0.00  0.00    +0.000 A 
ATOM     16  C   UNL     1      45.602   5.060   9.304  0.00  0.00    +0.000 A 
ATOM     17  C   UNL     1      45.394   5.350  10.667  0.00  0.00    +0.000 A 
BRANCH  12  19
ATOM     18  C   UNL     1      43.030   4.862  13.095  0.00  0.00    +0.000 C 
ATOM     19  O   UNL     1      44.412   4.738  12.766  0.00  0.00    +0.000 OA
ENDBRANCH  12  19
ENDBRANCH   8  17
ENDBRANCH   7  10
ENDBRANCH   1   7
BRANCH   4  20
ATOM     20  C   UNL     1      50.344   9.298  16.806  0.00  0.00    +0.000 C 
BRANCH  20  21
ATOM     21  N   UNL     1      50.100   8.053  17.501  0.00  0.00    +0.000 N 
ATOM     22  C   UNL     1      49.086   7.908  18.418  0.00  0.00    +0.000 C 
ATOM     23  O   UNL     1      48.318   8.822  18.697  0.00  0.00    +0.000 OA
ATOM     24  H   UNL     1      50.831   7.354  17.468  0.00  0.00    +0.000 HD
BRANCH  22  25
ATOM     25  C   UNL     1      48.926   6.573  19.001  0.00  0.00    +0.000 A 
ATOM     26  C   UNL     1      49.109   6.381  20.364  0.00  0.00    +0.000 A 
ATOM     27  S   UNL     1      48.845   4.776  20.869  0.00  0.00    +0.000 S 
ATOM     28  C   UNL     1      48.524   4.269  19.275  0.00  0.00    +0.000 A 
ATOM     29  N   UNL     1      48.240   2.969  18.995  0.00  0.00    +0.000 NA
ATOM     30  C   UNL     1      48.048   2.724  17.740  0.00  0.00    +0.000 A 
ATOM     31  N   UNL     1      48.108   3.666  16.743  0.00  0.00    +0.000 N 
ATOM     32  C   UNL     1      48.372   4.992  16.979  0.00  0.00    +0.000 A 
ATOM     33  O   UNL     1      48.387   5.812  16.070  0.00  0.00    +0.000 OA
ATOM     34  C   UNL     1      48.602   5.316  18.376  0.00  0.00    +0.000 A 
ATOM     35  H   UNL     1      47.941   3.409  15.779  0.00  0.00    +0.000 HD
ENDBRANCH  22  25
ENDBRANCH  20  21
ENDBRANCH   4  20
TORSDOF 7
ENDMDL
MODEL 8
REMARK VINA RESULT:    -6.255      4.042      9.163
REMARK INTER + INTRA:          -9.805
REMARK INTER:                  -8.284
REMARK INTRA:                  -1.521
REMARK UNBOUND:                -0.991
REMARK  Name = 
REMARK  8 active torsions:
REMARK  status: ('A' for Active; 'I' for Inactive)
REMARK    1  A    between atoms: C_1  and  O_2
REMARK    2  A    between atoms: O_2  and  C_3
REMARK    3  A    between atoms: C_8  and  C_9
REMARK    4  A    between atoms: N_11  and  C_12
REMARK    5  A    between atoms: C_12  and  C_13
REMARK    6  A    between atoms: C_16  and  C_17
REMARK    7  A    between atoms: C_17  and  N_18
REMARK    8  A    between atoms: C_19  and  C_21
REMARK                            x       y       z     vdW  Elec       q    Type
REMARK                         _______ _______ _______ _____ _____    ______ ____
ROOT
ATOM      1  C   UNL     1      49.832   7.514  16.258  0.00  0.00    +0.000 C 
ATOM      2  C   UNL     1      50.671   7.602  14.974  0.00  0.00    +0.000 C 
ATOM      3  C   UNL     1      49.816   7.858  13.735  0.00  0.00    +0.000 C 
ATOM      4  C   UNL     1      48.948   9.116  13.884  0.00  0.00    +0.000 C 
ATOM      5  C   UNL     1      48.094   9.018  15.157  0.00  0.00    +0.000 C 
ATOM      6  C   UNL     1      48.942   8.760  16.403  0.00  0.00    +0.000 C 
ENDROOT
BRANCH   1   7
ATOM      7  C   UNL     1      50.736   7.352  17.495  0.00  0.00    +0.000 C 
BRANCH   7  10
ATOM      8  C   UNL     1      50.649   4.950  18.102  0.00  0.00    +0.000 C 
ATOM      9  O   UNL     1      49.514   5.045  18.561  0.00  0.00    +0.000 OA
ATOM     10  N   UNL     1      51.323   6.032  17.586  0.00  0.00    +0.000 N 
ATOM     11  H   UNL     1      52.244   5.874  17.191  0.00  0.00    +0.000 HD
BRANCH   8  17
ATOM     12  C   UNL     1      52.631   3.351  18.545  0.00  0.00    +0.000 A 
ATOM     13  C   UNL     1      53.191   2.080  18.355  0.00  0.00    +0.000 A 
ATOM     14  C   UNL     1      52.486   1.072  17.700  0.00  0.00    +0.000 A 
ATOM     15  C   UNL     1      51.194   1.315  17.250  0.00  0.00    +0.000 A 
ATOM     16  C   UNL     1      50.623   2.573  17.429  0.00  0.00    +0.000 A 
ATOM     17  C   UNL     1      51.334   3.615  18.058  0.00  0.00    +0.000 A 
BRANCH  12  19
ATOM     18  C   UNL     1      54.060   3.913  20.359  0.00  0.00    +0.000 C 
ATOM     19  O   UNL     1      53.288   4.341  19.240  0.00  0.00    +0.000 OA
ENDBRANCH  12  19
ENDBRANCH   8  17
ENDBRANCH   7  10
ENDBRANCH   1   7
BRANCH   4  20
ATOM     20  C   UNL     1      48.046   9.338  12.653  0.00  0.00    +0.000 C 
BRANCH  20  21
ATOM     21  N   UNL     1      47.212   8.194  12.353  0.00  0.00    +0.000 N 
ATOM     22  C   UNL     1      45.852   8.203  12.550  0.00  0.00    +0.000 C 
ATOM     23  O   UNL     1      45.257   9.185  12.982  0.00  0.00    +0.000 OA
ATOM     24  H   UNL     1      47.679   7.308  12.210  0.00  0.00    +0.000 HD
BRANCH  22  25
ATOM     25  C   UNL     1      45.132   6.991  12.149  0.00  0.00    +0.000 A 
ATOM     26  C   UNL     1      43.992   7.086  11.362  0.00  0.00    +0.000 A 
ATOM     27  S   UNL     1      43.310   5.576  10.963  0.00  0.00    +0.000 S 
ATOM     28  C   UNL     1      44.486   4.743  11.870  0.00  0.00    +0.000 A 
ATOM     29  N   UNL     1      44.467   3.388  11.970  0.00  0.00    +0.000 NA
ATOM     30  C   UNL     1      45.401   2.895  12.715  0.00  0.00    +0.000 A 
ATOM     31  N   UNL     1      46.357   3.638  13.362  0.00  0.00    +0.000 N 
ATOM     32  C   UNL     1      46.428   5.006  13.276  0.00  0.00    +0.000 A 
ATOM     33  O   UNL     1      47.314   5.636  13.840  0.00  0.00    +0.000 OA
ATOM     34  C   UNL     1      45.394   5.607  12.453  0.00  0.00    +0.000 A 
ATOM     35  H   UNL     1      47.066   3.188  13.926  0.00  0.00    +0.000 HD
ENDBRANCH  22  25
ENDBRANCH  20  21
ENDBRANCH   4  20
TORSDOF 7
ENDMDL
MODEL 9
REMARK VINA RESULT:    -6.008      4.256      9.160
REMARK INTER + INTRA:          -9.457
REMARK INTER:                  -7.632
REMARK INTRA:                  -1.824
REMARK UNBOUND:                -0.991
REMARK  Name = 
REMARK  8 active torsions:
REMARK  status: ('A' for Active; 'I' for Inactive)
REMARK    1  A    between atoms: C_1  and  O_2
REMARK    2  A    between atoms: O_2  and  C_3
REMARK    3  A    between atoms: C_8  and  C_9
REMARK    4  A    between atoms: N_11  and  C_12
REMARK    5  A    between atoms: C_12  and  C_13
REMARK    6  A    between atoms: C_16  and  C_17
REMARK    7  A    between atoms: C_17  and  N_18
REMARK    8  A    between atoms: C_19  and  C_21
REMARK                            x       y       z     vdW  Elec       q    Type
REMARK                         _______ _______ _______ _____ _____    ______ ____
ROOT
ATOM      1  C   UNL     1      50.885   5.513  18.370  0.00  0.00    +0.000 C 
ATOM      2  C   UNL     1      50.978   4.097  17.783  0.00  0.00    +0.000 C 
ATOM      3  C   UNL     1      49.606   3.471  17.549  0.00  0.00    +0.000 C 
ATOM      4  C   UNL     1      48.715   4.351  16.660  0.00  0.00    +0.000 C 
ATOM      5  C   UNL     1      48.605   5.763  17.259  0.00  0.00    +0.000 C 
ATOM      6  C   UNL     1      49.976   6.396  17.498  0.00  0.00    +0.000 C 
ENDROOT
BRANCH   1   7
ATOM      7  C   UNL     1      52.283   6.147  18.501  0.00  0.00    +0.000 C 
BRANCH   7  10
ATOM      8  C   UNL     1      53.526   6.561  16.396  0.00  0.00    +0.000 C 
ATOM      9  O   UNL     1      54.121   5.488  16.465  0.00  0.00    +0.000 OA
ATOM     10  N   UNL     1      52.632   6.966  17.359  0.00  0.00    +0.000 N 
ATOM     11  H   UNL     1      52.150   7.847  17.219  0.00  0.00    +0.000 HD
BRANCH   8  17
ATOM     12  C   UNL     1      52.706   8.007  14.415  0.00  0.00    +0.000 A 
ATOM     13  C   UNL     1      53.042   8.757  13.281  0.00  0.00    +0.000 A 
ATOM     14  C   UNL     1      54.374   8.981  12.932  0.00  0.00    +0.000 A 
ATOM     15  C   UNL     1      55.390   8.479  13.734  0.00  0.00    +0.000 A 
ATOM     16  C   UNL     1      55.074   7.728  14.865  0.00  0.00    +0.000 A 
ATOM     17  C   UNL     1      53.734   7.462  15.214  0.00  0.00    +0.000 A 
BRANCH  12  19
ATOM     18  C   UNL     1      50.582   8.991  14.826  0.00  0.00    +0.000 C 
ATOM     19  O   UNL     1      51.401   7.823  14.809  0.00  0.00    +0.000 OA
ENDBRANCH  12  19
ENDBRANCH   8  17
ENDBRANCH   7  10
ENDBRANCH   1   7
BRANCH   4  20
ATOM     20  C   UNL     1      47.311   3.742  16.474  0.00  0.00    +0.000 C 
BRANCH  20  21
ATOM     21  N   UNL     1      46.537   4.413  15.452  0.00  0.00    +0.000 N 
ATOM     22  C   UNL     1      46.657   4.105  14.117  0.00  0.00    +0.000 C 
ATOM     23  O   UNL     1      47.420   3.236  13.709  0.00  0.00    +0.000 OA
ATOM     24  H   UNL     1      46.070   5.271  15.715  0.00  0.00    +0.000 HD
BRANCH  22  25
ATOM     25  C   UNL     1      45.769   4.829  13.204  0.00  0.00    +0.000 A 
ATOM     26  C   UNL     1      44.758   4.154  12.533  0.00  0.00    +0.000 A 
ATOM     27  S   UNL     1      43.803   5.161  11.545  0.00  0.00    +0.000 S 
ATOM     28  C   UNL     1      44.738   6.528  11.940  0.00  0.00    +0.000 A 
ATOM     29  N   UNL     1      44.464   7.746  11.402  0.00  0.00    +0.000 NA
ATOM     30  C   UNL     1      45.274   8.685  11.768  0.00  0.00    +0.000 A 
ATOM     31  N   UNL     1      46.328   8.513  12.629  0.00  0.00    +0.000 N 
ATOM     32  C   UNL     1      46.633   7.309  13.211  0.00  0.00    +0.000 A 
ATOM     33  O   UNL     1      47.562   7.198  14.002  0.00  0.00    +0.000 OA
ATOM     34  C   UNL     1      45.752   6.220  12.826  0.00  0.00    +0.000 A 
ATOM     35  H   UNL     1      46.922   9.294  12.880  0.00  0.00    +0.000 HD
ENDBRANCH  22  25
ENDBRANCH  20  21
ENDBRANCH   4  20
TORSDOF 7
ENDMDL
