MODEL 1
REMARK VINA RESULT:    -7.476      0.000      0.000
REMARK INTER + INTRA:         -11.748
REMARK INTER:                 -10.536
REMARK INTRA:                  -1.212
REMARK UNBOUND:                -1.212
REMARK  Name = 
REMARK  7 active torsions:
REMARK  status: ('A' for Active; 'I' for Inactive)
REMARK    1  A    between atoms: C_2  and  C_20
REMARK    2  A    between atoms: N_3  and  C_4
REMARK    3  A    between atoms: C_4  and  C_5
REMARK    4  A    between atoms: C_8  and  C_9
REMARK    5  A    between atoms: C_9  and  N_10
REMARK    6  A    between atoms: N_10  and  C_11
REMARK    7  A    between atoms: C_11  and  C_12
REMARK                            x       y       z     vdW  Elec       q    Type
REMARK                         _______ _______ _______ _____ _____    ______ ____
ROOT
ATOM      1  C   UNL     1      46.380   6.686  12.481  0.00  0.00    +0.000 A 
ATOM      2  C   UNL     1      45.552   5.741  13.097  0.00  0.00    +0.000 A 
ATOM      3  C   UNL     1      44.797   4.855  12.330  0.00  0.00    +0.000 A 
ATOM      4  C   UNL     1      44.823   4.910  10.931  0.00  0.00    +0.000 A 
ATOM      5  C   UNL     1      45.697   5.820  10.317  0.00  0.00    +0.000 A 
ATOM      6  C   UNL     1      46.472   6.695  11.084  0.00  0.00    +0.000 A 
ENDROOT
BRANCH   1   7
ATOM      7  C   UNL     1      47.153   7.663  13.325  0.00  0.00    +0.000 C 
BRANCH   7  10
ATOM      8  O   UNL     1      49.759   7.017  14.161  0.00  0.00    +0.000 OA
ATOM      9  C   UNL     1      48.822   6.833  14.935  0.00  0.00    +0.000 C 
ATOM     10  N   UNL     1      47.522   7.095  14.597  0.00  0.00    +0.000 N 
ATOM     11  H   UNL     1      46.810   7.110  15.320  0.00  0.00    +0.000 HD
BRANCH   9  12
ATOM     12  C   UNL     1      49.041   6.262  16.268  0.00  0.00    +0.000 A 
ATOM     13  C   UNL     1      49.780   6.967  17.208  0.00  0.00    +0.000 A 
ATOM     14  S   UNL     1      49.910   6.168  18.710  0.00  0.00    +0.000 S 
ATOM     15  C   UNL     1      48.953   4.870  18.164  0.00  0.00    +0.000 A 
ATOM     16  N   UNL     1      48.626   3.841  18.992  0.00  0.00    +0.000 NA
ATOM     17  C   UNL     1      47.863   2.951  18.459  0.00  0.00    +0.000 A 
ATOM     18  N   UNL     1      47.410   2.980  17.164  0.00  0.00    +0.000 N 
ATOM     19  C   UNL     1      47.789   3.952  16.265  0.00  0.00    +0.000 A 
ATOM     20  O   UNL     1      47.507   3.861  15.076  0.00  0.00    +0.000 OA
ATOM     21  C   UNL     1      48.584   5.019  16.840  0.00  0.00    +0.000 A 
ATOM     22  H   UNL     1      46.853   2.225  16.797  0.00  0.00    +0.000 HD
ENDBRANCH   9  12
ENDBRANCH   7  10
ENDBRANCH   1   7
BRANCH   4  23
ATOM     23  C   UNL     1      43.980   3.998  10.063  0.00  0.00    +0.000 C 
BRANCH  23  24
ATOM     24  N   UNL     1      43.956   4.318   8.636  0.00  0.00    +0.000 NA
ATOM     25  H   UNL     1      44.420   5.210   8.482  0.00  0.00    +0.000 HD
BRANCH  24  26
ATOM     26  C   UNL     1      44.549   3.283   7.784  0.00  0.00    +0.000 C 
BRANCH  26  27
ATOM     27  C   UNL     1      46.054   3.161   8.102  0.00  0.00    +0.000 C 
ATOM     28  C   UNL     1      46.953   3.741   6.994  0.00  0.00    +0.000 C 
ATOM     29  C   UNL     1      47.114   2.805   5.798  0.00  0.00    +0.000 C 
ATOM     30  N   UNL     1      47.531   1.459   6.197  0.00  0.00    +0.000 NA
ATOM     31  C   UNL     1      46.563   0.870   7.121  0.00  0.00    +0.000 C 
ATOM     32  C   UNL     1      46.446   1.704   8.394  0.00  0.00    +0.000 C 
ATOM     33  H   UNL     1      48.436   1.521   6.665  0.00  0.00    +0.000 HD
ENDBRANCH  26  27
ENDBRANCH  24  26
ENDBRANCH  23  24
ENDBRANCH   4  23
TORSDOF 7
ENDMDL
MODEL 2
REMARK VINA RESULT:    -6.834      1.719      2.319
REMARK INTER + INTRA:         -10.843
REMARK INTER:                  -9.667
REMARK INTRA:                  -1.176
REMARK UNBOUND:                -1.212
REMARK  Name = 
REMARK  7 active torsions:
REMARK  status: ('A' for Active; 'I' for Inactive)
REMARK    1  A    between atoms: C_2  and  C_20
REMARK    2  A    between atoms: N_3  and  C_4
REMARK    3  A    between atoms: C_4  and  C_5
REMARK    4  A    between atoms: C_8  and  C_9
REMARK    5  A    between atoms: C_9  and  N_10
REMARK    6  A    between atoms: N_10  and  C_11
REMARK    7  A    between atoms: C_11  and  C_12
REMARK                            x       y       z     vdW  Elec       q    Type
REMARK                         _______ _______ _______ _____ _____    ______ ____
ROOT
ATOM      1  C   UNL     1      46.648   6.559  12.577  0.00  0.00    +0.000 A 
ATOM      2  C   UNL     1      45.978   5.494  13.190  0.00  0.00    +0.000 A 
ATOM      3  C   UNL     1      45.189   4.626  12.437  0.00  0.00    +0.000 A 
ATOM      4  C   UNL     1      45.023   4.817  11.059  0.00  0.00    +0.000 A 
ATOM      5  C   UNL     1      45.741   5.850  10.438  0.00  0.00    +0.000 A 
ATOM      6  C   UNL     1      46.550   6.709  11.188  0.00  0.00    +0.000 A 
ENDROOT
BRANCH   1   7
ATOM      7  C   UNL     1      47.459   7.511  13.414  0.00  0.00    +0.000 C 
BRANCH   7  10
ATOM      8  O   UNL     1      49.806   6.696  14.730  0.00  0.00    +0.000 OA
ATOM      9  C   UNL     1      48.747   6.713  15.355  0.00  0.00    +0.000 C 
ATOM     10  N   UNL     1      47.556   7.069  14.782  0.00  0.00    +0.000 N 
ATOM     11  H   UNL     1      46.752   7.252  15.373  0.00  0.00    +0.000 HD
BRANCH   9  12
ATOM     12  C   UNL     1      48.689   6.292  16.758  0.00  0.00    +0.000 A 
ATOM     13  C   UNL     1      48.950   4.971  17.095  0.00  0.00    +0.000 A 
ATOM     14  S   UNL     1      48.866   4.666  18.771  0.00  0.00    +0.000 S 
ATOM     15  C   UNL     1      48.513   6.297  19.105  0.00  0.00    +0.000 A 
ATOM     16  N   UNL     1      48.367   6.737  20.385  0.00  0.00    +0.000 NA
ATOM     17  C   UNL     1      48.144   8.001  20.492  0.00  0.00    +0.000 A 
ATOM     18  N   UNL     1      48.031   8.869  19.434  0.00  0.00    +0.000 N 
ATOM     19  C   UNL     1      48.080   8.453  18.123  0.00  0.00    +0.000 A 
ATOM     20  O   UNL     1      47.810   9.219  17.205  0.00  0.00    +0.000 OA
ATOM     21  C   UNL     1      48.409   7.052  17.951  0.00  0.00    +0.000 A 
ATOM     22  H   UNL     1      47.809   9.840  19.588  0.00  0.00    +0.000 HD
ENDBRANCH   9  12
ENDBRANCH   7  10
ENDBRANCH   1   7
BRANCH   4  23
ATOM     23  C   UNL     1      44.136   3.925  10.214  0.00  0.00    +0.000 C 
BRANCH  23  24
ATOM     24  N   UNL     1      44.031   4.284   8.800  0.00  0.00    +0.000 NA
ATOM     25  H   UNL     1      44.485   5.181   8.645  0.00  0.00    +0.000 HD
BRANCH  24  26
ATOM     26  C   UNL     1      44.576   3.275   7.888  0.00  0.00    +0.000 C 
BRANCH  26  27
ATOM     27  C   UNL     1      46.087   3.106   8.157  0.00  0.00    +0.000 C 
ATOM     28  C   UNL     1      46.967   3.730   7.059  0.00  0.00    +0.000 C 
ATOM     29  C   UNL     1      47.078   2.858   5.808  0.00  0.00    +0.000 C 
ATOM     30  N   UNL     1      47.477   1.485   6.121  0.00  0.00    +0.000 NA
ATOM     31  C   UNL     1      46.521   0.864   7.038  0.00  0.00    +0.000 C 
ATOM     32  C   UNL     1      46.456   1.628   8.357  0.00  0.00    +0.000 C 
ATOM     33  H   UNL     1      48.395   1.503   6.567  0.00  0.00    +0.000 HD
ENDBRANCH  26  27
ENDBRANCH  24  26
ENDBRANCH  23  24
ENDBRANCH   4  23
TORSDOF 7
ENDMDL
MODEL 3
REMARK VINA RESULT:    -6.832      2.863      8.404
REMARK INTER + INTRA:         -10.840
REMARK INTER:                  -9.211
REMARK INTRA:                  -1.629
REMARK UNBOUND:                -1.212
REMARK  Name = 
REMARK  7 active torsions:
REMARK  status: ('A' for Active; 'I' for Inactive)
REMARK    1  A    between atoms: C_2  and  C_20
REMARK    2  A    between atoms: N_3  and  C_4
REMARK    3  A    between atoms: C_4  and  C_5
REMARK    4  A    between atoms: C_8  and  C_9
REMARK    5  A    between atoms: C_9  and  N_10
REMARK    6  A    between atoms: N_10  and  C_11
REMARK    7  A    between atoms: C_11  and  C_12
REMARK                            x       y       z     vdW  Elec       q    Type
REMARK                         _______ _______ _______ _____ _____    ______ ____
ROOT
ATOM      1  C   UNL     1      48.317   8.080  13.084  0.00  0.00    +0.000 A 
ATOM      2  C   UNL     1      47.676   8.799  14.098  0.00  0.00    +0.000 A 
ATOM      3  C   UNL     1      48.243   8.888  15.369  0.00  0.00    +0.000 A 
ATOM      4  C   UNL     1      49.446   8.237  15.668  0.00  0.00    +0.000 A 
ATOM      5  C   UNL     1      50.115   7.565  14.633  0.00  0.00    +0.000 A 
ATOM      6  C   UNL     1      49.559   7.492  13.353  0.00  0.00    +0.000 A 
ENDROOT
BRANCH   1   7
ATOM      7  C   UNL     1      47.667   7.957  11.732  0.00  0.00    +0.000 C 
BRANCH   7  10
ATOM      8  O   UNL     1      44.887   7.578  11.903  0.00  0.00    +0.000 OA
ATOM      9  C   UNL     1      45.606   6.611  11.660  0.00  0.00    +0.000 C 
ATOM     10  N   UNL     1      46.970   6.704  11.586  0.00  0.00    +0.000 N 
ATOM     11  H   UNL     1      47.504   5.933  11.199  0.00  0.00    +0.000 HD
BRANCH   9  12
ATOM     12  C   UNL     1      45.039   5.270  11.484  0.00  0.00    +0.000 A 
ATOM     13  C   UNL     1      44.377   4.656  12.539  0.00  0.00    +0.000 A 
ATOM     14  S   UNL     1      43.758   3.115  12.150  0.00  0.00    +0.000 S 
ATOM     15  C   UNL     1      44.325   3.231  10.549  0.00  0.00    +0.000 A 
ATOM     16  N   UNL     1      44.081   2.246   9.643  0.00  0.00    +0.000 NA
ATOM     17  C   UNL     1      44.532   2.485   8.461  0.00  0.00    +0.000 A 
ATOM     18  N   UNL     1      45.226   3.613   8.100  0.00  0.00    +0.000 N 
ATOM     19  C   UNL     1      45.574   4.592   9.003  0.00  0.00    +0.000 A 
ATOM     20  O   UNL     1      46.335   5.501   8.690  0.00  0.00    +0.000 OA
ATOM     21  C   UNL     1      45.022   4.406  10.329  0.00  0.00    +0.000 A 
ATOM     22  H   UNL     1      45.591   3.715   7.166  0.00  0.00    +0.000 HD
ENDBRANCH   9  12
ENDBRANCH   7  10
ENDBRANCH   1   7
BRANCH   4  23
ATOM     23  C   UNL     1      50.069   8.270  17.048  0.00  0.00    +0.000 C 
BRANCH  23  24
ATOM     24  N   UNL     1      50.624   7.005  17.530  0.00  0.00    +0.000 NA
ATOM     25  H   UNL     1      51.352   7.195  18.214  0.00  0.00    +0.000 HD
BRANCH  24  26
ATOM     26  C   UNL     1      49.624   6.092  18.091  0.00  0.00    +0.000 C 
BRANCH  26  27
ATOM     27  C   UNL     1      49.443   4.887  17.144  0.00  0.00    +0.000 C 
ATOM     28  C   UNL     1      48.115   4.925  16.368  0.00  0.00    +0.000 C 
ATOM     29  C   UNL     1      46.917   4.469  17.201  0.00  0.00    +0.000 C 
ATOM     30  N   UNL     1      47.145   3.171  17.839  0.00  0.00    +0.000 NA
ATOM     31  C   UNL     1      48.323   3.220  18.705  0.00  0.00    +0.000 C 
ATOM     32  C   UNL     1      49.576   3.557  17.902  0.00  0.00    +0.000 C 
ATOM     33  H   UNL     1      47.301   2.471  17.112  0.00  0.00    +0.000 HD
ENDBRANCH  26  27
ENDBRANCH  24  26
ENDBRANCH  23  24
ENDBRANCH   4  23
TORSDOF 7
ENDMDL
MODEL 4
REMARK VINA RESULT:    -6.803      3.311      5.345
REMARK INTER + INTRA:         -10.799
REMARK INTER:                  -9.730
REMARK INTRA:                  -1.069
REMARK UNBOUND:                -1.212
REMARK  Name = 
REMARK  7 active torsions:
REMARK  status: ('A' for Active; 'I' for Inactive)
REMARK    1  A    between atoms: C_2  and  C_20
REMARK    2  A    between atoms: N_3  and  C_4
REMARK    3  A    between atoms: C_4  and  C_5
REMARK    4  A    between atoms: C_8  and  C_9
REMARK    5  A    between atoms: C_9  and  N_10
REMARK    6  A    between atoms: N_10  and  C_11
REMARK    7  A    between atoms: C_11  and  C_12
REMARK                            x       y       z     vdW  Elec       q    Type
REMARK                         _______ _______ _______ _____ _____    ______ ____
ROOT
ATOM      1  C   UNL     1      47.789   4.195  16.297  0.00  0.00    +0.000 A 
ATOM      2  C   UNL     1      47.065   3.641  15.235  0.00  0.00    +0.000 A 
ATOM      3  C   UNL     1      46.849   4.372  14.069  0.00  0.00    +0.000 A 
ATOM      4  C   UNL     1      47.322   5.684  13.943  0.00  0.00    +0.000 A 
ATOM      5  C   UNL     1      48.096   6.216  14.986  0.00  0.00    +0.000 A 
ATOM      6  C   UNL     1      48.332   5.476  16.149  0.00  0.00    +0.000 A 
ENDROOT
BRANCH   1   7
ATOM      7  C   UNL     1      47.973   3.406  17.566  0.00  0.00    +0.000 C 
BRANCH   7  10
ATOM      8  O   UNL     1      49.658   1.645  16.166  0.00  0.00    +0.000 OA
ATOM      9  C   UNL     1      50.123   2.302  17.096  0.00  0.00    +0.000 C 
ATOM     10  N   UNL     1      49.365   3.161  17.845  0.00  0.00    +0.000 N 
ATOM     11  H   UNL     1      49.822   3.818  18.469  0.00  0.00    +0.000 HD
BRANCH   9  12
ATOM     12  C   UNL     1      51.527   2.161  17.496  0.00  0.00    +0.000 A 
ATOM     13  C   UNL     1      52.071   0.897  17.674  0.00  0.00    +0.000 A 
ATOM     14  S   UNL     1      53.720   0.920  18.111  0.00  0.00    +0.000 S 
ATOM     15  C   UNL     1      53.770   2.620  18.042  0.00  0.00    +0.000 A 
ATOM     16  N   UNL     1      54.928   3.299  18.264  0.00  0.00    +0.000 NA
ATOM     17  C   UNL     1      54.829   4.577  18.138  0.00  0.00    +0.000 A 
ATOM     18  N   UNL     1      53.672   5.247  17.830  0.00  0.00    +0.000 N 
ATOM     19  C   UNL     1      52.459   4.610  17.687  0.00  0.00    +0.000 A 
ATOM     20  O   UNL     1      51.418   5.247  17.580  0.00  0.00    +0.000 OA
ATOM     21  C   UNL     1      52.534   3.164  17.741  0.00  0.00    +0.000 A 
ATOM     22  H   UNL     1      53.655   6.254  17.793  0.00  0.00    +0.000 HD
ENDBRANCH   9  12
ENDBRANCH   7  10
ENDBRANCH   1   7
BRANCH   4  23
ATOM     23  C   UNL     1      47.066   6.528  12.711  0.00  0.00    +0.000 C 
BRANCH  23  24
ATOM     24  N   UNL     1      45.716   6.451  12.152  0.00  0.00    +0.000 NA
ATOM     25  H   UNL     1      45.380   7.391  11.955  0.00  0.00    +0.000 HD
BRANCH  24  26
ATOM     26  C   UNL     1      45.615   5.614  10.954  0.00  0.00    +0.000 C 
BRANCH  26  27
ATOM     27  C   UNL     1      44.133   5.268  10.696  0.00  0.00    +0.000 C 
ATOM     28  C   UNL     1      43.377   4.865  11.974  0.00  0.00    +0.000 C 
ATOM     29  C   UNL     1      43.653   3.425  12.408  0.00  0.00    +0.000 C 
ATOM     30  N   UNL     1      43.445   2.467  11.320  0.00  0.00    +0.000 NA
ATOM     31  C   UNL     1      44.307   2.783  10.182  0.00  0.00    +0.000 C 
ATOM     32  C   UNL     1      43.994   4.171   9.629  0.00  0.00    +0.000 C 
ATOM     33  H   UNL     1      42.472   2.519  11.019  0.00  0.00    +0.000 HD
ENDBRANCH  26  27
ENDBRANCH  24  26
ENDBRANCH  23  24
ENDBRANCH   4  23
TORSDOF 7
ENDMDL
MODEL 5
REMARK VINA RESULT:    -6.775      2.077      3.284
REMARK INTER + INTRA:         -10.759
REMARK INTER:                  -9.727
REMARK INTRA:                  -1.032
REMARK UNBOUND:                -1.212
REMARK  Name = 
REMARK  7 active torsions:
REMARK  status: ('A' for Active; 'I' for Inactive)
REMARK    1  A    between atoms: C_2  and  C_20
REMARK    2  A    between atoms: N_3  and  C_4
REMARK    3  A    between atoms: C_4  and  C_5
REMARK    4  A    between atoms: C_8  and  C_9
REMARK    5  A    between atoms: C_9  and  N_10
REMARK    6  A    between atoms: N_10  and  C_11
REMARK    7  A    between atoms: C_11  and  C_12
REMARK                            x       y       z     vdW  Elec       q    Type
REMARK                         _______ _______ _______ _____ _____    ______ ____
ROOT
ATOM      1  C   UNL     1      46.734   4.538  13.941  0.00  0.00    +0.000 A 
ATOM      2  C   UNL     1      47.311   5.739  13.513  0.00  0.00    +0.000 A 
ATOM      3  C   UNL     1      46.949   6.302  12.290  0.00  0.00    +0.000 A 
ATOM      4  C   UNL     1      46.027   5.666  11.449  0.00  0.00    +0.000 A 
ATOM      5  C   UNL     1      45.408   4.492  11.906  0.00  0.00    +0.000 A 
ATOM      6  C   UNL     1      45.754   3.937  13.142  0.00  0.00    +0.000 A 
ENDROOT
BRANCH   1   7
ATOM      7  C   UNL     1      47.171   3.923  15.243  0.00  0.00    +0.000 C 
BRANCH   7  10
ATOM      8  O   UNL     1      46.887   3.852  18.039  0.00  0.00    +0.000 OA
ATOM      9  C   UNL     1      47.487   4.794  17.525  0.00  0.00    +0.000 C 
ATOM     10  N   UNL     1      47.646   4.918  16.171  0.00  0.00    +0.000 N 
ATOM     11  H   UNL     1      48.303   5.599  15.804  0.00  0.00    +0.000 HD
BRANCH   9  12
ATOM     12  C   UNL     1      48.030   5.884  18.342  0.00  0.00    +0.000 A 
ATOM     13  C   UNL     1      47.218   6.521  19.270  0.00  0.00    +0.000 A 
ATOM     14  S   UNL     1      48.019   7.743  20.151  0.00  0.00    +0.000 S 
ATOM     15  C   UNL     1      49.487   7.437  19.344  0.00  0.00    +0.000 A 
ATOM     16  N   UNL     1      50.620   8.117  19.666  0.00  0.00    +0.000 NA
ATOM     17  C   UNL     1      51.665   7.754  19.006  0.00  0.00    +0.000 A 
ATOM     18  N   UNL     1      51.681   6.784  18.034  0.00  0.00    +0.000 N 
ATOM     19  C   UNL     1      50.541   6.135  17.613  0.00  0.00    +0.000 A 
ATOM     20  O   UNL     1      50.557   5.399  16.633  0.00  0.00    +0.000 OA
ATOM     21  C   UNL     1      49.354   6.453  18.381  0.00  0.00    +0.000 A 
ATOM     22  H   UNL     1      52.525   6.582  17.523  0.00  0.00    +0.000 HD
ENDBRANCH   9  12
ENDBRANCH   7  10
ENDBRANCH   1   7
BRANCH   4  23
ATOM     23  C   UNL     1      45.644   6.220  10.093  0.00  0.00    +0.000 C 
BRANCH  23  24
ATOM     24  N   UNL     1      45.161   5.243   9.116  0.00  0.00    +0.000 NA
ATOM     25  H   UNL     1      44.447   5.674   8.533  0.00  0.00    +0.000 HD
BRANCH  24  26
ATOM     26  C   UNL     1      46.217   4.664   8.282  0.00  0.00    +0.000 C 
BRANCH  26  27
ATOM     27  C   UNL     1      45.600   3.618   7.328  0.00  0.00    +0.000 C 
ATOM     28  C   UNL     1      44.893   2.470   8.071  0.00  0.00    +0.000 C 
ATOM     29  C   UNL     1      45.859   1.422   8.619  0.00  0.00    +0.000 C 
ATOM     30  N   UNL     1      46.784   0.929   7.596  0.00  0.00    +0.000 NA
ATOM     31  C   UNL     1      47.564   2.029   7.030  0.00  0.00    +0.000 C 
ATOM     32  C   UNL     1      46.653   3.055   6.361  0.00  0.00    +0.000 C 
ATOM     33  H   UNL     1      46.244   0.491   6.849  0.00  0.00    +0.000 HD
ENDBRANCH  26  27
ENDBRANCH  24  26
ENDBRANCH  23  24
ENDBRANCH   4  23
TORSDOF 7
ENDMDL
MODEL 6
REMARK VINA RESULT:    -6.733      2.753      3.614
REMARK INTER + INTRA:         -10.700
REMARK INTER:                  -9.168
REMARK INTRA:                  -1.531
REMARK UNBOUND:                -1.212
REMARK  Name = 
REMARK  7 active torsions:
REMARK  status: ('A' for Active; 'I' for Inactive)
REMARK    1  A    between atoms: C_2  and  C_20
REMARK    2  A    between atoms: N_3  and  C_4
REMARK    3  A    between atoms: C_4  and  C_5
REMARK    4  A    between atoms: C_8  and  C_9
REMARK    5  A    between atoms: C_9  and  N_10
REMARK    6  A    between atoms: N_10  and  C_11
REMARK    7  A    between atoms: C_11  and  C_12
REMARK                            x       y       z     vdW  Elec       q    Type
REMARK                         _______ _______ _______ _____ _____    ______ ____
ROOT
ATOM      1  C   UNL     1      48.329   8.125  13.137  0.00  0.00    +0.000 A 
ATOM      2  C   UNL     1      47.955   7.042  12.335  0.00  0.00    +0.000 A 
ATOM      3  C   UNL     1      46.707   7.018  11.715  0.00  0.00    +0.000 A 
ATOM      4  C   UNL     1      45.788   8.058  11.905  0.00  0.00    +0.000 A 
ATOM      5  C   UNL     1      46.188   9.169  12.663  0.00  0.00    +0.000 A 
ATOM      6  C   UNL     1      47.448   9.205  13.268  0.00  0.00    +0.000 A 
ENDROOT
BRANCH   1   7
ATOM      7  C   UNL     1      49.663   8.112  13.834  0.00  0.00    +0.000 C 
BRANCH   7  10
ATOM      8  O   UNL     1      48.880   8.608  16.488  0.00  0.00    +0.000 OA
ATOM      9  C   UNL     1      49.265   7.481  16.181  0.00  0.00    +0.000 C 
ATOM     10  N   UNL     1      49.689   7.164  14.919  0.00  0.00    +0.000 N 
ATOM     11  H   UNL     1      49.815   6.190  14.663  0.00  0.00    +0.000 HD
BRANCH   9  12
ATOM     12  C   UNL     1      49.344   6.409  17.179  0.00  0.00    +0.000 A 
ATOM     13  C   UNL     1      50.103   6.589  18.327  0.00  0.00    +0.000 A 
ATOM     14  S   UNL     1      50.058   5.254  19.388  0.00  0.00    +0.000 S 
ATOM     15  C   UNL     1      48.996   4.406  18.364  0.00  0.00    +0.000 A 
ATOM     16  N   UNL     1      48.511   3.183  18.711  0.00  0.00    +0.000 NA
ATOM     17  C   UNL     1      47.685   2.677  17.862  0.00  0.00    +0.000 A 
ATOM     18  N   UNL     1      47.312   3.269  16.682  0.00  0.00    +0.000 N 
ATOM     19  C   UNL     1      47.847   4.461  16.247  0.00  0.00    +0.000 A 
ATOM     20  O   UNL     1      47.623   4.882  15.118  0.00  0.00    +0.000 OA
ATOM     21  C   UNL     1      48.721   5.109  17.205  0.00  0.00    +0.000 A 
ATOM     22  H   UNL     1      46.696   2.795  16.040  0.00  0.00    +0.000 HD
ENDBRANCH   9  12
ENDBRANCH   7  10
ENDBRANCH   1   7
BRANCH   4  23
ATOM     23  C   UNL     1      44.405   8.046  11.289  0.00  0.00    +0.000 C 
BRANCH  23  24
ATOM     24  N   UNL     1      43.480   7.041  11.814  0.00  0.00    +0.000 NA
ATOM     25  H   UNL     1      42.587   7.482  12.022  0.00  0.00    +0.000 HD
BRANCH  24  26
ATOM     26  C   UNL     1      43.285   5.891  10.927  0.00  0.00    +0.000 C 
BRANCH  26  27
ATOM     27  C   UNL     1      42.928   4.649  11.772  0.00  0.00    +0.000 C 
ATOM     28  C   UNL     1      43.510   4.703  13.196  0.00  0.00    +0.000 C 
ATOM     29  C   UNL     1      44.992   4.336  13.256  0.00  0.00    +0.000 C 
ATOM     30  N   UNL     1      45.277   3.063  12.592  0.00  0.00    +0.000 NA
ATOM     31  C   UNL     1      44.865   3.107  11.189  0.00  0.00    +0.000 C 
ATOM     32  C   UNL     1      43.364   3.353  11.070  0.00  0.00    +0.000 C 
ATOM     33  H   UNL     1      44.757   2.323  13.064  0.00  0.00    +0.000 HD
ENDBRANCH  26  27
ENDBRANCH  24  26
ENDBRANCH  23  24
ENDBRANCH   4  23
TORSDOF 7
ENDMDL
MODEL 7
REMARK VINA RESULT:    -6.696      4.572      9.371
REMARK INTER + INTRA:         -10.648
REMARK INTER:                  -9.848
REMARK INTRA:                  -0.800
REMARK UNBOUND:                -1.212
REMARK  Name = 
REMARK  7 active torsions:
REMARK  status: ('A' for Active; 'I' for Inactive)
REMARK    1  A    between atoms: C_2  and  C_20
REMARK    2  A    between atoms: N_3  and  C_4
REMARK    3  A    between atoms: C_4  and  C_5
REMARK    4  A    between atoms: C_8  and  C_9
REMARK    5  A    between atoms: C_9  and  N_10
REMARK    6  A    between atoms: N_10  and  C_11
REMARK    7  A    between atoms: C_11  and  C_12
REMARK                            x       y       z     vdW  Elec       q    Type
REMARK                         _______ _______ _______ _____ _____    ______ ____
ROOT
ATOM      1  C   UNL     1      48.665   3.500  17.103  0.00  0.00    +0.000 A 
ATOM      2  C   UNL     1      49.231   4.745  17.395  0.00  0.00    +0.000 A 
ATOM      3  C   UNL     1      50.587   4.852  17.700  0.00  0.00    +0.000 A 
ATOM      4  C   UNL     1      51.405   3.717  17.753  0.00  0.00    +0.000 A 
ATOM      5  C   UNL     1      50.847   2.477  17.405  0.00  0.00    +0.000 A 
ATOM      6  C   UNL     1      49.492   2.371  17.077  0.00  0.00    +0.000 A 
ENDROOT
BRANCH   1   7
ATOM      7  C   UNL     1      47.190   3.399  16.820  0.00  0.00    +0.000 C 
BRANCH   7  10
ATOM      8  O   UNL     1      47.181   3.068  14.028  0.00  0.00    +0.000 OA
ATOM      9  C   UNL     1      46.768   4.123  14.504  0.00  0.00    +0.000 C 
ATOM     10  N   UNL     1      46.764   4.376  15.849  0.00  0.00    +0.000 N 
ATOM     11  H   UNL     1      46.245   5.170  16.208  0.00  0.00    +0.000 HD
BRANCH   9  12
ATOM     12  C   UNL     1      46.299   5.213  13.641  0.00  0.00    +0.000 A 
ATOM     13  C   UNL     1      47.133   6.290  13.374  0.00  0.00    +0.000 A 
ATOM     14  S   UNL     1      46.438   7.447  12.331  0.00  0.00    +0.000 S 
ATOM     15  C   UNL     1      45.013   6.529  12.174  0.00  0.00    +0.000 A 
ATOM     16  N   UNL     1      44.000   6.935  11.361  0.00  0.00    +0.000 NA
ATOM     17  C   UNL     1      43.002   6.124  11.306  0.00  0.00    +0.000 A 
ATOM     18  N   UNL     1      42.909   4.947  12.007  0.00  0.00    +0.000 N 
ATOM     19  C   UNL     1      43.867   4.542  12.910  0.00  0.00    +0.000 A 
ATOM     20  O   UNL     1      43.679   3.577  13.642  0.00  0.00    +0.000 OA
ATOM     21  C   UNL     1      45.047   5.382  12.947  0.00  0.00    +0.000 A 
ATOM     22  H   UNL     1      42.077   4.381  11.954  0.00  0.00    +0.000 HD
ENDBRANCH   9  12
ENDBRANCH   7  10
ENDBRANCH   1   7
BRANCH   4  23
ATOM     23  C   UNL     1      52.871   3.785  18.129  0.00  0.00    +0.000 C 
BRANCH  23  24
ATOM     24  N   UNL     1      53.702   2.676  17.661  0.00  0.00    +0.000 NA
ATOM     25  H   UNL     1      54.502   3.046  17.152  0.00  0.00    +0.000 HD
BRANCH  24  26
ATOM     26  C   UNL     1      54.151   1.777  18.728  0.00  0.00    +0.000 C 
BRANCH  26  27
ATOM     27  C   UNL     1      55.349   0.944  18.224  0.00  0.00    +0.000 C 
ATOM     28  C   UNL     1      55.292   0.660  16.712  0.00  0.00    +0.000 C 
ATOM     29  C   UNL     1      54.333  -0.472  16.348  0.00  0.00    +0.000 C 
ATOM     30  N   UNL     1      54.583  -1.686  17.128  0.00  0.00    +0.000 NA
ATOM     31  C   UNL     1      54.462  -1.415  18.560  0.00  0.00    +0.000 C 
ATOM     32  C   UNL     1      55.482  -0.372  19.006  0.00  0.00    +0.000 C 
ATOM     33  H   UNL     1      55.532  -2.010  16.934  0.00  0.00    +0.000 HD
ENDBRANCH  26  27
ENDBRANCH  24  26
ENDBRANCH  23  24
ENDBRANCH   4  23
TORSDOF 7
ENDMDL
MODEL 8
REMARK VINA RESULT:    -6.646      2.066      2.423
REMARK INTER + INTRA:         -10.577
REMARK INTER:                  -9.854
REMARK INTRA:                  -0.723
REMARK UNBOUND:                -1.212
REMARK  Name = 
REMARK  7 active torsions:
REMARK  status: ('A' for Active; 'I' for Inactive)
REMARK    1  A    between atoms: C_2  and  C_20
REMARK    2  A    between atoms: N_3  and  C_4
REMARK    3  A    between atoms: C_4  and  C_5
REMARK    4  A    between atoms: C_8  and  C_9
REMARK    5  A    between atoms: C_9  and  N_10
REMARK    6  A    between atoms: N_10  and  C_11
REMARK    7  A    between atoms: C_11  and  C_12
REMARK                            x       y       z     vdW  Elec       q    Type
REMARK                         _______ _______ _______ _____ _____    ______ ____
ROOT
ATOM      1  C   UNL     1      47.550   6.706  13.798  0.00  0.00    +0.000 A 
ATOM      2  C   UNL     1      47.124   5.399  14.059  0.00  0.00    +0.000 A 
ATOM      3  C   UNL     1      46.332   4.715  13.138  0.00  0.00    +0.000 A 
ATOM      4  C   UNL     1      45.919   5.328  11.948  0.00  0.00    +0.000 A 
ATOM      5  C   UNL     1      46.395   6.617  11.663  0.00  0.00    +0.000 A 
ATOM      6  C   UNL     1      47.207   7.297  12.576  0.00  0.00    +0.000 A 
ENDROOT
BRANCH   1   7
ATOM      7  C   UNL     1      48.367   7.444  14.824  0.00  0.00    +0.000 C 
BRANCH   7  10
ATOM      8  O   UNL     1      48.627   6.699  17.523  0.00  0.00    +0.000 OA
ATOM      9  C   UNL     1      49.443   6.275  16.707  0.00  0.00    +0.000 C 
ATOM     10  N   UNL     1      49.404   6.612  15.380  0.00  0.00    +0.000 N 
ATOM     11  H   UNL     1      49.972   6.095  14.716  0.00  0.00    +0.000 HD
BRANCH   9  12
ATOM     12  C   UNL     1      50.555   5.415  17.123  0.00  0.00    +0.000 A 
ATOM     13  C   UNL     1      51.731   5.984  17.590  0.00  0.00    +0.000 A 
ATOM     14  S   UNL     1      52.904   4.837  18.057  0.00  0.00    +0.000 S 
ATOM     15  C   UNL     1      51.865   3.541  17.682  0.00  0.00    +0.000 A 
ATOM     16  N   UNL     1      52.241   2.252  17.902  0.00  0.00    +0.000 NA
ATOM     17  C   UNL     1      51.341   1.378  17.612  0.00  0.00    +0.000 A 
ATOM     18  N   UNL     1      50.101   1.669  17.101  0.00  0.00    +0.000 N 
ATOM     19  C   UNL     1      49.712   2.950  16.779  0.00  0.00    +0.000 A 
ATOM     20  O   UNL     1      48.668   3.161  16.171  0.00  0.00    +0.000 OA
ATOM     21  C   UNL     1      50.661   3.977  17.160  0.00  0.00    +0.000 A 
ATOM     22  H   UNL     1      49.460   0.931  16.853  0.00  0.00    +0.000 HD
ENDBRANCH   9  12
ENDBRANCH   7  10
ENDBRANCH   1   7
BRANCH   4  23
ATOM     23  C   UNL     1      45.019   4.636  10.945  0.00  0.00    +0.000 C 
BRANCH  23  24
ATOM     24  N   UNL     1      44.948   5.252   9.620  0.00  0.00    +0.000 NA
ATOM     25  H   UNL     1      44.940   6.264   9.719  0.00  0.00    +0.000 HD
BRANCH  24  26
ATOM     26  C   UNL     1      46.023   4.838   8.713  0.00  0.00    +0.000 C 
BRANCH  26  27
ATOM     27  C   UNL     1      45.449   3.886   7.642  0.00  0.00    +0.000 C 
ATOM     28  C   UNL     1      44.806   2.622   8.241  0.00  0.00    +0.000 C 
ATOM     29  C   UNL     1      45.829   1.565   8.654  0.00  0.00    +0.000 C 
ATOM     30  N   UNL     1      46.767   1.247   7.576  0.00  0.00    +0.000 NA
ATOM     31  C   UNL     1      47.486   2.446   7.146  0.00  0.00    +0.000 C 
ATOM     32  C   UNL     1      46.519   3.498   6.610  0.00  0.00    +0.000 C 
ATOM     33  H   UNL     1      46.243   0.877   6.783  0.00  0.00    +0.000 HD
ENDBRANCH  26  27
ENDBRANCH  24  26
ENDBRANCH  23  24
ENDBRANCH   4  23
TORSDOF 7
ENDMDL
MODEL 9
REMARK VINA RESULT:    -6.584      1.753      2.366
REMARK INTER + INTRA:         -10.491
REMARK INTER:                  -9.569
REMARK INTRA:                  -0.922
REMARK UNBOUND:                -1.212
REMARK  Name = 
REMARK  7 active torsions:
REMARK  status: ('A' for Active; 'I' for Inactive)
REMARK    1  A    between atoms: C_2  and  C_20
REMARK    2  A    between atoms: N_3  and  C_4
REMARK    3  A    between atoms: C_4  and  C_5
REMARK    4  A    between atoms: C_8  and  C_9
REMARK    5  A    between atoms: C_9  and  N_10
REMARK    6  A    between atoms: N_10  and  C_11
REMARK    7  A    between atoms: C_11  and  C_12
REMARK                            x       y       z     vdW  Elec       q    Type
REMARK                         _______ _______ _______ _____ _____    ______ ____
ROOT
ATOM      1  C   UNL     1      47.435   6.413  13.544  0.00  0.00    +0.000 A 
ATOM      2  C   UNL     1      47.488   5.036  13.787  0.00  0.00    +0.000 A 
ATOM      3  C   UNL     1      46.399   4.221  13.481  0.00  0.00    +0.000 A 
ATOM      4  C   UNL     1      45.218   4.763  12.956  0.00  0.00    +0.000 A 
ATOM      5  C   UNL     1      45.189   6.135  12.661  0.00  0.00    +0.000 A 
ATOM      6  C   UNL     1      46.289   6.950  12.947  0.00  0.00    +0.000 A 
ENDROOT
BRANCH   1   7
ATOM      7  C   UNL     1      48.604   7.282  13.922  0.00  0.00    +0.000 C 
BRANCH   7  10
ATOM      8  O   UNL     1      48.171   8.915  16.170  0.00  0.00    +0.000 OA
ATOM      9  C   UNL     1      48.778   7.855  16.311  0.00  0.00    +0.000 C 
ATOM     10  N   UNL     1      49.054   7.017  15.265  0.00  0.00    +0.000 N 
ATOM     11  H   UNL     1      49.383   6.075  15.452  0.00  0.00    +0.000 HD
BRANCH   9  12
ATOM     12  C   UNL     1      49.297   7.447  17.621  0.00  0.00    +0.000 A 
ATOM     13  C   UNL     1      50.213   8.253  18.283  0.00  0.00    +0.000 A 
ATOM     14  S   UNL     1      50.686   7.640  19.803  0.00  0.00    +0.000 S 
ATOM     15  C   UNL     1      49.655   6.295  19.642  0.00  0.00    +0.000 A 
ATOM     16  N   UNL     1      49.537   5.376  20.639  0.00  0.00    +0.000 NA
ATOM     17  C   UNL     1      48.692   4.435  20.399  0.00  0.00    +0.000 A 
ATOM     18  N   UNL     1      47.963   4.312  19.242  0.00  0.00    +0.000 N 
ATOM     19  C   UNL     1      48.117   5.165  18.172  0.00  0.00    +0.000 A 
ATOM     20  O   UNL     1      47.580   4.933  17.095  0.00  0.00    +0.000 OA
ATOM     21  C   UNL     1      48.999   6.286  18.424  0.00  0.00    +0.000 A 
ATOM     22  H   UNL     1      47.352   3.523  19.101  0.00  0.00    +0.000 HD
ENDBRANCH   9  12
ENDBRANCH   7  10
ENDBRANCH   1   7
BRANCH   4  23
ATOM     23  C   UNL     1      43.997   3.919  12.656  0.00  0.00    +0.000 C 
BRANCH  23  24
ATOM     24  N   UNL     1      44.188   2.840  11.686  0.00  0.00    +0.000 NA
ATOM     25  H   UNL     1      43.289   2.590  11.280  0.00  0.00    +0.000 HD
BRANCH  24  26
ATOM     26  C   UNL     1      45.153   3.154  10.629  0.00  0.00    +0.000 C 
BRANCH  26  27
ATOM     27  C   UNL     1      44.534   2.817   9.255  0.00  0.00    +0.000 C 
ATOM     28  C   UNL     1      45.026   1.474   8.687  0.00  0.00    +0.000 C 
ATOM     29  C   UNL     1      46.415   1.558   8.057  0.00  0.00    +0.000 C 
ATOM     30  N   UNL     1      46.517   2.641   7.077  0.00  0.00    +0.000 NA
ATOM     31  C   UNL     1      46.207   3.929   7.695  0.00  0.00    +0.000 C 
ATOM     32  C   UNL     1      44.782   3.944   8.240  0.00  0.00    +0.000 C 
ATOM     33  H   UNL     1      45.847   2.468   6.326  0.00  0.00    +0.000 HD
ENDBRANCH  26  27
ENDBRANCH  24  26
ENDBRANCH  23  24
ENDBRANCH   4  23
TORSDOF 7
ENDMDL
