MODEL 1
REMARK VINA RESULT:    -9.130      0.000      0.000
REMARK INTER + INTRA:         -14.215
REMARK INTER:                 -13.400
REMARK INTRA:                  -0.815
REMARK UNBOUND:                -0.815
REMARK  Name = 
REMARK  8 active torsions:
REMARK  status: ('A' for Active; 'I' for Inactive)
REMARK    1  A    between atoms: C_2  and  C_4
REMARK    2  A    between atoms: N_8  and  C_9
REMARK    3  A    between atoms: C_9  and  C_10
REMARK    4  A    between atoms: C_10  and  C_13
REMARK    5  A    between atoms: C_17  and  O_18
REMARK    6  A    between atoms: O_18  and  C_19
REMARK    7  A    between atoms: N_21  and  C_22
REMARK    8  A    between atoms: C_22  and  C_23
REMARK                            x       y       z     vdW  Elec       q    Type
REMARK                         _______ _______ _______ _____ _____    ______ ____
ROOT
ATOM      1  C   UNL     1      43.321   5.457  12.195  0.00  0.00    +0.000 C 
ATOM      2  F   UNL     1      42.643   6.557  11.745  0.00  0.00    +0.000 F 
ATOM      3  F   UNL     1      42.634   5.036  13.299  0.00  0.00    +0.000 F 
ENDROOT
BRANCH   1   4
ATOM      4  C   UNL     1      44.765   5.795  12.545  0.00  0.00    +0.000 A 
ATOM      5  C   UNL     1      45.320   7.012  12.130  0.00  0.00    +0.000 A 
ATOM      6  C   UNL     1      46.636   7.336  12.475  0.00  0.00    +0.000 A 
ATOM      7  C   UNL     1      47.420   6.461  13.238  0.00  0.00    +0.000 A 
ATOM      8  C   UNL     1      46.886   5.248  13.645  0.00  0.00    +0.000 A 
ATOM      9  C   UNL     1      45.576   4.928  13.299  0.00  0.00    +0.000 A 
BRANCH   8  10
ATOM     10  O   UNL     1      47.490   4.297  14.423  0.00  0.00    +0.000 OA
BRANCH  10  11
ATOM     11  C   UNL     1      47.392   4.388  15.862  0.00  0.00    +0.000 C 
ATOM     12  C   UNL     1      48.436   5.236  16.609  0.00  0.00    +0.000 C 
ATOM     13  N   UNL     1      48.772   4.093  17.482  0.00  0.00    +0.000 NA
ATOM     14  C   UNL     1      47.983   3.183  16.628  0.00  0.00    +0.000 C 
BRANCH  13  15
ATOM     15  C   UNL     1      48.128   4.237  18.798  0.00  0.00    +0.000 C 
BRANCH  15  16
ATOM     16  C   UNL     1      49.135   4.596  19.891  0.00  0.00    +0.000 C 
ATOM     17  F   UNL     1      48.682   4.097  21.075  0.00  0.00    +0.000 F 
ENDBRANCH  15  16
ENDBRANCH  13  15
ENDBRANCH  10  11
ENDBRANCH   8  10
ENDBRANCH   1   4
BRANCH   1  18
ATOM     18  C   UNL     1      43.231   4.357  11.110  0.00  0.00    +0.000 C 
BRANCH  18  23
ATOM     19  C   UNL     1      46.472   2.518   7.691  0.00  0.00    +0.000 A 
ATOM     20  C   UNL     1      45.647   1.850   8.587  0.00  0.00    +0.000 A 
ATOM     21  C   UNL     1      44.721   2.587   9.324  0.00  0.00    +0.000 A 
ATOM     22  C   UNL     1      44.641   3.972   9.159  0.00  0.00    +0.000 A 
ATOM     23  N   UNL     1      43.673   4.746   9.775  0.00  0.00    +0.000 N 
ATOM     24  N   UNL     1      45.465   4.628   8.323  0.00  0.00    +0.000 NA
ATOM     25  C   UNL     1      46.365   3.899   7.614  0.00  0.00    +0.000 A 
ATOM     26  H   UNL     1      43.872   5.735   9.633  0.00  0.00    +0.000 HD
BRANCH  19  28
ATOM     27  N   UNL     1      48.536   2.521   6.422  0.00  0.00    +0.000 N 
ATOM     28  C   UNL     1      47.448   1.809   6.837  0.00  0.00    +0.000 C 
ATOM     29  O   UNL     1      47.300   0.633   6.542  0.00  0.00    +0.000 OA
ATOM     30  H   UNL     1      49.249   2.006   5.922  0.00  0.00    +0.000 HD
ATOM     31  H   UNL     1      48.814   3.395   6.855  0.00  0.00    +0.000 HD
ENDBRANCH  19  28
ENDBRANCH  18  23
ENDBRANCH   1  18
TORSDOF 8
ENDMDL
MODEL 2
REMARK VINA RESULT:    -8.163      3.064      4.510
REMARK INTER + INTRA:         -12.795
REMARK INTER:                 -11.622
REMARK INTRA:                  -1.173
REMARK UNBOUND:                -0.815
REMARK  Name = 
REMARK  8 active torsions:
REMARK  status: ('A' for Active; 'I' for Inactive)
REMARK    1  A    between atoms: C_2  and  C_4
REMARK    2  A    between atoms: N_8  and  C_9
REMARK    3  A    between atoms: C_9  and  C_10
REMARK    4  A    between atoms: C_10  and  C_13
REMARK    5  A    between atoms: C_17  and  O_18
REMARK    6  A    between atoms: O_18  and  C_19
REMARK    7  A    between atoms: N_21  and  C_22
REMARK    8  A    between atoms: C_22  and  C_23
REMARK                            x       y       z     vdW  Elec       q    Type
REMARK                         _______ _______ _______ _____ _____    ______ ____
ROOT
ATOM      1  C   UNL     1      43.507   5.349  12.228  0.00  0.00    +0.000 C 
ATOM      2  F   UNL     1      43.344   6.623  11.757  0.00  0.00    +0.000 F 
ATOM      3  F   UNL     1      42.567   5.203  13.209  0.00  0.00    +0.000 F 
ENDROOT
BRANCH   1   4
ATOM      4  C   UNL     1      44.911   5.132  12.779  0.00  0.00    +0.000 A 
ATOM      5  C   UNL     1      45.443   3.839  12.850  0.00  0.00    +0.000 A 
ATOM      6  C   UNL     1      46.743   3.640  13.328  0.00  0.00    +0.000 A 
ATOM      7  C   UNL     1      47.536   4.720  13.739  0.00  0.00    +0.000 A 
ATOM      8  C   UNL     1      47.015   6.005  13.684  0.00  0.00    +0.000 A 
ATOM      9  C   UNL     1      45.721   6.198  13.210  0.00  0.00    +0.000 A 
BRANCH   8  10
ATOM     10  O   UNL     1      47.657   7.171  14.006  0.00  0.00    +0.000 OA
BRANCH  10  11
ATOM     11  C   UNL     1      47.833   8.187  12.994  0.00  0.00    +0.000 C 
ATOM     12  C   UNL     1      48.880   7.943  11.893  0.00  0.00    +0.000 C 
ATOM     13  N   UNL     1      49.534   9.232  12.197  0.00  0.00    +0.000 NA
ATOM     14  C   UNL     1      48.722   9.378  13.421  0.00  0.00    +0.000 C 
BRANCH  13  15
ATOM     15  C   UNL     1      49.149  10.255  11.210  0.00  0.00    +0.000 C 
BRANCH  15  16
ATOM     16  C   UNL     1      50.368  10.919  10.571  0.00  0.00    +0.000 C 
ATOM     17  F   UNL     1      51.462  10.146  10.824  0.00  0.00    +0.000 F 
ENDBRANCH  15  16
ENDBRANCH  13  15
ENDBRANCH  10  11
ENDBRANCH   8  10
ENDBRANCH   1   4
BRANCH   1  18
ATOM     18  C   UNL     1      43.179   4.364  11.080  0.00  0.00    +0.000 C 
BRANCH  18  23
ATOM     19  C   UNL     1      46.464   2.517   7.708  0.00  0.00    +0.000 A 
ATOM     20  C   UNL     1      45.619   1.851   8.587  0.00  0.00    +0.000 A 
ATOM     21  C   UNL     1      44.686   2.591   9.311  0.00  0.00    +0.000 A 
ATOM     22  C   UNL     1      44.619   3.978   9.151  0.00  0.00    +0.000 A 
ATOM     23  N   UNL     1      43.646   4.756   9.755  0.00  0.00    +0.000 N 
ATOM     24  N   UNL     1      45.462   4.631   8.334  0.00  0.00    +0.000 NA
ATOM     25  C   UNL     1      46.368   3.899   7.636  0.00  0.00    +0.000 A 
ATOM     26  H   UNL     1      43.855   5.745   9.621  0.00  0.00    +0.000 HD
BRANCH  19  28
ATOM     27  N   UNL     1      48.550   2.510   6.476  0.00  0.00    +0.000 N 
ATOM     28  C   UNL     1      47.450   1.805   6.868  0.00  0.00    +0.000 C 
ATOM     29  O   UNL     1      47.297   0.632   6.563  0.00  0.00    +0.000 OA
ATOM     30  H   UNL     1      49.267   1.992   5.986  0.00  0.00    +0.000 HD
ATOM     31  H   UNL     1      48.828   3.379   6.919  0.00  0.00    +0.000 HD
ENDBRANCH  19  28
ENDBRANCH  18  23
ENDBRANCH   1  18
TORSDOF 8
ENDMDL
MODEL 3
REMARK VINA RESULT:    -7.584      2.866      9.028
REMARK INTER + INTRA:         -11.946
REMARK INTER:                 -11.197
REMARK INTRA:                  -0.749
REMARK UNBOUND:                -0.815
REMARK  Name = 
REMARK  8 active torsions:
REMARK  status: ('A' for Active; 'I' for Inactive)
REMARK    1  A    between atoms: C_2  and  C_4
REMARK    2  A    between atoms: N_8  and  C_9
REMARK    3  A    between atoms: C_9  and  C_10
REMARK    4  A    between atoms: C_10  and  C_13
REMARK    5  A    between atoms: C_17  and  O_18
REMARK    6  A    between atoms: O_18  and  C_19
REMARK    7  A    between atoms: N_21  and  C_22
REMARK    8  A    between atoms: C_22  and  C_23
REMARK                            x       y       z     vdW  Elec       q    Type
REMARK                         _______ _______ _______ _____ _____    ______ ____
ROOT
ATOM      1  C   UNL     1      46.530   6.323  12.569  0.00  0.00    +0.000 C 
ATOM      2  F   UNL     1      46.280   7.499  13.219  0.00  0.00    +0.000 F 
ATOM      3  F   UNL     1      47.232   6.670  11.449  0.00  0.00    +0.000 F 
ENDROOT
BRANCH   1   4
ATOM      4  C   UNL     1      45.240   5.599  12.204  0.00  0.00    +0.000 A 
ATOM      5  C   UNL     1      44.038   5.952  12.830  0.00  0.00    +0.000 A 
ATOM      6  C   UNL     1      42.847   5.310  12.476  0.00  0.00    +0.000 A 
ATOM      7  C   UNL     1      42.829   4.310  11.494  0.00  0.00    +0.000 A 
ATOM      8  C   UNL     1      44.015   3.943  10.876  0.00  0.00    +0.000 A 
ATOM      9  C   UNL     1      45.198   4.584  11.232  0.00  0.00    +0.000 A 
BRANCH   8  10
ATOM     10  O   UNL     1      44.176   3.022   9.875  0.00  0.00    +0.000 OA
BRANCH  10  11
ATOM     11  C   UNL     1      45.443   2.934   9.186  0.00  0.00    +0.000 C 
ATOM     12  C   UNL     1      45.558   3.577   7.793  0.00  0.00    +0.000 C 
ATOM     13  N   UNL     1      46.042   2.303   7.221  0.00  0.00    +0.000 NA
ATOM     14  C   UNL     1      45.696   1.590   8.466  0.00  0.00    +0.000 C 
BRANCH  13  15
ATOM     15  C   UNL     1      47.503   2.334   7.046  0.00  0.00    +0.000 C 
BRANCH  15  16
ATOM     16  C   UNL     1      47.903   2.290   5.571  0.00  0.00    +0.000 C 
ATOM     17  F   UNL     1      46.970   2.976   4.851  0.00  0.00    +0.000 F 
ENDBRANCH  15  16
ENDBRANCH  13  15
ENDBRANCH  10  11
ENDBRANCH   8  10
ENDBRANCH   1   4
BRANCH   1  18
ATOM     18  C   UNL     1      47.442   5.457  13.472  0.00  0.00    +0.000 C 
BRANCH  18  23
ATOM     19  C   UNL     1      48.667   4.588  18.301  0.00  0.00    +0.000 A 
ATOM     20  C   UNL     1      48.986   5.662  17.480  0.00  0.00    +0.000 A 
ATOM     21  C   UNL     1      48.391   5.745  16.222  0.00  0.00    +0.000 A 
ATOM     22  C   UNL     1      47.498   4.754  15.806  0.00  0.00    +0.000 A 
ATOM     23  N   UNL     1      46.791   4.832  14.618  0.00  0.00    +0.000 N 
ATOM     24  N   UNL     1      47.218   3.692  16.580  0.00  0.00    +0.000 NA
ATOM     25  C   UNL     1      47.806   3.622  17.802  0.00  0.00    +0.000 A 
ATOM     26  H   UNL     1      46.304   3.955  14.441  0.00  0.00    +0.000 HD
BRANCH  19  28
ATOM     27  N   UNL     1      48.452   3.767  20.570  0.00  0.00    +0.000 N 
ATOM     28  C   UNL     1      49.215   4.448  19.667  0.00  0.00    +0.000 C 
ATOM     29  O   UNL     1      50.312   4.898  19.962  0.00  0.00    +0.000 OA
ATOM     30  H   UNL     1      48.873   3.589  21.473  0.00  0.00    +0.000 HD
ATOM     31  H   UNL     1      47.680   3.171  20.294  0.00  0.00    +0.000 HD
ENDBRANCH  19  28
ENDBRANCH  18  23
ENDBRANCH   1  18
TORSDOF 8
ENDMDL
MODEL 4
REMARK VINA RESULT:    -7.442      2.494      2.770
REMARK INTER + INTRA:         -11.738
REMARK INTER:                 -10.972
REMARK INTRA:                  -0.765
REMARK UNBOUND:                -0.815
REMARK  Name = 
REMARK  8 active torsions:
REMARK  status: ('A' for Active; 'I' for Inactive)
REMARK    1  A    between atoms: C_2  and  C_4
REMARK    2  A    between atoms: N_8  and  C_9
REMARK    3  A    between atoms: C_9  and  C_10
REMARK    4  A    between atoms: C_10  and  C_13
REMARK    5  A    between atoms: C_17  and  O_18
REMARK    6  A    between atoms: O_18  and  C_19
REMARK    7  A    between atoms: N_21  and  C_22
REMARK    8  A    between atoms: C_22  and  C_23
REMARK                            x       y       z     vdW  Elec       q    Type
REMARK                         _______ _______ _______ _____ _____    ______ ____
ROOT
ATOM      1  C   UNL     1      44.639   4.925  12.277  0.00  0.00    +0.000 C 
ATOM      2  F   UNL     1      43.979   4.765  13.465  0.00  0.00    +0.000 F 
ATOM      3  F   UNL     1      45.577   3.931  12.249  0.00  0.00    +0.000 F 
ENDROOT
BRANCH   1   4
ATOM      4  C   UNL     1      45.291   6.298  12.180  0.00  0.00    +0.000 A 
ATOM      5  C   UNL     1      44.521   7.416  11.839  0.00  0.00    +0.000 A 
ATOM      6  C   UNL     1      45.112   8.683  11.778  0.00  0.00    +0.000 A 
ATOM      7  C   UNL     1      46.474   8.860  12.056  0.00  0.00    +0.000 A 
ATOM      8  C   UNL     1      47.250   7.758  12.383  0.00  0.00    +0.000 A 
ATOM      9  C   UNL     1      46.658   6.499  12.441  0.00  0.00    +0.000 A 
BRANCH   8  10
ATOM     10  O   UNL     1      48.577   7.751  12.720  0.00  0.00    +0.000 OA
BRANCH  10  11
ATOM     11  C   UNL     1      48.978   7.254  14.016  0.00  0.00    +0.000 C 
ATOM     12  C   UNL     1      48.552   8.049  15.263  0.00  0.00    +0.000 C 
ATOM     13  N   UNL     1      49.954   8.126  15.721  0.00  0.00    +0.000 NA
ATOM     14  C   UNL     1      50.427   7.606  14.423  0.00  0.00    +0.000 C 
BRANCH  13  15
ATOM     15  C   UNL     1      50.208   7.140  16.784  0.00  0.00    +0.000 C 
BRANCH  15  16
ATOM     16  C   UNL     1      50.813   7.786  18.030  0.00  0.00    +0.000 C 
ATOM     17  F   UNL     1      51.887   8.534  17.649  0.00  0.00    +0.000 F 
ENDBRANCH  15  16
ENDBRANCH  13  15
ENDBRANCH  10  11
ENDBRANCH   8  10
ENDBRANCH   1   4
BRANCH   1  18
ATOM     18  C   UNL     1      43.630   4.682  11.129  0.00  0.00    +0.000 C 
BRANCH  18  23
ATOM     19  C   UNL     1      46.554   2.544   7.599  0.00  0.00    +0.000 A 
ATOM     20  C   UNL     1      45.670   1.960   8.498  0.00  0.00    +0.000 A 
ATOM     21  C   UNL     1      44.856   2.786   9.271  0.00  0.00    +0.000 A 
ATOM     22  C   UNL     1      44.944   4.175   9.138  0.00  0.00    +0.000 A 
ATOM     23  N   UNL     1      44.091   5.046   9.793  0.00  0.00    +0.000 N 
ATOM     24  N   UNL     1      45.826   4.745   8.300  0.00  0.00    +0.000 NA
ATOM     25  C   UNL     1      46.615   3.929   7.554  0.00  0.00    +0.000 A 
ATOM     26  H   UNL     1      44.407   6.007   9.668  0.00  0.00    +0.000 HD
BRANCH  19  28
ATOM     27  N   UNL     1      48.339   2.422   5.965  0.00  0.00    +0.000 N 
ATOM     28  C   UNL     1      47.418   1.742   6.708  0.00  0.00    +0.000 C 
ATOM     29  O   UNL     1      47.329   0.524   6.661  0.00  0.00    +0.000 OA
ATOM     30  H   UNL     1      48.993   1.863   5.434  0.00  0.00    +0.000 HD
ATOM     31  H   UNL     1      48.608   3.378   6.172  0.00  0.00    +0.000 HD
ENDBRANCH  19  28
ENDBRANCH  18  23
ENDBRANCH   1  18
TORSDOF 8
ENDMDL
MODEL 5
REMARK VINA RESULT:    -7.399      1.845      2.151
REMARK INTER + INTRA:         -11.675
REMARK INTER:                 -10.914
REMARK INTRA:                  -0.761
REMARK UNBOUND:                -0.815
REMARK  Name = 
REMARK  8 active torsions:
REMARK  status: ('A' for Active; 'I' for Inactive)
REMARK    1  A    between atoms: C_2  and  C_4
REMARK    2  A    between atoms: N_8  and  C_9
REMARK    3  A    between atoms: C_9  and  C_10
REMARK    4  A    between atoms: C_10  and  C_13
REMARK    5  A    between atoms: C_17  and  O_18
REMARK    6  A    between atoms: O_18  and  C_19
REMARK    7  A    between atoms: N_21  and  C_22
REMARK    8  A    between atoms: C_22  and  C_23
REMARK                            x       y       z     vdW  Elec       q    Type
REMARK                         _______ _______ _______ _____ _____    ______ ____
ROOT
ATOM      1  C   UNL     1      43.560   4.780  12.350  0.00  0.00    +0.000 C 
ATOM      2  F   UNL     1      42.692   5.835  12.316  0.00  0.00    +0.000 F 
ATOM      3  F   UNL     1      43.149   4.006  13.399  0.00  0.00    +0.000 F 
ENDROOT
BRANCH   1   4
ATOM      4  C   UNL     1      44.998   5.244  12.541  0.00  0.00    +0.000 A 
ATOM      5  C   UNL     1      45.577   6.129  11.622  0.00  0.00    +0.000 A 
ATOM      6  C   UNL     1      46.887   6.580  11.812  0.00  0.00    +0.000 A 
ATOM      7  C   UNL     1      47.643   6.163  12.917  0.00  0.00    +0.000 A 
ATOM      8  C   UNL     1      47.085   5.278  13.827  0.00  0.00    +0.000 A 
ATOM      9  C   UNL     1      45.781   4.831  13.634  0.00  0.00    +0.000 A 
BRANCH   8  10
ATOM     10  O   UNL     1      47.659   4.801  14.975  0.00  0.00    +0.000 OA
BRANCH  10  11
ATOM     11  C   UNL     1      48.688   5.576  15.631  0.00  0.00    +0.000 C 
ATOM     12  C   UNL     1      48.955   5.313  17.123  0.00  0.00    +0.000 C 
ATOM     13  N   UNL     1      48.767   6.745  17.431  0.00  0.00    +0.000 NA
ATOM     14  C   UNL     1      48.250   6.991  16.071  0.00  0.00    +0.000 C 
BRANCH  13  15
ATOM     15  C   UNL     1      50.067   7.414  17.606  0.00  0.00    +0.000 C 
BRANCH  15  16
ATOM     16  C   UNL     1      50.008   8.508  18.672  0.00  0.00    +0.000 C 
ATOM     17  F   UNL     1      51.149   8.448  19.415  0.00  0.00    +0.000 F 
ENDBRANCH  15  16
ENDBRANCH  13  15
ENDBRANCH  10  11
ENDBRANCH   8  10
ENDBRANCH   1   4
BRANCH   1  18
ATOM     18  C   UNL     1      43.384   3.969  11.043  0.00  0.00    +0.000 C 
BRANCH  18  23
ATOM     19  C   UNL     1      46.576   2.576   7.376  0.00  0.00    +0.000 A 
ATOM     20  C   UNL     1      46.208   3.846   7.803  0.00  0.00    +0.000 A 
ATOM     21  C   UNL     1      45.423   3.968   8.948  0.00  0.00    +0.000 A 
ATOM     22  C   UNL     1      45.016   2.823   9.640  0.00  0.00    +0.000 A 
ATOM     23  N   UNL     1      44.331   2.877  10.842  0.00  0.00    +0.000 N 
ATOM     24  N   UNL     1      45.335   1.591   9.208  0.00  0.00    +0.000 NA
ATOM     25  C   UNL     1      46.098   1.487   8.088  0.00  0.00    +0.000 A 
ATOM     26  H   UNL     1      44.014   1.946  11.106  0.00  0.00    +0.000 HD
BRANCH  19  28
ATOM     27  N   UNL     1      47.253   3.187   5.131  0.00  0.00    +0.000 N 
ATOM     28  C   UNL     1      47.444   2.359   6.199  0.00  0.00    +0.000 C 
ATOM     29  O   UNL     1      48.310   1.497   6.197  0.00  0.00    +0.000 OA
ATOM     30  H   UNL     1      47.913   3.100   4.370  0.00  0.00    +0.000 HD
ATOM     31  H   UNL     1      46.738   4.058   5.201  0.00  0.00    +0.000 HD
ENDBRANCH  19  28
ENDBRANCH  18  23
ENDBRANCH   1  18
TORSDOF 8
ENDMDL
MODEL 6
REMARK VINA RESULT:    -7.188      3.202      9.000
REMARK INTER + INTRA:         -11.364
REMARK INTER:                 -10.540
REMARK INTRA:                  -0.824
REMARK UNBOUND:                -0.815
REMARK  Name = 
REMARK  8 active torsions:
REMARK  status: ('A' for Active; 'I' for Inactive)
REMARK    1  A    between atoms: C_2  and  C_4
REMARK    2  A    between atoms: N_8  and  C_9
REMARK    3  A    between atoms: C_9  and  C_10
REMARK    4  A    between atoms: C_10  and  C_13
REMARK    5  A    between atoms: C_17  and  O_18
REMARK    6  A    between atoms: O_18  and  C_19
REMARK    7  A    between atoms: N_21  and  C_22
REMARK    8  A    between atoms: C_22  and  C_23
REMARK                            x       y       z     vdW  Elec       q    Type
REMARK                         _______ _______ _______ _____ _____    ______ ____
ROOT
ATOM      1  C   UNL     1      46.790   4.622  13.703  0.00  0.00    +0.000 C 
ATOM      2  F   UNL     1      47.421   5.779  13.339  0.00  0.00    +0.000 F 
ATOM      3  F   UNL     1      47.662   3.618  13.388  0.00  0.00    +0.000 F 
ENDROOT
BRANCH   1   4
ATOM      4  C   UNL     1      45.467   4.450  12.966  0.00  0.00    +0.000 A 
ATOM      5  C   UNL     1      44.324   5.125  13.412  0.00  0.00    +0.000 A 
ATOM      6  C   UNL     1      43.116   4.992  12.720  0.00  0.00    +0.000 A 
ATOM      7  C   UNL     1      43.024   4.192  11.573  0.00  0.00    +0.000 A 
ATOM      8  C   UNL     1      44.146   3.509  11.128  0.00  0.00    +0.000 A 
ATOM      9  C   UNL     1      45.346   3.643  11.821  0.00  0.00    +0.000 A 
BRANCH   8  10
ATOM     10  O   UNL     1      44.247   2.721  10.013  0.00  0.00    +0.000 OA
BRANCH  10  11
ATOM     11  C   UNL     1      45.503   2.654   9.301  0.00  0.00    +0.000 C 
ATOM     12  C   UNL     1      45.653   3.480   8.012  0.00  0.00    +0.000 C 
ATOM     13  N   UNL     1      46.052   2.273   7.259  0.00  0.00    +0.000 NA
ATOM     14  C   UNL     1      45.667   1.413   8.394  0.00  0.00    +0.000 C 
BRANCH  13  15
ATOM     15  C   UNL     1      47.511   2.238   7.069  0.00  0.00    +0.000 C 
BRANCH  15  16
ATOM     16  C   UNL     1      47.898   2.300   5.592  0.00  0.00    +0.000 C 
ATOM     17  F   UNL     1      46.939   3.002   4.925  0.00  0.00    +0.000 F 
ENDBRANCH  15  16
ENDBRANCH  13  15
ENDBRANCH  10  11
ENDBRANCH   8  10
ENDBRANCH   1   4
BRANCH   1  18
ATOM     18  C   UNL     1      46.596   4.641  15.239  0.00  0.00    +0.000 C 
BRANCH  18  23
ATOM     19  C   UNL     1      50.824   3.238  17.632  0.00  0.00    +0.000 A 
ATOM     20  C   UNL     1      50.221   4.486  17.546  0.00  0.00    +0.000 A 
ATOM     21  C   UNL     1      48.963   4.585  16.953  0.00  0.00    +0.000 A 
ATOM     22  C   UNL     1      48.337   3.440  16.451  0.00  0.00    +0.000 A 
ATOM     23  N   UNL     1      47.047   3.449  15.950  0.00  0.00    +0.000 N 
ATOM     24  N   UNL     1      48.935   2.237  16.494  0.00  0.00    +0.000 NA
ATOM     25  C   UNL     1      50.162   2.156  17.072  0.00  0.00    +0.000 A 
ATOM     26  H   UNL     1      46.833   2.553  15.515  0.00  0.00    +0.000 HD
BRANCH  19  28
ATOM     27  N   UNL     1      52.623   1.764  18.311  0.00  0.00    +0.000 N 
ATOM     28  C   UNL     1      52.134   3.038  18.287  0.00  0.00    +0.000 C 
ATOM     29  O   UNL     1      52.760   3.975  18.760  0.00  0.00    +0.000 OA
ATOM     30  H   UNL     1      53.561   1.648  18.671  0.00  0.00    +0.000 HD
ATOM     31  H   UNL     1      52.263   1.030  17.712  0.00  0.00    +0.000 HD
ENDBRANCH  19  28
ENDBRANCH  18  23
ENDBRANCH   1  18
TORSDOF 8
ENDMDL
MODEL 7
REMARK VINA RESULT:    -6.944      1.583      2.044
REMARK INTER + INTRA:         -11.006
REMARK INTER:                 -10.440
REMARK INTRA:                  -0.567
REMARK UNBOUND:                -0.815
REMARK  Name = 
REMARK  8 active torsions:
REMARK  status: ('A' for Active; 'I' for Inactive)
REMARK    1  A    between atoms: C_2  and  C_4
REMARK    2  A    between atoms: N_8  and  C_9
REMARK    3  A    between atoms: C_9  and  C_10
REMARK    4  A    between atoms: C_10  and  C_13
REMARK    5  A    between atoms: C_17  and  O_18
REMARK    6  A    between atoms: O_18  and  C_19
REMARK    7  A    between atoms: N_21  and  C_22
REMARK    8  A    between atoms: C_22  and  C_23
REMARK                            x       y       z     vdW  Elec       q    Type
REMARK                         _______ _______ _______ _____ _____    ______ ____
ROOT
ATOM      1  C   UNL     1      44.862   6.206  11.526  0.00  0.00    +0.000 C 
ATOM      2  F   UNL     1      45.629   6.792  10.558  0.00  0.00    +0.000 F 
ATOM      3  F   UNL     1      44.192   7.233  12.129  0.00  0.00    +0.000 F 
ENDROOT
BRANCH   1   4
ATOM      4  C   UNL     1      45.716   5.443  12.531  0.00  0.00    +0.000 A 
ATOM      5  C   UNL     1      45.520   4.069  12.717  0.00  0.00    +0.000 A 
ATOM      6  C   UNL     1      46.323   3.361  13.617  0.00  0.00    +0.000 A 
ATOM      7  C   UNL     1      47.334   4.004  14.345  0.00  0.00    +0.000 A 
ATOM      8  C   UNL     1      47.530   5.367  14.178  0.00  0.00    +0.000 A 
ATOM      9  C   UNL     1      46.728   6.068  13.282  0.00  0.00    +0.000 A 
BRANCH   8  10
ATOM     10  O   UNL     1      48.488   6.143  14.773  0.00  0.00    +0.000 OA
BRANCH  10  11
ATOM     11  C   UNL     1      48.523   6.252  16.213  0.00  0.00    +0.000 C 
ATOM     12  C   UNL     1      49.651   7.079  16.852  0.00  0.00    +0.000 C 
ATOM     13  N   UNL     1      50.036   5.937  17.706  0.00  0.00    +0.000 NA
ATOM     14  C   UNL     1      49.150   5.040  16.939  0.00  0.00    +0.000 C 
BRANCH  13  15
ATOM     15  C   UNL     1      49.517   6.112  19.073  0.00  0.00    +0.000 C 
BRANCH  15  16
ATOM     16  C   UNL     1      50.172   5.146  20.060  0.00  0.00    +0.000 C 
ATOM     17  F   UNL     1      50.648   5.866  21.116  0.00  0.00    +0.000 F 
ENDBRANCH  15  16
ENDBRANCH  13  15
ENDBRANCH  10  11
ENDBRANCH   8  10
ENDBRANCH   1   4
BRANCH   1  18
ATOM     18  C   UNL     1      43.828   5.286  10.832  0.00  0.00    +0.000 C 
BRANCH  18  23
ATOM     19  C   UNL     1      46.294   1.961   7.926  0.00  0.00    +0.000 A 
ATOM     20  C   UNL     1      45.637   1.773   9.136  0.00  0.00    +0.000 A 
ATOM     21  C   UNL     1      44.892   2.825   9.666  0.00  0.00    +0.000 A 
ATOM     22  C   UNL     1      44.824   4.044   8.985  0.00  0.00    +0.000 A 
ATOM     23  N   UNL     1      44.017   5.090   9.398  0.00  0.00    +0.000 N 
ATOM     24  N   UNL     1      45.491   4.244   7.836  0.00  0.00    +0.000 NA
ATOM     25  C   UNL     1      46.215   3.211   7.332  0.00  0.00    +0.000 A 
ATOM     26  H   UNL     1      44.215   5.924   8.848  0.00  0.00    +0.000 HD
BRANCH  19  28
ATOM     27  N   UNL     1      46.772  -0.397   7.640  0.00  0.00    +0.000 N 
ATOM     28  C   UNL     1      47.065   0.884   7.271  0.00  0.00    +0.000 C 
ATOM     29  O   UNL     1      47.906   1.130   6.420  0.00  0.00    +0.000 OA
ATOM     30  H   UNL     1      47.231  -1.133   7.120  0.00  0.00    +0.000 HD
ATOM     31  H   UNL     1      45.921  -0.641   8.135  0.00  0.00    +0.000 HD
ENDBRANCH  19  28
ENDBRANCH  18  23
ENDBRANCH   1  18
TORSDOF 8
ENDMDL
MODEL 8
REMARK VINA RESULT:    -6.300      3.581      8.199
REMARK INTER + INTRA:         -10.062
REMARK INTER:                  -9.084
REMARK INTRA:                  -0.978
REMARK UNBOUND:                -0.815
REMARK  Name = 
REMARK  8 active torsions:
REMARK  status: ('A' for Active; 'I' for Inactive)
REMARK    1  A    between atoms: C_2  and  C_4
REMARK    2  A    between atoms: N_8  and  C_9
REMARK    3  A    between atoms: C_9  and  C_10
REMARK    4  A    between atoms: C_10  and  C_13
REMARK    5  A    between atoms: C_17  and  O_18
REMARK    6  A    between atoms: O_18  and  C_19
REMARK    7  A    between atoms: N_21  and  C_22
REMARK    8  A    between atoms: C_22  and  C_23
REMARK                            x       y       z     vdW  Elec       q    Type
REMARK                         _______ _______ _______ _____ _____    ______ ____
ROOT
ATOM      1  C   UNL     1      49.165   8.257  12.514  0.00  0.00    +0.000 C 
ATOM      2  F   UNL     1      49.967   9.029  11.720  0.00  0.00    +0.000 F 
ATOM      3  F   UNL     1      49.438   6.966  12.158  0.00  0.00    +0.000 F 
ENDROOT
BRANCH   1   4
ATOM      4  C   UNL     1      47.691   8.583  12.306  0.00  0.00    +0.000 A 
ATOM      5  C   UNL     1      47.300   9.892  11.999  0.00  0.00    +0.000 A 
ATOM      6  C   UNL     1      45.951  10.188  11.777  0.00  0.00    +0.000 A 
ATOM      7  C   UNL     1      44.970   9.189  11.854  0.00  0.00    +0.000 A 
ATOM      8  C   UNL     1      45.343   7.892  12.169  0.00  0.00    +0.000 A 
ATOM      9  C   UNL     1      46.687   7.602  12.390  0.00  0.00    +0.000 A 
BRANCH   8  10
ATOM     10  O   UNL     1      44.530   6.793  12.247  0.00  0.00    +0.000 OA
BRANCH  10  11
ATOM     11  C   UNL     1      45.007   5.519  11.759  0.00  0.00    +0.000 C 
ATOM     12  C   UNL     1      45.203   5.350  10.242  0.00  0.00    +0.000 C 
ATOM     13  N   UNL     1      44.342   4.149  10.243  0.00  0.00    +0.000 NA
ATOM     14  C   UNL     1      43.920   4.428  11.629  0.00  0.00    +0.000 C 
BRANCH  13  15
ATOM     15  C   UNL     1      45.159   2.925  10.199  0.00  0.00    +0.000 C 
BRANCH  15  16
ATOM     16  C   UNL     1      44.952   2.146   8.900  0.00  0.00    +0.000 C 
ATOM     17  F   UNL     1      45.875   2.572   7.991  0.00  0.00    +0.000 F 
ENDBRANCH  15  16
ENDBRANCH  13  15
ENDBRANCH  10  11
ENDBRANCH   8  10
ENDBRANCH   1   4
BRANCH   1  18
ATOM     18  C   UNL     1      49.599   8.463  13.985  0.00  0.00    +0.000 C 
BRANCH  18  23
ATOM     19  C   UNL     1      48.318   4.594  16.979  0.00  0.00    +0.000 A 
ATOM     20  C   UNL     1      47.601   5.208  15.960  0.00  0.00    +0.000 A 
ATOM     21  C   UNL     1      48.240   6.162  15.170  0.00  0.00    +0.000 A 
ATOM     22  C   UNL     1      49.577   6.489  15.416  0.00  0.00    +0.000 A 
ATOM     23  N   UNL     1      50.302   7.343  14.603  0.00  0.00    +0.000 N 
ATOM     24  N   UNL     1      50.262   5.928  16.426  0.00  0.00    +0.000 NA
ATOM     25  C   UNL     1      49.626   5.002  17.191  0.00  0.00    +0.000 A 
ATOM     26  H   UNL     1      51.203   7.553  15.029  0.00  0.00    +0.000 HD
BRANCH  19  28
ATOM     27  N   UNL     1      48.352   3.293  19.022  0.00  0.00    +0.000 N 
ATOM     28  C   UNL     1      47.731   3.540  17.833  0.00  0.00    +0.000 C 
ATOM     29  O   UNL     1      46.721   2.938  17.499  0.00  0.00    +0.000 OA
ATOM     30  H   UNL     1      47.892   2.642  19.645  0.00  0.00    +0.000 HD
ATOM     31  H   UNL     1      49.017   3.938  19.435  0.00  0.00    +0.000 HD
ENDBRANCH  19  28
ENDBRANCH  18  23
ENDBRANCH   1  18
TORSDOF 8
ENDMDL
MODEL 9
REMARK VINA RESULT:    -6.167      3.116      9.072
REMARK INTER + INTRA:          -9.866
REMARK INTER:                  -9.316
REMARK INTRA:                  -0.550
REMARK UNBOUND:                -0.815
REMARK  Name = 
REMARK  8 active torsions:
REMARK  status: ('A' for Active; 'I' for Inactive)
REMARK    1  A    between atoms: C_2  and  C_4
REMARK    2  A    between atoms: N_8  and  C_9
REMARK    3  A    between atoms: C_9  and  C_10
REMARK    4  A    between atoms: C_10  and  C_13
REMARK    5  A    between atoms: C_17  and  O_18
REMARK    6  A    between atoms: O_18  and  C_19
REMARK    7  A    between atoms: N_21  and  C_22
REMARK    8  A    between atoms: C_22  and  C_23
REMARK                            x       y       z     vdW  Elec       q    Type
REMARK                         _______ _______ _______ _____ _____    ______ ____
ROOT
ATOM      1  C   UNL     1      47.188   7.505  13.078  0.00  0.00    +0.000 C 
ATOM      2  F   UNL     1      46.297   8.376  13.642  0.00  0.00    +0.000 F 
ATOM      3  F   UNL     1      47.553   8.079  11.893  0.00  0.00    +0.000 F 
ENDROOT
BRANCH   1   4
ATOM      4  C   UNL     1      46.564   6.133  12.854  0.00  0.00    +0.000 A 
ATOM      5  C   UNL     1      46.990   5.038  13.616  0.00  0.00    +0.000 A 
ATOM      6  C   UNL     1      46.398   3.784  13.433  0.00  0.00    +0.000 A 
ATOM      7  C   UNL     1      45.374   3.597  12.495  0.00  0.00    +0.000 A 
ATOM      8  C   UNL     1      44.952   4.672  11.726  0.00  0.00    +0.000 A 
ATOM      9  C   UNL     1      45.545   5.918  11.910  0.00  0.00    +0.000 A 
BRANCH   8  10
ATOM     10  O   UNL     1      43.946   4.680  10.798  0.00  0.00    +0.000 OA
BRANCH  10  11
ATOM     11  C   UNL     1      44.231   4.288   9.436  0.00  0.00    +0.000 C 
ATOM     12  C   UNL     1      44.661   2.835   9.173  0.00  0.00    +0.000 C 
ATOM     13  N   UNL     1      45.877   3.297   8.474  0.00  0.00    +0.000 NA
ATOM     14  C   UNL     1      45.639   4.680   8.932  0.00  0.00    +0.000 C 
BRANCH  13  15
ATOM     15  C   UNL     1      45.701   3.211   7.014  0.00  0.00    +0.000 C 
BRANCH  15  16
ATOM     16  C   UNL     1      46.907   2.568   6.330  0.00  0.00    +0.000 C 
ATOM     17  F   UNL     1      47.887   2.391   7.262  0.00  0.00    +0.000 F 
ENDBRANCH  15  16
ENDBRANCH  13  15
ENDBRANCH  10  11
ENDBRANCH   8  10
ENDBRANCH   1   4
BRANCH   1  18
ATOM     18  C   UNL     1      48.435   7.430  13.993  0.00  0.00    +0.000 C 
BRANCH  18  23
ATOM     19  C   UNL     1      50.168   5.502  18.335  0.00  0.00    +0.000 A 
ATOM     20  C   UNL     1      50.822   5.708  17.127  0.00  0.00    +0.000 A 
ATOM     21  C   UNL     1      50.162   6.407  16.117  0.00  0.00    +0.000 A 
ATOM     22  C   UNL     1      48.864   6.879  16.328  0.00  0.00    +0.000 A 
ATOM     23  N   UNL     1      48.196   7.673  15.412  0.00  0.00    +0.000 N 
ATOM     24  N   UNL     1      48.212   6.647  17.480  0.00  0.00    +0.000 NA
ATOM     25  C   UNL     1      48.865   5.962  18.455  0.00  0.00    +0.000 A 
ATOM     26  H   UNL     1      47.225   7.793  15.694  0.00  0.00    +0.000 HD
BRANCH  19  28
ATOM     27  N   UNL     1      50.011   4.494  20.532  0.00  0.00    +0.000 N 
ATOM     28  C   UNL     1      50.810   4.813  19.474  0.00  0.00    +0.000 C 
ATOM     29  O   UNL     1      51.997   4.521  19.454  0.00  0.00    +0.000 OA
ATOM     30  H   UNL     1      50.431   3.936  21.264  0.00  0.00    +0.000 HD
ATOM     31  H   UNL     1      48.998   4.486  20.469  0.00  0.00    +0.000 HD
ENDBRANCH  19  28
ENDBRANCH  18  23
ENDBRANCH   1  18
TORSDOF 8
ENDMDL
