MODEL 1
REMARK VINA RESULT:    -8.107      0.000      0.000
REMARK INTER + INTRA:         -11.370
REMARK INTER:                 -10.476
REMARK INTRA:                  -0.894
REMARK UNBOUND:                -0.894
REMARK  Name = 
REMARK  5 active torsions:
REMARK  status: ('A' for Active; 'I' for Inactive)
REMARK    1  A    between atoms: C_2  and  C_3
REMARK    2  A    between atoms: C_6  and  N_7
REMARK    3  A    between atoms: N_7  and  C_8
REMARK    4  A    between atoms: C_8  and  C_9
REMARK    5  A    between atoms: C_11  and  C_12
REMARK                            x       y       z     vdW  Elec       q    Type
REMARK                         _______ _______ _______ _____ _____    ______ ____
ROOT
ATOM      1  C   UNL     1      43.307   6.204  11.320  0.00  0.00    +0.000 C 
ENDROOT
BRANCH   1   2
ATOM      2  C   UNL     1      43.626   4.757  10.982  0.00  0.00    +0.000 A 
ATOM      3  C   UNL     1      44.436   4.487   9.890  0.00  0.00    +0.000 A 
ATOM      4  C   UNL     1      44.710   3.163   9.602  0.00  0.00    +0.000 A 
ATOM      5  N   UNL     1      44.189   2.162  10.345  0.00  0.00    +0.000 NA
ATOM      6  C   UNL     1      43.421   2.522  11.383  0.00  0.00    +0.000 A 
ATOM      7  N   UNL     1      43.111   3.775  11.750  0.00  0.00    +0.000 NA
BRANCH   4   8
ATOM      8  C   UNL     1      45.566   2.764   8.465  0.00  0.00    +0.000 A 
ATOM      9  C   UNL     1      46.090   1.461   8.352  0.00  0.00    +0.000 A 
ATOM     10  C   UNL     1      46.929   1.100   7.295  0.00  0.00    +0.000 A 
ATOM     11  C   UNL     1      47.257   2.035   6.318  0.00  0.00    +0.000 A 
ATOM     12  C   UNL     1      46.740   3.324   6.393  0.00  0.00    +0.000 A 
ATOM     13  C   UNL     1      45.899   3.681   7.452  0.00  0.00    +0.000 A 
ENDBRANCH   4   8
ENDBRANCH   1   2
BRANCH   1  14
ATOM     14  N   UNL     1      43.876   6.523  12.625  0.00  0.00    +0.000 N 
ATOM     15  H   UNL     1      43.289   7.138  13.181  0.00  0.00    +0.000 HD
BRANCH  14  19
ATOM     16  C   UNL     1      47.961   7.345  12.570  0.00  0.00    +0.000 A 
ATOM     17  C   UNL     1      47.006   8.258  12.145  0.00  0.00    +0.000 A 
ATOM     18  N   UNL     1      45.663   8.041  12.193  0.00  0.00    +0.000 NA
ATOM     19  C   UNL     1      45.227   6.867  12.700  0.00  0.00    +0.000 A 
ATOM     20  C   UNL     1      46.141   5.911  13.169  0.00  0.00    +0.000 A 
ATOM     21  F   UNL     1      45.705   4.740  13.657  0.00  0.00    +0.000 F 
ATOM     22  C   UNL     1      47.512   6.142  13.101  0.00  0.00    +0.000 A 
BRANCH  16  24
ATOM     23  N   UNL     1      50.486   7.870  12.342  0.00  0.00    +0.000 NA
ATOM     24  C   UNL     1      49.357   7.630  12.443  0.00  0.00    +0.000 C 
ENDBRANCH  16  24
ENDBRANCH  14  19
ENDBRANCH   1  14
TORSDOF 5
ENDMDL
MODEL 2
REMARK VINA RESULT:    -7.998      2.294      6.197
REMARK INTER + INTRA:         -11.230
REMARK INTER:                 -10.971
REMARK INTRA:                  -0.259
REMARK UNBOUND:                -0.894
REMARK  Name = 
REMARK  5 active torsions:
REMARK  status: ('A' for Active; 'I' for Inactive)
REMARK    1  A    between atoms: C_2  and  C_3
REMARK    2  A    between atoms: C_6  and  N_7
REMARK    3  A    between atoms: N_7  and  C_8
REMARK    4  A    between atoms: C_8  and  C_9
REMARK    5  A    between atoms: C_11  and  C_12
REMARK                            x       y       z     vdW  Elec       q    Type
REMARK                         _______ _______ _______ _____ _____    ______ ____
ROOT
ATOM      1  C   UNL     1      43.574   4.476  11.230  0.00  0.00    +0.000 C 
ENDROOT
BRANCH   1   2
ATOM      2  C   UNL     1      44.859   4.836  11.958  0.00  0.00    +0.000 A 
ATOM      3  C   UNL     1      45.472   6.046  11.676  0.00  0.00    +0.000 A 
ATOM      4  C   UNL     1      46.641   6.350  12.349  0.00  0.00    +0.000 A 
ATOM      5  N   UNL     1      47.182   5.486  13.237  0.00  0.00    +0.000 NA
ATOM      6  C   UNL     1      46.515   4.342  13.446  0.00  0.00    +0.000 A 
ATOM      7  N   UNL     1      45.370   3.967  12.855  0.00  0.00    +0.000 NA
BRANCH   4   8
ATOM      8  C   UNL     1      47.373   7.615  12.129  0.00  0.00    +0.000 A 
ATOM      9  C   UNL     1      48.733   7.631  11.763  0.00  0.00    +0.000 A 
ATOM     10  C   UNL     1      49.428   8.831  11.592  0.00  0.00    +0.000 A 
ATOM     11  C   UNL     1      48.776  10.045  11.777  0.00  0.00    +0.000 A 
ATOM     12  C   UNL     1      47.428  10.060  12.121  0.00  0.00    +0.000 A 
ATOM     13  C   UNL     1      46.734   8.857  12.289  0.00  0.00    +0.000 A 
ENDBRANCH   4   8
ENDBRANCH   1   2
BRANCH   1  14
ATOM     14  N   UNL     1      43.751   4.723   9.804  0.00  0.00    +0.000 N 
ATOM     15  H   UNL     1      42.881   4.692   9.279  0.00  0.00    +0.000 HD
BRANCH  14  19
ATOM     16  C   UNL     1      46.635   2.703   7.575  0.00  0.00    +0.000 A 
ATOM     17  C   UNL     1      46.543   4.087   7.604  0.00  0.00    +0.000 A 
ATOM     18  N   UNL     1      45.645   4.781   8.357  0.00  0.00    +0.000 NA
ATOM     19  C   UNL     1      44.796   4.079   9.138  0.00  0.00    +0.000 A 
ATOM     20  C   UNL     1      44.852   2.677   9.172  0.00  0.00    +0.000 A 
ATOM     21  F   UNL     1      43.997   1.983   9.938  0.00  0.00    +0.000 F 
ATOM     22  C   UNL     1      45.768   1.982   8.388  0.00  0.00    +0.000 A 
BRANCH  16  24
ATOM     23  N   UNL     1      48.344   1.512   6.038  0.00  0.00    +0.000 NA
ATOM     24  C   UNL     1      47.577   2.047   6.722  0.00  0.00    +0.000 C 
ENDBRANCH  16  24
ENDBRANCH  14  19
ENDBRANCH   1  14
TORSDOF 5
ENDMDL
MODEL 3
REMARK VINA RESULT:    -7.921      1.193      1.444
REMARK INTER + INTRA:         -11.130
REMARK INTER:                 -10.410
REMARK INTRA:                  -0.720
REMARK UNBOUND:                -0.894
REMARK  Name = 
REMARK  5 active torsions:
REMARK  status: ('A' for Active; 'I' for Inactive)
REMARK    1  A    between atoms: C_2  and  C_3
REMARK    2  A    between atoms: C_6  and  N_7
REMARK    3  A    between atoms: N_7  and  C_8
REMARK    4  A    between atoms: C_8  and  C_9
REMARK    5  A    between atoms: C_11  and  C_12
REMARK                            x       y       z     vdW  Elec       q    Type
REMARK                         _______ _______ _______ _____ _____    ______ ____
ROOT
ATOM      1  C   UNL     1      43.184   6.152  11.200  0.00  0.00    +0.000 C 
ENDROOT
BRANCH   1   2
ATOM      2  C   UNL     1      43.550   4.709  10.891  0.00  0.00    +0.000 A 
ATOM      3  C   UNL     1      44.364   4.444   9.802  0.00  0.00    +0.000 A 
ATOM      4  C   UNL     1      44.682   3.124   9.540  0.00  0.00    +0.000 A 
ATOM      5  N   UNL     1      44.198   2.122  10.306  0.00  0.00    +0.000 NA
ATOM      6  C   UNL     1      43.422   2.478  11.340  0.00  0.00    +0.000 A 
ATOM      7  N   UNL     1      43.071   3.727  11.682  0.00  0.00    +0.000 NA
BRANCH   4   8
ATOM      8  C   UNL     1      45.547   2.730   8.407  0.00  0.00    +0.000 A 
ATOM      9  C   UNL     1      46.120   1.446   8.324  0.00  0.00    +0.000 A 
ATOM     10  C   UNL     1      46.966   1.092   7.270  0.00  0.00    +0.000 A 
ATOM     11  C   UNL     1      47.254   2.014   6.269  0.00  0.00    +0.000 A 
ATOM     12  C   UNL     1      46.687   3.283   6.316  0.00  0.00    +0.000 A 
ATOM     13  C   UNL     1      45.839   3.634   7.371  0.00  0.00    +0.000 A 
ENDBRANCH   4   8
ENDBRANCH   1   2
BRANCH   1  14
ATOM     14  N   UNL     1      43.734   6.512  12.502  0.00  0.00    +0.000 N 
ATOM     15  H   UNL     1      43.211   7.247  12.971  0.00  0.00    +0.000 HD
BRANCH  14  19
ATOM     16  C   UNL     1      47.788   7.258  13.112  0.00  0.00    +0.000 A 
ATOM     17  C   UNL     1      47.172   6.082  13.518  0.00  0.00    +0.000 A 
ATOM     18  N   UNL     1      45.862   5.786  13.293  0.00  0.00    +0.000 NA
ATOM     19  C   UNL     1      45.115   6.686  12.620  0.00  0.00    +0.000 A 
ATOM     20  C   UNL     1      45.683   7.884  12.161  0.00  0.00    +0.000 A 
ATOM     21  F   UNL     1      44.934   8.783  11.505  0.00  0.00    +0.000 F 
ATOM     22  C   UNL     1      47.021   8.178  12.409  0.00  0.00    +0.000 A 
BRANCH  16  24
ATOM     23  N   UNL     1      50.269   7.721  13.691  0.00  0.00    +0.000 NA
ATOM     24  C   UNL     1      49.160   7.515  13.427  0.00  0.00    +0.000 C 
ENDBRANCH  16  24
ENDBRANCH  14  19
ENDBRANCH   1  14
TORSDOF 5
ENDMDL
MODEL 4
REMARK VINA RESULT:    -7.684      2.742      6.664
REMARK INTER + INTRA:         -10.824
REMARK INTER:                 -10.404
REMARK INTRA:                  -0.420
REMARK UNBOUND:                -0.894
REMARK  Name = 
REMARK  5 active torsions:
REMARK  status: ('A' for Active; 'I' for Inactive)
REMARK    1  A    between atoms: C_2  and  C_3
REMARK    2  A    between atoms: C_6  and  N_7
REMARK    3  A    between atoms: N_7  and  C_8
REMARK    4  A    between atoms: C_8  and  C_9
REMARK    5  A    between atoms: C_11  and  C_12
REMARK                            x       y       z     vdW  Elec       q    Type
REMARK                         _______ _______ _______ _____ _____    ______ ____
ROOT
ATOM      1  C   UNL     1      43.801   4.541  11.232  0.00  0.00    +0.000 C 
ENDROOT
BRANCH   1   2
ATOM      2  C   UNL     1      44.942   5.325  11.861  0.00  0.00    +0.000 A 
ATOM      3  C   UNL     1      45.556   4.820  12.996  0.00  0.00    +0.000 A 
ATOM      4  C   UNL     1      46.590   5.551  13.550  0.00  0.00    +0.000 A 
ATOM      5  N   UNL     1      46.977   6.731  13.018  0.00  0.00    +0.000 NA
ATOM      6  C   UNL     1      46.326   7.136  11.918  0.00  0.00    +0.000 A 
ATOM      7  N   UNL     1      45.325   6.491  11.300  0.00  0.00    +0.000 NA
BRANCH   4   8
ATOM      8  C   UNL     1      47.316   5.101  14.757  0.00  0.00    +0.000 A 
ATOM      9  C   UNL     1      47.162   3.800  15.273  0.00  0.00    +0.000 A 
ATOM     10  C   UNL     1      47.823   3.392  16.435  0.00  0.00    +0.000 A 
ATOM     11  C   UNL     1      48.661   4.277  17.104  0.00  0.00    +0.000 A 
ATOM     12  C   UNL     1      48.848   5.563  16.607  0.00  0.00    +0.000 A 
ATOM     13  C   UNL     1      48.186   5.967  15.443  0.00  0.00    +0.000 A 
ENDBRANCH   4   8
ENDBRANCH   1   2
BRANCH   1  14
ATOM     14  N   UNL     1      43.857   4.703   9.783  0.00  0.00    +0.000 N 
ATOM     15  H   UNL     1      42.954   4.592   9.331  0.00  0.00    +0.000 HD
BRANCH  14  19
ATOM     16  C   UNL     1      46.682   2.717   7.450  0.00  0.00    +0.000 A 
ATOM     17  C   UNL     1      46.569   4.100   7.477  0.00  0.00    +0.000 A 
ATOM     18  N   UNL     1      45.691   4.783   8.262  0.00  0.00    +0.000 NA
ATOM     19  C   UNL     1      44.885   4.072   9.079  0.00  0.00    +0.000 A 
ATOM     20  C   UNL     1      44.965   2.672   9.117  0.00  0.00    +0.000 A 
ATOM     21  F   UNL     1      44.151   1.967   9.919  0.00  0.00    +0.000 F 
ATOM     22  C   UNL     1      45.859   1.987   8.299  0.00  0.00    +0.000 A 
BRANCH  16  24
ATOM     23  N   UNL     1      48.346   1.558   5.840  0.00  0.00    +0.000 NA
ATOM     24  C   UNL     1      47.599   2.073   6.562  0.00  0.00    +0.000 C 
ENDBRANCH  16  24
ENDBRANCH  14  19
ENDBRANCH   1  14
TORSDOF 5
ENDMDL
MODEL 5
REMARK VINA RESULT:    -7.225      2.432      2.846
REMARK INTER + INTRA:         -10.231
REMARK INTER:                  -9.671
REMARK INTRA:                  -0.560
REMARK UNBOUND:                -0.894
REMARK  Name = 
REMARK  5 active torsions:
REMARK  status: ('A' for Active; 'I' for Inactive)
REMARK    1  A    between atoms: C_2  and  C_3
REMARK    2  A    between atoms: C_6  and  N_7
REMARK    3  A    between atoms: N_7  and  C_8
REMARK    4  A    between atoms: C_8  and  C_9
REMARK    5  A    between atoms: C_11  and  C_12
REMARK                            x       y       z     vdW  Elec       q    Type
REMARK                         _______ _______ _______ _____ _____    ______ ____
ROOT
ATOM      1  C   UNL     1      44.858   5.962  12.446  0.00  0.00    +0.000 C 
ENDROOT
BRANCH   1   2
ATOM      2  C   UNL     1      44.531   4.696  11.671  0.00  0.00    +0.000 A 
ATOM      3  C   UNL     1      45.252   4.408  10.524  0.00  0.00    +0.000 A 
ATOM      4  C   UNL     1      44.935   3.251   9.835  0.00  0.00    +0.000 A 
ATOM      5  N   UNL     1      43.940   2.439  10.253  0.00  0.00    +0.000 NA
ATOM      6  C   UNL     1      43.302   2.798  11.377  0.00  0.00    +0.000 A 
ATOM      7  N   UNL     1      43.547   3.889  12.119  0.00  0.00    +0.000 NA
BRANCH   4   8
ATOM      8  C   UNL     1      45.644   2.847   8.603  0.00  0.00    +0.000 A 
ATOM      9  C   UNL     1      46.081   1.523   8.400  0.00  0.00    +0.000 A 
ATOM     10  C   UNL     1      46.784   1.155   7.250  0.00  0.00    +0.000 A 
ATOM     11  C   UNL     1      47.060   2.103   6.270  0.00  0.00    +0.000 A 
ATOM     12  C   UNL     1      46.624   3.414   6.435  0.00  0.00    +0.000 A 
ATOM     13  C   UNL     1      45.919   3.779   7.587  0.00  0.00    +0.000 A 
ENDBRANCH   4   8
ENDBRANCH   1   2
BRANCH   1  14
ATOM     14  N   UNL     1      46.306   6.134  12.485  0.00  0.00    +0.000 N 
ATOM     15  H   UNL     1      46.771   5.821  11.637  0.00  0.00    +0.000 HD
BRANCH  14  19
ATOM     16  C   UNL     1      48.177   5.244  16.101  0.00  0.00    +0.000 A 
ATOM     17  C   UNL     1      47.210   4.425  15.535  0.00  0.00    +0.000 A 
ATOM     18  N   UNL     1      46.613   4.660  14.334  0.00  0.00    +0.000 NA
ATOM     19  C   UNL     1      46.994   5.754  13.639  0.00  0.00    +0.000 A 
ATOM     20  C   UNL     1      47.984   6.610  14.145  0.00  0.00    +0.000 A 
ATOM     21  F   UNL     1      48.350   7.703  13.459  0.00  0.00    +0.000 F 
ATOM     22  C   UNL     1      48.577   6.363  15.380  0.00  0.00    +0.000 A 
BRANCH  16  24
ATOM     23  N   UNL     1      49.167   4.707  18.432  0.00  0.00    +0.000 NA
ATOM     24  C   UNL     1      48.724   4.952  17.390  0.00  0.00    +0.000 C 
ENDBRANCH  16  24
ENDBRANCH  14  19
ENDBRANCH   1  14
TORSDOF 5
ENDMDL
MODEL 6
REMARK VINA RESULT:    -7.166      2.931      3.203
REMARK INTER + INTRA:         -10.154
REMARK INTER:                  -9.686
REMARK INTRA:                  -0.468
REMARK UNBOUND:                -0.894
REMARK  Name = 
REMARK  5 active torsions:
REMARK  status: ('A' for Active; 'I' for Inactive)
REMARK    1  A    between atoms: C_2  and  C_3
REMARK    2  A    between atoms: C_6  and  N_7
REMARK    3  A    between atoms: N_7  and  C_8
REMARK    4  A    between atoms: C_8  and  C_9
REMARK    5  A    between atoms: C_11  and  C_12
REMARK                            x       y       z     vdW  Elec       q    Type
REMARK                         _______ _______ _______ _____ _____    ______ ____
ROOT
ATOM      1  C   UNL     1      45.466   4.880  13.586  0.00  0.00    +0.000 C 
ENDROOT
BRANCH   1   2
ATOM      2  C   UNL     1      44.870   3.998  12.501  0.00  0.00    +0.000 A 
ATOM      3  C   UNL     1      45.532   3.888  11.289  0.00  0.00    +0.000 A 
ATOM      4  C   UNL     1      44.969   3.081  10.317  0.00  0.00    +0.000 A 
ATOM      5  N   UNL     1      43.800   2.438  10.532  0.00  0.00    +0.000 NA
ATOM      6  C   UNL     1      43.236   2.603  11.737  0.00  0.00    +0.000 A 
ATOM      7  N   UNL     1      43.712   3.350  12.746  0.00  0.00    +0.000 NA
BRANCH   4   8
ATOM      8  C   UNL     1      45.594   2.888   8.992  0.00  0.00    +0.000 A 
ATOM      9  C   UNL     1      46.000   1.617   8.542  0.00  0.00    +0.000 A 
ATOM     10  C   UNL     1      46.624   1.446   7.303  0.00  0.00    +0.000 A 
ATOM     11  C   UNL     1      46.851   2.546   6.482  0.00  0.00    +0.000 A 
ATOM     12  C   UNL     1      46.444   3.811   6.892  0.00  0.00    +0.000 A 
ATOM     13  C   UNL     1      45.818   3.978   8.132  0.00  0.00    +0.000 A 
ENDBRANCH   4   8
ENDBRANCH   1   2
BRANCH   1  14
ATOM     14  N   UNL     1      46.508   4.134  14.285  0.00  0.00    +0.000 N 
ATOM     15  H   UNL     1      46.192   3.235  14.635  0.00  0.00    +0.000 HD
BRANCH  14  19
ATOM     16  C   UNL     1      49.141   5.891  16.995  0.00  0.00    +0.000 A 
ATOM     17  C   UNL     1      48.964   6.368  15.704  0.00  0.00    +0.000 A 
ATOM     18  N   UNL     1      48.079   5.849  14.808  0.00  0.00    +0.000 NA
ATOM     19  C   UNL     1      47.312   4.810  15.204  0.00  0.00    +0.000 A 
ATOM     20  C   UNL     1      47.425   4.296  16.505  0.00  0.00    +0.000 A 
ATOM     21  F   UNL     1      46.672   3.254  16.889  0.00  0.00    +0.000 F 
ATOM     22  C   UNL     1      48.343   4.830  17.405  0.00  0.00    +0.000 A 
BRANCH  16  24
ATOM     23  N   UNL     1      50.928   6.926  18.556  0.00  0.00    +0.000 NA
ATOM     24  C   UNL     1      50.125   6.463  17.861  0.00  0.00    +0.000 C 
ENDBRANCH  16  24
ENDBRANCH  14  19
ENDBRANCH   1  14
TORSDOF 5
ENDMDL
MODEL 7
REMARK VINA RESULT:    -7.086      2.602      3.177
REMARK INTER + INTRA:         -10.051
REMARK INTER:                  -9.385
REMARK INTRA:                  -0.666
REMARK UNBOUND:                -0.894
REMARK  Name = 
REMARK  5 active torsions:
REMARK  status: ('A' for Active; 'I' for Inactive)
REMARK    1  A    between atoms: C_2  and  C_3
REMARK    2  A    between atoms: C_6  and  N_7
REMARK    3  A    between atoms: N_7  and  C_8
REMARK    4  A    between atoms: C_8  and  C_9
REMARK    5  A    between atoms: C_11  and  C_12
REMARK                            x       y       z     vdW  Elec       q    Type
REMARK                         _______ _______ _______ _____ _____    ______ ____
ROOT
ATOM      1  C   UNL     1      45.937   7.019  12.444  0.00  0.00    +0.000 C 
ENDROOT
BRANCH   1   2
ATOM      2  C   UNL     1      45.109   6.084  11.577  0.00  0.00    +0.000 A 
ATOM      3  C   UNL     1      45.756   5.276  10.656  0.00  0.00    +0.000 A 
ATOM      4  C   UNL     1      44.981   4.435   9.879  0.00  0.00    +0.000 A 
ATOM      5  N   UNL     1      43.635   4.417   9.995  0.00  0.00    +0.000 NA
ATOM      6  C   UNL     1      43.100   5.231  10.917  0.00  0.00    +0.000 A 
ATOM      7  N   UNL     1      43.768   6.068  11.725  0.00  0.00    +0.000 NA
BRANCH   4   8
ATOM      8  C   UNL     1      45.568   3.527   8.871  0.00  0.00    +0.000 A 
ATOM      9  C   UNL     1      45.522   2.127   9.018  0.00  0.00    +0.000 A 
ATOM     10  C   UNL     1      46.112   1.275   8.080  0.00  0.00    +0.000 A 
ATOM     11  C   UNL     1      46.756   1.806   6.967  0.00  0.00    +0.000 A 
ATOM     12  C   UNL     1      46.801   3.184   6.786  0.00  0.00    +0.000 A 
ATOM     13  C   UNL     1      46.208   4.034   7.726  0.00  0.00    +0.000 A 
ENDBRANCH   4   8
ENDBRANCH   1   2
BRANCH   1  14
ATOM     14  N   UNL     1      47.217   6.383  12.740  0.00  0.00    +0.000 N 
ATOM     15  H   UNL     1      47.481   5.676  12.060  0.00  0.00    +0.000 HD
BRANCH  14  19
ATOM     16  C   UNL     1      48.221   4.955  16.523  0.00  0.00    +0.000 A 
ATOM     17  C   UNL     1      48.657   6.183  16.044  0.00  0.00    +0.000 A 
ATOM     18  N   UNL     1      48.310   6.701  14.834  0.00  0.00    +0.000 NA
ATOM     19  C   UNL     1      47.477   5.982  14.052  0.00  0.00    +0.000 A 
ATOM     20  C   UNL     1      46.981   4.744  14.487  0.00  0.00    +0.000 A 
ATOM     21  F   UNL     1      46.165   4.025  13.701  0.00  0.00    +0.000 F 
ATOM     22  C   UNL     1      47.355   4.222  15.722  0.00  0.00    +0.000 A 
BRANCH  16  24
ATOM     23  N   UNL     1      49.033   4.068  18.816  0.00  0.00    +0.000 NA
ATOM     24  C   UNL     1      48.668   4.460  17.789  0.00  0.00    +0.000 C 
ENDBRANCH  16  24
ENDBRANCH  14  19
ENDBRANCH   1  14
TORSDOF 5
ENDMDL
MODEL 8
REMARK VINA RESULT:    -6.280      4.052      6.318
REMARK INTER + INTRA:          -9.009
REMARK INTER:                  -8.251
REMARK INTRA:                  -0.758
REMARK UNBOUND:                -0.894
REMARK  Name = 
REMARK  5 active torsions:
REMARK  status: ('A' for Active; 'I' for Inactive)
REMARK    1  A    between atoms: C_2  and  C_3
REMARK    2  A    between atoms: C_6  and  N_7
REMARK    3  A    between atoms: N_7  and  C_8
REMARK    4  A    between atoms: C_8  and  C_9
REMARK    5  A    between atoms: C_11  and  C_12
REMARK                            x       y       z     vdW  Elec       q    Type
REMARK                         _______ _______ _______ _____ _____    ______ ____
ROOT
ATOM      1  C   UNL     1      48.882   6.983  15.402  0.00  0.00    +0.000 C 
ENDROOT
BRANCH   1   2
ATOM      2  C   UNL     1      48.311   6.935  13.994  0.00  0.00    +0.000 A 
ATOM      3  C   UNL     1      47.167   6.189  13.760  0.00  0.00    +0.000 A 
ATOM      4  C   UNL     1      46.668   6.160  12.471  0.00  0.00    +0.000 A 
ATOM      5  N   UNL     1      47.286   6.818  11.466  0.00  0.00    +0.000 NA
ATOM      6  C   UNL     1      48.384   7.516  11.790  0.00  0.00    +0.000 A 
ATOM      7  N   UNL     1      48.934   7.617  13.010  0.00  0.00    +0.000 NA
BRANCH   4   8
ATOM      8  C   UNL     1      45.451   5.401  12.113  0.00  0.00    +0.000 A 
ATOM      9  C   UNL     1      45.022   5.275  10.777  0.00  0.00    +0.000 A 
ATOM     10  C   UNL     1      43.850   4.588  10.449  0.00  0.00    +0.000 A 
ATOM     11  C   UNL     1      43.083   4.003  11.451  0.00  0.00    +0.000 A 
ATOM     12  C   UNL     1      43.492   4.096  12.777  0.00  0.00    +0.000 A 
ATOM     13  C   UNL     1      44.666   4.783  13.102  0.00  0.00    +0.000 A 
ENDBRANCH   4   8
ENDBRANCH   1   2
BRANCH   1  14
ATOM     14  N   UNL     1      48.185   6.005  16.230  0.00  0.00    +0.000 N 
ATOM     15  H   UNL     1      47.599   6.427  16.944  0.00  0.00    +0.000 HD
BRANCH  14  19
ATOM     16  C   UNL     1      50.354   2.622  17.333  0.00  0.00    +0.000 A 
ATOM     17  C   UNL     1      50.892   3.900  17.361  0.00  0.00    +0.000 A 
ATOM     18  N   UNL     1      50.200   5.032  17.053  0.00  0.00    +0.000 NA
ATOM     19  C   UNL     1      48.899   4.906  16.711  0.00  0.00    +0.000 A 
ATOM     20  C   UNL     1      48.288   3.643  16.687  0.00  0.00    +0.000 A 
ATOM     21  F   UNL     1      47.000   3.521  16.333  0.00  0.00    +0.000 F 
ATOM     22  C   UNL     1      49.012   2.495  16.993  0.00  0.00    +0.000 A 
BRANCH  16  24
ATOM     23  N   UNL     1      51.820   0.553  17.857  0.00  0.00    +0.000 NA
ATOM     24  C   UNL     1      51.161   1.478  17.627  0.00  0.00    +0.000 C 
ENDBRANCH  16  24
ENDBRANCH  14  19
ENDBRANCH   1  14
TORSDOF 5
ENDMDL
MODEL 9
REMARK VINA RESULT:    -5.712      5.034      8.071
REMARK INTER + INTRA:          -8.275
REMARK INTER:                  -7.828
REMARK INTRA:                  -0.447
REMARK UNBOUND:                -0.894
REMARK  Name = 
REMARK  5 active torsions:
REMARK  status: ('A' for Active; 'I' for Inactive)
REMARK    1  A    between atoms: C_2  and  C_3
REMARK    2  A    between atoms: C_6  and  N_7
REMARK    3  A    between atoms: N_7  and  C_8
REMARK    4  A    between atoms: C_8  and  C_9
REMARK    5  A    between atoms: C_11  and  C_12
REMARK                            x       y       z     vdW  Elec       q    Type
REMARK                         _______ _______ _______ _____ _____    ______ ____
ROOT
ATOM      1  C   UNL     1      47.151   5.076  14.821  0.00  0.00    +0.000 C 
ENDROOT
BRANCH   1   2
ATOM      2  C   UNL     1      47.595   4.241  16.011  0.00  0.00    +0.000 A 
ATOM      3  C   UNL     1      48.950   4.103  16.265  0.00  0.00    +0.000 A 
ATOM      4  C   UNL     1      49.328   3.336  17.352  0.00  0.00    +0.000 A 
ATOM      5  N   UNL     1      48.409   2.723  18.130  0.00  0.00    +0.000 NA
ATOM      6  C   UNL     1      47.123   2.919  17.808  0.00  0.00    +0.000 A 
ATOM      7  N   UNL     1      46.659   3.654  16.786  0.00  0.00    +0.000 NA
BRANCH   4   8
ATOM      8  C   UNL     1      50.746   3.129  17.716  0.00  0.00    +0.000 A 
ATOM      9  C   UNL     1      51.381   1.883  17.542  0.00  0.00    +0.000 A 
ATOM     10  C   UNL     1      52.711   1.683  17.922  0.00  0.00    +0.000 A 
ATOM     11  C   UNL     1      53.439   2.728  18.480  0.00  0.00    +0.000 A 
ATOM     12  C   UNL     1      52.844   3.974  18.646  0.00  0.00    +0.000 A 
ATOM     13  C   UNL     1      51.513   4.172  18.263  0.00  0.00    +0.000 A 
ENDBRANCH   4   8
ENDBRANCH   1   2
BRANCH   1  14
ATOM     14  N   UNL     1      45.761   4.761  14.512  0.00  0.00    +0.000 N 
ATOM     15  H   UNL     1      45.372   4.033  15.105  0.00  0.00    +0.000 HD
BRANCH  14  19
ATOM     16  C   UNL     1      44.995   4.355  10.436  0.00  0.00    +0.000 A 
ATOM     17  C   UNL     1      45.004   3.276  11.309  0.00  0.00    +0.000 A 
ATOM     18  N   UNL     1      45.204   3.377  12.652  0.00  0.00    +0.000 NA
ATOM     19  C   UNL     1      45.392   4.609  13.174  0.00  0.00    +0.000 A 
ATOM     20  C   UNL     1      45.370   5.743  12.349  0.00  0.00    +0.000 A 
ATOM     21  F   UNL     1      45.572   6.964  12.869  0.00  0.00    +0.000 F 
ATOM     22  C   UNL     1      45.177   5.622  10.976  0.00  0.00    +0.000 A 
BRANCH  16  24
ATOM     23  N   UNL     1      44.687   4.011   7.888  0.00  0.00    +0.000 NA
ATOM     24  C   UNL     1      44.824   4.160   9.029  0.00  0.00    +0.000 C 
ENDBRANCH  16  24
ENDBRANCH  14  19
ENDBRANCH   1  14
TORSDOF 5
ENDMDL
