MODEL 1
REMARK VINA RESULT:    -9.395      0.000      0.000
REMARK INTER + INTRA:         -13.126
REMARK INTER:                 -12.691
REMARK INTRA:                  -0.435
REMARK UNBOUND:                -0.435
REMARK  Name = 
REMARK  7 active torsions:
REMARK  status: ('A' for Active; 'I' for Inactive)
REMARK    1  A    between atoms: C_1  and  O_2
REMARK    2  A    between atoms: O_2  and  C_3
REMARK    3  A    between atoms: C_6  and  C_7
REMARK    4  A    between atoms: C_11  and  C_12
REMARK    5  A    between atoms: C_12  and  N_13
REMARK    6  A    between atoms: N_13  and  C_14
REMARK    7  A    between atoms: C_17  and  C_18
REMARK                            x       y       z     vdW  Elec       q    Type
REMARK                         _______ _______ _______ _____ _____    ______ ____
ROOT
ATOM      1  C   UNL     1      43.866   4.993  11.447  0.00  0.00    +0.000 C 
ATOM      2  C   UNL     1      42.648   5.218  12.318  0.00  0.00    +0.000 C 
ATOM      3  C   UNL     1      43.232   3.848  12.236  0.00  0.00    +0.000 C 
ENDROOT
BRANCH   1   8
ATOM      4  C   UNL     1      46.998   5.510  13.648  0.00  0.00    +0.000 A 
ATOM      5  C   UNL     1      47.684   6.472  12.887  0.00  0.00    +0.000 A 
ATOM      6  C   UNL     1      47.173   6.933  11.673  0.00  0.00    +0.000 A 
ATOM      7  C   UNL     1      45.950   6.456  11.206  0.00  0.00    +0.000 A 
ATOM      8  C   UNL     1      45.211   5.514  11.934  0.00  0.00    +0.000 A 
ATOM      9  C   UNL     1      45.767   5.051  13.145  0.00  0.00    +0.000 A 
BRANCH   4  13
ATOM     10  C   UNL     1      48.629   4.127  17.313  0.00  0.00    +0.000 A 
ATOM     11  C   UNL     1      47.725   3.308  16.662  0.00  0.00    +0.000 A 
ATOM     12  C   UNL     1      47.176   3.751  15.456  0.00  0.00    +0.000 A 
ATOM     13  C   UNL     1      47.550   4.987  14.915  0.00  0.00    +0.000 A 
ATOM     14  C   UNL     1      48.494   5.708  15.652  0.00  0.00    +0.000 A 
ATOM     15  N   UNL     1      49.037   5.316  16.827  0.00  0.00    +0.000 NA
BRANCH  10  17
ATOM     16  C   UNL     1      48.660   4.479  19.615  0.00  0.00    +0.000 C 
ATOM     17  O   UNL     1      49.118   3.684  18.524  0.00  0.00    +0.000 OA
ENDBRANCH  10  17
ENDBRANCH   4  13
ENDBRANCH   1   8
BRANCH   1  18
ATOM     18  N   UNL     1      43.799   4.792   9.993  0.00  0.00    +0.000 N 
ATOM     19  H   UNL     1      42.883   4.964   9.590  0.00  0.00    +0.000 HD
BRANCH  18  20
ATOM     20  C   UNL     1      44.565   3.903   9.220  0.00  0.00    +0.000 A 
ATOM     21  C   UNL     1      44.602   2.520   9.401  0.00  0.00    +0.000 A 
ATOM     22  C   UNL     1      45.496   1.724   8.667  0.00  0.00    +0.000 A 
ATOM     23  C   UNL     1      46.384   2.307   7.753  0.00  0.00    +0.000 A 
ATOM     24  C   UNL     1      46.362   3.689   7.571  0.00  0.00    +0.000 A 
ATOM     25  C   UNL     1      45.463   4.471   8.300  0.00  0.00    +0.000 A 
BRANCH  23  26
ATOM     26  C   UNL     1      47.368   1.446   7.048  0.00  0.00    +0.000 C 
ATOM     27  N   UNL     1      48.501   2.041   6.560  0.00  0.00    +0.000 N 
ATOM     28  O   UNL     1      47.176   0.246   6.888  0.00  0.00    +0.000 OA
ATOM     29  H   UNL     1      48.605   3.041   6.472  0.00  0.00    +0.000 HD
ATOM     30  H   UNL     1      49.130   1.451   6.029  0.00  0.00    +0.000 HD
ENDBRANCH  23  26
ENDBRANCH  18  20
ENDBRANCH   1  18
TORSDOF 6
ENDMDL
MODEL 2
REMARK VINA RESULT:    -8.022      1.687      7.941
REMARK INTER + INTRA:         -11.270
REMARK INTER:                 -10.202
REMARK INTRA:                  -1.068
REMARK UNBOUND:                -0.435
REMARK  Name = 
REMARK  7 active torsions:
REMARK  status: ('A' for Active; 'I' for Inactive)
REMARK    1  A    between atoms: C_1  and  O_2
REMARK    2  A    between atoms: O_2  and  C_3
REMARK    3  A    between atoms: C_6  and  C_7
REMARK    4  A    between atoms: C_11  and  C_12
REMARK    5  A    between atoms: C_12  and  N_13
REMARK    6  A    between atoms: N_13  and  C_14
REMARK    7  A    between atoms: C_17  and  C_18
REMARK                            x       y       z     vdW  Elec       q    Type
REMARK                         _______ _______ _______ _____ _____    ______ ____
ROOT
ATOM      1  C   UNL     1      46.109   7.633  12.509  0.00  0.00    +0.000 C 
ATOM      2  C   UNL     1      45.494   8.882  13.106  0.00  0.00    +0.000 C 
ATOM      3  C   UNL     1      46.271   8.996  11.837  0.00  0.00    +0.000 C 
ENDROOT
BRANCH   1   8
ATOM      4  C   UNL     1      44.878   4.811  10.176  0.00  0.00    +0.000 A 
ATOM      5  C   UNL     1      43.519   4.769  10.529  0.00  0.00    +0.000 A 
ATOM      6  C   UNL     1      43.000   5.608  11.516  0.00  0.00    +0.000 A 
ATOM      7  C   UNL     1      43.831   6.525  12.157  0.00  0.00    +0.000 A 
ATOM      8  C   UNL     1      45.190   6.627  11.830  0.00  0.00    +0.000 A 
ATOM      9  C   UNL     1      45.686   5.748  10.845  0.00  0.00    +0.000 A 
BRANCH   4  13
ATOM     10  C   UNL     1      46.565   2.291   7.208  0.00  0.00    +0.000 A 
ATOM     11  C   UNL     1      45.957   1.688   8.293  0.00  0.00    +0.000 A 
ATOM     12  C   UNL     1      45.400   2.504   9.281  0.00  0.00    +0.000 A 
ATOM     13  C   UNL     1      45.443   3.898   9.160  0.00  0.00    +0.000 A 
ATOM     14  C   UNL     1      46.059   4.385   8.004  0.00  0.00    +0.000 A 
ATOM     15  N   UNL     1      46.618   3.626   7.035  0.00  0.00    +0.000 NA
BRANCH  10  17
ATOM     16  C   UNL     1      47.938   2.180   5.330  0.00  0.00    +0.000 C 
ATOM     17  O   UNL     1      47.147   1.460   6.273  0.00  0.00    +0.000 OA
ENDBRANCH  10  17
ENDBRANCH   4  13
ENDBRANCH   1   8
BRANCH   1  18
ATOM     18  N   UNL     1      47.385   7.061  12.959  0.00  0.00    +0.000 N 
ATOM     19  H   UNL     1      48.094   7.002  12.235  0.00  0.00    +0.000 HD
BRANCH  18  20
ATOM     20  C   UNL     1      47.581   6.113  13.978  0.00  0.00    +0.000 A 
ATOM     21  C   UNL     1      46.967   4.861  14.029  0.00  0.00    +0.000 A 
ATOM     22  C   UNL     1      47.120   4.033  15.152  0.00  0.00    +0.000 A 
ATOM     23  C   UNL     1      47.877   4.455  16.253  0.00  0.00    +0.000 A 
ATOM     24  C   UNL     1      48.487   5.709  16.217  0.00  0.00    +0.000 A 
ATOM     25  C   UNL     1      48.335   6.522  15.091  0.00  0.00    +0.000 A 
BRANCH  23  26
ATOM     26  C   UNL     1      47.957   3.586  17.454  0.00  0.00    +0.000 C 
ATOM     27  N   UNL     1      46.891   2.769  17.723  0.00  0.00    +0.000 N 
ATOM     28  O   UNL     1      48.932   3.603  18.198  0.00  0.00    +0.000 OA
ATOM     29  H   UNL     1      45.991   2.872  17.279  0.00  0.00    +0.000 HD
ATOM     30  H   UNL     1      46.937   2.230  18.579  0.00  0.00    +0.000 HD
ENDBRANCH  23  26
ENDBRANCH  18  20
ENDBRANCH   1  18
TORSDOF 6
ENDMDL
MODEL 3
REMARK VINA RESULT:    -7.338      3.141      8.567
REMARK INTER + INTRA:         -10.347
REMARK INTER:                  -9.407
REMARK INTRA:                  -0.940
REMARK UNBOUND:                -0.435
REMARK  Name = 
REMARK  7 active torsions:
REMARK  status: ('A' for Active; 'I' for Inactive)
REMARK    1  A    between atoms: C_1  and  O_2
REMARK    2  A    between atoms: O_2  and  C_3
REMARK    3  A    between atoms: C_6  and  C_7
REMARK    4  A    between atoms: C_11  and  C_12
REMARK    5  A    between atoms: C_12  and  N_13
REMARK    6  A    between atoms: N_13  and  C_14
REMARK    7  A    between atoms: C_17  and  C_18
REMARK                            x       y       z     vdW  Elec       q    Type
REMARK                         _______ _______ _______ _____ _____    ______ ____
ROOT
ATOM      1  C   UNL     1      48.450   4.981  17.414  0.00  0.00    +0.000 C 
ATOM      2  C   UNL     1      47.315   4.085  17.864  0.00  0.00    +0.000 C 
ATOM      3  C   UNL     1      47.478   5.421  18.509  0.00  0.00    +0.000 C 
ENDROOT
BRANCH   1   8
ATOM      4  C   UNL     1      47.353   5.745  13.790  0.00  0.00    +0.000 A 
ATOM      5  C   UNL     1      48.110   6.902  13.537  0.00  0.00    +0.000 A 
ATOM      6  C   UNL     1      48.941   7.451  14.514  0.00  0.00    +0.000 A 
ATOM      7  C   UNL     1      49.048   6.839  15.761  0.00  0.00    +0.000 A 
ATOM      8  C   UNL     1      48.334   5.672  16.062  0.00  0.00    +0.000 A 
ATOM      9  C   UNL     1      47.485   5.156  15.060  0.00  0.00    +0.000 A 
BRANCH   4  13
ATOM     10  C   UNL     1      44.702   4.027  10.957  0.00  0.00    +0.000 A 
ATOM     11  C   UNL     1      45.151   5.312  10.720  0.00  0.00    +0.000 A 
ATOM     12  C   UNL     1      46.021   5.894  11.645  0.00  0.00    +0.000 A 
ATOM     13  C   UNL     1      46.440   5.180  12.774  0.00  0.00    +0.000 A 
ATOM     14  C   UNL     1      45.939   3.880  12.887  0.00  0.00    +0.000 A 
ATOM     15  N   UNL     1      45.087   3.290  12.018  0.00  0.00    +0.000 NA
BRANCH  10  17
ATOM     16  C   UNL     1      44.391   2.470   9.253  0.00  0.00    +0.000 C 
ATOM     17  O   UNL     1      43.807   3.497  10.051  0.00  0.00    +0.000 OA
ENDBRANCH  10  17
ENDBRANCH   4  13
ENDBRANCH   1   8
BRANCH   1  18
ATOM     18  N   UNL     1      49.831   4.846  17.895  0.00  0.00    +0.000 N 
ATOM     19  H   UNL     1      50.339   5.722  17.957  0.00  0.00    +0.000 HD
BRANCH  18  20
ATOM     20  C   UNL     1      50.686   3.743  17.728  0.00  0.00    +0.000 A 
ATOM     21  C   UNL     1      50.274   2.469  17.333  0.00  0.00    +0.000 A 
ATOM     22  C   UNL     1      51.179   1.395  17.320  0.00  0.00    +0.000 A 
ATOM     23  C   UNL     1      52.509   1.577  17.723  0.00  0.00    +0.000 A 
ATOM     24  C   UNL     1      52.928   2.844  18.128  0.00  0.00    +0.000 A 
ATOM     25  C   UNL     1      52.023   3.907  18.130  0.00  0.00    +0.000 A 
BRANCH  23  26
ATOM     26  C   UNL     1      53.420   0.406  17.768  0.00  0.00    +0.000 C 
ATOM     27  N   UNL     1      53.740  -0.199  16.581  0.00  0.00    +0.000 N 
ATOM     28  O   UNL     1      53.863  -0.026  18.827  0.00  0.00    +0.000 OA
ATOM     29  H   UNL     1      53.241  -0.026  15.722  0.00  0.00    +0.000 HD
ATOM     30  H   UNL     1      54.312  -1.033  16.637  0.00  0.00    +0.000 HD
ENDBRANCH  23  26
ENDBRANCH  18  20
ENDBRANCH   1  18
TORSDOF 6
ENDMDL
MODEL 4
REMARK VINA RESULT:    -7.106      2.817      4.823
REMARK INTER + INTRA:         -10.033
REMARK INTER:                  -9.111
REMARK INTRA:                  -0.923
REMARK UNBOUND:                -0.435
REMARK  Name = 
REMARK  7 active torsions:
REMARK  status: ('A' for Active; 'I' for Inactive)
REMARK    1  A    between atoms: C_1  and  O_2
REMARK    2  A    between atoms: O_2  and  C_3
REMARK    3  A    between atoms: C_6  and  C_7
REMARK    4  A    between atoms: C_11  and  C_12
REMARK    5  A    between atoms: C_12  and  N_13
REMARK    6  A    between atoms: N_13  and  C_14
REMARK    7  A    between atoms: C_17  and  C_18
REMARK                            x       y       z     vdW  Elec       q    Type
REMARK                         _______ _______ _______ _____ _____    ______ ____
ROOT
ATOM      1  C   UNL     1      47.690   8.152  13.448  0.00  0.00    +0.000 C 
ATOM      2  C   UNL     1      48.690   8.336  12.327  0.00  0.00    +0.000 C 
ATOM      3  C   UNL     1      47.969   9.532  12.854  0.00  0.00    +0.000 C 
ENDROOT
BRANCH   1   8
ATOM      4  C   UNL     1      49.163   6.284  16.492  0.00  0.00    +0.000 A 
ATOM      5  C   UNL     1      49.175   7.321  17.441  0.00  0.00    +0.000 A 
ATOM      6  C   UNL     1      48.746   8.608  17.113  0.00  0.00    +0.000 A 
ATOM      7  C   UNL     1      48.273   8.878  15.830  0.00  0.00    +0.000 A 
ATOM      8  C   UNL     1      48.216   7.879  14.850  0.00  0.00    +0.000 A 
ATOM      9  C   UNL     1      48.681   6.595  15.208  0.00  0.00    +0.000 A 
BRANCH   4  13
ATOM     10  C   UNL     1      50.474   2.343  17.360  0.00  0.00    +0.000 A 
ATOM     11  C   UNL     1      51.331   3.386  17.657  0.00  0.00    +0.000 A 
ATOM     12  C   UNL     1      50.916   4.689  17.374  0.00  0.00    +0.000 A 
ATOM     13  C   UNL     1      49.653   4.929  16.819  0.00  0.00    +0.000 A 
ATOM     14  C   UNL     1      48.868   3.795  16.592  0.00  0.00    +0.000 A 
ATOM     15  N   UNL     1      49.242   2.520  16.843  0.00  0.00    +0.000 NA
BRANCH  10  17
ATOM     16  C   UNL     1      52.354   0.998  17.645  0.00  0.00    +0.000 C 
ATOM     17  O   UNL     1      50.930   1.065  17.607  0.00  0.00    +0.000 OA
ENDBRANCH  10  17
ENDBRANCH   4  13
ENDBRANCH   1   8
BRANCH   1  18
ATOM     18  N   UNL     1      46.306   7.708  13.238  0.00  0.00    +0.000 N 
ATOM     19  H   UNL     1      45.656   8.010  13.956  0.00  0.00    +0.000 HD
BRANCH  18  20
ATOM     20  C   UNL     1      45.877   6.537  12.588  0.00  0.00    +0.000 A 
ATOM     21  C   UNL     1      45.516   6.461  11.242  0.00  0.00    +0.000 A 
ATOM     22  C   UNL     1      44.975   5.279  10.711  0.00  0.00    +0.000 A 
ATOM     23  C   UNL     1      44.768   4.159  11.527  0.00  0.00    +0.000 A 
ATOM     24  C   UNL     1      45.117   4.227  12.876  0.00  0.00    +0.000 A 
ATOM     25  C   UNL     1      45.663   5.405  13.393  0.00  0.00    +0.000 A 
BRANCH  23  26
ATOM     26  C   UNL     1      44.126   2.951  10.952  0.00  0.00    +0.000 C 
ATOM     27  N   UNL     1      44.752   2.334   9.901  0.00  0.00    +0.000 N 
ATOM     28  O   UNL     1      43.062   2.519  11.382  0.00  0.00    +0.000 OA
ATOM     29  H   UNL     1      45.499   2.763   9.376  0.00  0.00    +0.000 HD
ATOM     30  H   UNL     1      44.269   1.549   9.482  0.00  0.00    +0.000 HD
ENDBRANCH  23  26
ENDBRANCH  18  20
ENDBRANCH   1  18
TORSDOF 6
ENDMDL
MODEL 5
REMARK VINA RESULT:    -6.892      3.202      8.151
REMARK INTER + INTRA:          -9.745
REMARK INTER:                  -8.424
REMARK INTRA:                  -1.320
REMARK UNBOUND:                -0.435
REMARK  Name = 
REMARK  7 active torsions:
REMARK  status: ('A' for Active; 'I' for Inactive)
REMARK    1  A    between atoms: C_1  and  O_2
REMARK    2  A    between atoms: O_2  and  C_3
REMARK    3  A    between atoms: C_6  and  C_7
REMARK    4  A    between atoms: C_11  and  C_12
REMARK    5  A    between atoms: C_12  and  N_13
REMARK    6  A    between atoms: N_13  and  C_14
REMARK    7  A    between atoms: C_17  and  C_18
REMARK                            x       y       z     vdW  Elec       q    Type
REMARK                         _______ _______ _______ _____ _____    ______ ____
ROOT
ATOM      1  C   UNL     1      49.117   8.447  17.110  0.00  0.00    +0.000 C 
ATOM      2  C   UNL     1      47.889   9.230  17.525  0.00  0.00    +0.000 C 
ATOM      3  C   UNL     1      49.212   9.920  17.507  0.00  0.00    +0.000 C 
ENDROOT
BRANCH   1   8
ATOM      4  C   UNL     1      48.421   7.053  13.575  0.00  0.00    +0.000 A 
ATOM      5  C   UNL     1      49.600   7.442  12.915  0.00  0.00    +0.000 A 
ATOM      6  C   UNL     1      50.595   8.163  13.576  0.00  0.00    +0.000 A 
ATOM      7  C   UNL     1      50.440   8.491  14.922  0.00  0.00    +0.000 A 
ATOM      8  C   UNL     1      49.297   8.110  15.636  0.00  0.00    +0.000 A 
ATOM      9  C   UNL     1      48.300   7.403  14.932  0.00  0.00    +0.000 A 
BRANCH   4  13
ATOM     10  C   UNL     1      45.299   4.903  11.669  0.00  0.00    +0.000 A 
ATOM     11  C   UNL     1      45.860   5.964  10.983  0.00  0.00    +0.000 A 
ATOM     12  C   UNL     1      46.888   6.684  11.599  0.00  0.00    +0.000 A 
ATOM     13  C   UNL     1      47.345   6.324  12.872  0.00  0.00    +0.000 A 
ATOM     14  C   UNL     1      46.716   5.217  13.449  0.00  0.00    +0.000 A 
ATOM     15  N   UNL     1      45.713   4.504  12.888  0.00  0.00    +0.000 NA
BRANCH  10  17
ATOM     16  C   UNL     1      43.024   4.410  11.753  0.00  0.00    +0.000 C 
ATOM     17  O   UNL     1      44.256   4.241  11.055  0.00  0.00    +0.000 OA
ENDBRANCH  10  17
ENDBRANCH   4  13
ENDBRANCH   1   8
BRANCH   1  18
ATOM     18  N   UNL     1      49.860   7.561  18.016  0.00  0.00    +0.000 N 
ATOM     19  H   UNL     1      50.621   8.014  18.512  0.00  0.00    +0.000 HD
BRANCH  18  20
ATOM     20  C   UNL     1      50.061   6.177  17.878  0.00  0.00    +0.000 A 
ATOM     21  C   UNL     1      51.295   5.573  17.634  0.00  0.00    +0.000 A 
ATOM     22  C   UNL     1      51.380   4.194  17.380  0.00  0.00    +0.000 A 
ATOM     23  C   UNL     1      50.226   3.401  17.347  0.00  0.00    +0.000 A 
ATOM     24  C   UNL     1      48.986   3.997  17.580  0.00  0.00    +0.000 A 
ATOM     25  C   UNL     1      48.912   5.367  17.840  0.00  0.00    +0.000 A 
BRANCH  23  26
ATOM     26  C   UNL     1      50.343   1.962  17.002  0.00  0.00    +0.000 C 
ATOM     27  N   UNL     1      51.176   1.189  17.767  0.00  0.00    +0.000 N 
ATOM     28  O   UNL     1      49.734   1.473  16.057  0.00  0.00    +0.000 OA
ATOM     29  H   UNL     1      51.856   1.575  18.405  0.00  0.00    +0.000 HD
ATOM     30  H   UNL     1      51.292   0.225  17.480  0.00  0.00    +0.000 HD
ENDBRANCH  23  26
ENDBRANCH  18  20
ENDBRANCH   1  18
TORSDOF 6
ENDMDL
MODEL 6
REMARK VINA RESULT:    -6.839      2.188      8.500
REMARK INTER + INTRA:          -9.673
REMARK INTER:                  -8.477
REMARK INTRA:                  -1.196
REMARK UNBOUND:                -0.435
REMARK  Name = 
REMARK  7 active torsions:
REMARK  status: ('A' for Active; 'I' for Inactive)
REMARK    1  A    between atoms: C_1  and  O_2
REMARK    2  A    between atoms: O_2  and  C_3
REMARK    3  A    between atoms: C_6  and  C_7
REMARK    4  A    between atoms: C_11  and  C_12
REMARK    5  A    between atoms: C_12  and  N_13
REMARK    6  A    between atoms: N_13  and  C_14
REMARK    7  A    between atoms: C_17  and  C_18
REMARK                            x       y       z     vdW  Elec       q    Type
REMARK                         _______ _______ _______ _____ _____    ______ ____
ROOT
ATOM      1  C   UNL     1      48.930   8.288  13.376  0.00  0.00    +0.000 C 
ATOM      2  C   UNL     1      49.496   9.686  13.513  0.00  0.00    +0.000 C 
ATOM      3  C   UNL     1      50.002   8.807  12.418  0.00  0.00    +0.000 C 
ENDROOT
BRANCH   1   8
ATOM      4  C   UNL     1      45.851   6.748  11.623  0.00  0.00    +0.000 A 
ATOM      5  C   UNL     1      44.931   7.801  11.761  0.00  0.00    +0.000 A 
ATOM      6  C   UNL     1      45.273   8.978  12.428  0.00  0.00    +0.000 A 
ATOM      7  C   UNL     1      46.554   9.135  12.951  0.00  0.00    +0.000 A 
ATOM      8  C   UNL     1      47.520   8.128  12.823  0.00  0.00    +0.000 A 
ATOM      9  C   UNL     1      47.134   6.941  12.165  0.00  0.00    +0.000 A 
BRANCH   4  13
ATOM     10  C   UNL     1      44.869   3.149   9.600  0.00  0.00    +0.000 A 
ATOM     11  C   UNL     1      44.611   3.215  10.956  0.00  0.00    +0.000 A 
ATOM     12  C   UNL     1      44.932   4.392  11.638  0.00  0.00    +0.000 A 
ATOM     13  C   UNL     1      45.485   5.482  10.954  0.00  0.00    +0.000 A 
ATOM     14  C   UNL     1      45.671   5.302   9.581  0.00  0.00    +0.000 A 
ATOM     15  N   UNL     1      45.383   4.175   8.892  0.00  0.00    +0.000 NA
BRANCH  10  17
ATOM     16  C   UNL     1      45.745   1.366   8.385  0.00  0.00    +0.000 C 
ATOM     17  O   UNL     1      44.585   1.959   8.964  0.00  0.00    +0.000 OA
ENDBRANCH  10  17
ENDBRANCH   4  13
ENDBRANCH   1   8
BRANCH   1  18
ATOM     18  N   UNL     1      49.385   7.145  14.178  0.00  0.00    +0.000 N 
ATOM     19  H   UNL     1      49.661   6.335  13.633  0.00  0.00    +0.000 HD
BRANCH  18  20
ATOM     20  C   UNL     1      48.974   6.800  15.477  0.00  0.00    +0.000 A 
ATOM     21  C   UNL     1      49.267   7.536  16.626  0.00  0.00    +0.000 A 
ATOM     22  C   UNL     1      48.927   7.045  17.898  0.00  0.00    +0.000 A 
ATOM     23  C   UNL     1      48.305   5.797  18.039  0.00  0.00    +0.000 A 
ATOM     24  C   UNL     1      48.017   5.049  16.898  0.00  0.00    +0.000 A 
ATOM     25  C   UNL     1      48.352   5.550  15.637  0.00  0.00    +0.000 A 
BRANCH  23  26
ATOM     26  C   UNL     1      48.027   5.275  19.400  0.00  0.00    +0.000 C 
ATOM     27  N   UNL     1      48.498   4.028  19.714  0.00  0.00    +0.000 N 
ATOM     28  O   UNL     1      47.384   5.922  20.220  0.00  0.00    +0.000 OA
ATOM     29  H   UNL     1      48.836   3.376  19.021  0.00  0.00    +0.000 HD
ATOM     30  H   UNL     1      48.246   3.663  20.624  0.00  0.00    +0.000 HD
ENDBRANCH  23  26
ENDBRANCH  18  20
ENDBRANCH   1  18
TORSDOF 6
ENDMDL
MODEL 7
REMARK VINA RESULT:    -6.517      3.287      6.264
REMARK INTER + INTRA:          -9.238
REMARK INTER:                  -8.240
REMARK INTRA:                  -0.998
REMARK UNBOUND:                -0.435
REMARK  Name = 
REMARK  7 active torsions:
REMARK  status: ('A' for Active; 'I' for Inactive)
REMARK    1  A    between atoms: C_1  and  O_2
REMARK    2  A    between atoms: O_2  and  C_3
REMARK    3  A    between atoms: C_6  and  C_7
REMARK    4  A    between atoms: C_11  and  C_12
REMARK    5  A    between atoms: C_12  and  N_13
REMARK    6  A    between atoms: N_13  and  C_14
REMARK    7  A    between atoms: C_17  and  C_18
REMARK                            x       y       z     vdW  Elec       q    Type
REMARK                         _______ _______ _______ _____ _____    ______ ____
ROOT
ATOM      1  C   UNL     1      49.299   7.538  15.356  0.00  0.00    +0.000 C 
ATOM      2  C   UNL     1      50.632   7.774  14.677  0.00  0.00    +0.000 C 
ATOM      3  C   UNL     1      50.039   8.867  15.503  0.00  0.00    +0.000 C 
ENDROOT
BRANCH   1   8
ATOM      4  C   UNL     1      50.073   4.597  17.738  0.00  0.00    +0.000 A 
ATOM      5  C   UNL     1      49.197   4.893  18.796  0.00  0.00    +0.000 A 
ATOM      6  C   UNL     1      48.387   6.029  18.768  0.00  0.00    +0.000 A 
ATOM      7  C   UNL     1      48.421   6.883  17.667  0.00  0.00    +0.000 A 
ATOM      8  C   UNL     1      49.258   6.625  16.574  0.00  0.00    +0.000 A 
ATOM      9  C   UNL     1      50.082   5.482  16.644  0.00  0.00    +0.000 A 
BRANCH   4  13
ATOM     10  C   UNL     1      52.552   1.154  17.765  0.00  0.00    +0.000 A 
ATOM     11  C   UNL     1      53.061   2.315  18.313  0.00  0.00    +0.000 A 
ATOM     12  C   UNL     1      52.258   3.459  18.309  0.00  0.00    +0.000 A 
ATOM     13  C   UNL     1      50.964   3.418  17.777  0.00  0.00    +0.000 A 
ATOM     14  C   UNL     1      50.555   2.178  17.278  0.00  0.00    +0.000 A 
ATOM     15  N   UNL     1      51.308   1.055  17.256  0.00  0.00    +0.000 NA
BRANCH  10  17
ATOM     16  C   UNL     1      54.571   0.258  18.504  0.00  0.00    +0.000 C 
ATOM     17  O   UNL     1      53.384   0.054  17.741  0.00  0.00    +0.000 OA
ENDBRANCH  10  17
ENDBRANCH   4  13
ENDBRANCH   1   8
BRANCH   1  18
ATOM     18  N   UNL     1      48.005   7.677  14.675  0.00  0.00    +0.000 N 
ATOM     19  H   UNL     1      47.337   8.267  15.162  0.00  0.00    +0.000 HD
BRANCH  18  20
ATOM     20  C   UNL     1      47.377   6.736  13.842  0.00  0.00    +0.000 A 
ATOM     21  C   UNL     1      46.794   7.029  12.608  0.00  0.00    +0.000 A 
ATOM     22  C   UNL     1      46.073   6.050  11.904  0.00  0.00    +0.000 A 
ATOM     23  C   UNL     1      45.909   4.765  12.437  0.00  0.00    +0.000 A 
ATOM     24  C   UNL     1      46.479   4.463  13.673  0.00  0.00    +0.000 A 
ATOM     25  C   UNL     1      47.201   5.441  14.361  0.00  0.00    +0.000 A 
BRANCH  23  26
ATOM     26  C   UNL     1      45.079   3.776  11.703  0.00  0.00    +0.000 C 
ATOM     27  N   UNL     1      44.714   2.633  12.364  0.00  0.00    +0.000 N 
ATOM     28  O   UNL     1      44.740   3.957  10.538  0.00  0.00    +0.000 OA
ATOM     29  H   UNL     1      45.139   2.338  13.230  0.00  0.00    +0.000 HD
ATOM     30  H   UNL     1      44.201   1.944  11.829  0.00  0.00    +0.000 HD
ENDBRANCH  23  26
ENDBRANCH  18  20
ENDBRANCH   1  18
TORSDOF 6
ENDMDL
MODEL 8
REMARK VINA RESULT:    -6.402      4.058      7.569
REMARK INTER + INTRA:          -9.083
REMARK INTER:                  -8.006
REMARK INTRA:                  -1.076
REMARK UNBOUND:                -0.435
REMARK  Name = 
REMARK  7 active torsions:
REMARK  status: ('A' for Active; 'I' for Inactive)
REMARK    1  A    between atoms: C_1  and  O_2
REMARK    2  A    between atoms: O_2  and  C_3
REMARK    3  A    between atoms: C_6  and  C_7
REMARK    4  A    between atoms: C_11  and  C_12
REMARK    5  A    between atoms: C_12  and  N_13
REMARK    6  A    between atoms: N_13  and  C_14
REMARK    7  A    between atoms: C_17  and  C_18
REMARK                            x       y       z     vdW  Elec       q    Type
REMARK                         _______ _______ _______ _____ _____    ______ ____
ROOT
ATOM      1  C   UNL     1      48.730   8.027  13.945  0.00  0.00    +0.000 C 
ATOM      2  C   UNL     1      49.079   6.875  14.864  0.00  0.00    +0.000 C 
ATOM      3  C   UNL     1      48.644   8.170  15.465  0.00  0.00    +0.000 C 
ENDROOT
BRANCH   1   8
ATOM      4  C   UNL     1      45.887   6.726  11.677  0.00  0.00    +0.000 A 
ATOM      5  C   UNL     1      45.011   7.824  11.716  0.00  0.00    +0.000 A 
ATOM      6  C   UNL     1      45.305   8.957  12.476  0.00  0.00    +0.000 A 
ATOM      7  C   UNL     1      46.496   9.023  13.197  0.00  0.00    +0.000 A 
ATOM      8  C   UNL     1      47.417   7.967  13.177  0.00  0.00    +0.000 A 
ATOM      9  C   UNL     1      47.078   6.827  12.418  0.00  0.00    +0.000 A 
BRANCH   4  13
ATOM     10  C   UNL     1      44.900   3.177   9.570  0.00  0.00    +0.000 A 
ATOM     11  C   UNL     1      45.356   4.255   8.835  0.00  0.00    +0.000 A 
ATOM     12  C   UNL     1      45.682   5.432   9.514  0.00  0.00    +0.000 A 
ATOM     13  C   UNL     1      45.564   5.506  10.907  0.00  0.00    +0.000 A 
ATOM     14  C   UNL     1      45.121   4.340  11.539  0.00  0.00    +0.000 A 
ATOM     15  N   UNL     1      44.786   3.189  10.913  0.00  0.00    +0.000 NA
BRANCH  10  17
ATOM     16  C   UNL     1      45.678   1.308   8.419  0.00  0.00    +0.000 C 
ATOM     17  O   UNL     1      44.543   2.045   8.868  0.00  0.00    +0.000 OA
ENDBRANCH  10  17
ENDBRANCH   4  13
ENDBRANCH   1   8
BRANCH   1  18
ATOM     18  N   UNL     1      49.730   8.917  13.343  0.00  0.00    +0.000 N 
ATOM     19  H   UNL     1      49.424   9.879  13.236  0.00  0.00    +0.000 HD
BRANCH  18  20
ATOM     20  C   UNL     1      50.732   8.570  12.419  0.00  0.00    +0.000 A 
ATOM     21  C   UNL     1      50.523   7.812  11.267  0.00  0.00    +0.000 A 
ATOM     22  C   UNL     1      51.606   7.404  10.471  0.00  0.00    +0.000 A 
ATOM     23  C   UNL     1      52.920   7.734  10.831  0.00  0.00    +0.000 A 
ATOM     24  C   UNL     1      53.140   8.483  11.986  0.00  0.00    +0.000 A 
ATOM     25  C   UNL     1      52.056   8.892  12.765  0.00  0.00    +0.000 A 
BRANCH  23  26
ATOM     26  C   UNL     1      54.047   7.224  10.009  0.00  0.00    +0.000 C 
ATOM     27  N   UNL     1      53.750   6.681   8.787  0.00  0.00    +0.000 N 
ATOM     28  O   UNL     1      55.206   7.266  10.407  0.00  0.00    +0.000 OA
ATOM     29  H   UNL     1      52.814   6.425   8.509  0.00  0.00    +0.000 HD
ATOM     30  H   UNL     1      54.523   6.282   8.268  0.00  0.00    +0.000 HD
ENDBRANCH  23  26
ENDBRANCH  18  20
ENDBRANCH   1  18
TORSDOF 6
ENDMDL
