MODEL 1
REMARK VINA RESULT:    -7.297      0.000      0.000
REMARK INTER + INTRA:         -11.456
REMARK INTER:                 -10.282
REMARK INTRA:                  -1.174
REMARK UNBOUND:                -1.174
REMARK  Name = 
REMARK  9 active torsions:
REMARK  status: ('A' for Active; 'I' for Inactive)
REMARK    1  A    between atoms: C_1  and  C_2
REMARK    2  A    between atoms: C_2  and  C_3
REMARK    3  A    between atoms: C_3  and  N_4
REMARK    4  A    between atoms: C_3  and  C_17
REMARK    5  A    between atoms: C_5  and  C_7
REMARK    6  A    between atoms: C_20  and  C_21
REMARK    7  A    between atoms: C_21  and  N_22
REMARK    8  A    between atoms: C_23  and  C_25
REMARK    9  A    between atoms: N_29  and  C_30
REMARK                            x       y       z     vdW  Elec       q    Type
REMARK                         _______ _______ _______ _____ _____    ______ ____
ROOT
ATOM      1  C   UNL     1      47.894   7.627  13.697  0.00  0.00    +0.000 C 
ENDROOT
BRANCH   1   2
ATOM      2  C   UNL     1      46.984   6.572  13.080  0.00  0.00    +0.000 A 
ATOM      3  C   UNL     1      46.962   5.269  13.600  0.00  0.00    +0.000 A 
ATOM      4  C   UNL     1      46.126   4.288  13.053  0.00  0.00    +0.000 A 
ATOM      5  C   UNL     1      45.292   4.583  11.965  0.00  0.00    +0.000 A 
ATOM      6  C   UNL     1      45.287   5.891  11.464  0.00  0.00    +0.000 A 
ATOM      7  C   UNL     1      46.129   6.871  12.007  0.00  0.00    +0.000 A 
BRANCH   5   8
ATOM      8  C   UNL     1      44.419   3.519  11.345  0.00  0.00    +0.000 C 
BRANCH   8   9
ATOM      9  N   UNL     1      45.147   2.698  10.406  0.00  0.00    +0.000 N 
ATOM     10  C   UNL     1      45.133   2.962   9.051  0.00  0.00    +0.000 C 
ATOM     11  O   UNL     1      44.487   3.894   8.581  0.00  0.00    +0.000 OA
ATOM     12  H   UNL     1      45.827   2.053  10.780  0.00  0.00    +0.000 HD
BRANCH  10  13
ATOM     13  C   UNL     1      45.932   2.067   8.246  0.00  0.00    +0.000 A 
ATOM     14  C   UNL     1      45.987   0.679   8.230  0.00  0.00    +0.000 A 
ATOM     15  N   UNL     1      46.865   0.209   7.295  0.00  0.00    +0.000 NA
ATOM     16  C   UNL     1      47.350   1.279   6.715  0.00  0.00    +0.000 A 
ATOM     17  N   UNL     1      46.829   2.424   7.255  0.00  0.00    +0.000 N 
ATOM     18  C   UNL     1      47.191   3.756   6.839  0.00  0.00    +0.000 C 
ENDBRANCH  10  13
ENDBRANCH   8   9
ENDBRANCH   5   8
ENDBRANCH   1   2
BRANCH   1  19
ATOM     19  N   UNL     1      48.019   7.350  15.123  0.00  0.00    +0.000 N 
ATOM     20  C   UNL     1      49.234   7.276  15.769  0.00  0.00    +0.000 C 
ATOM     21  O   UNL     1      50.302   7.419  15.192  0.00  0.00    +0.000 OA
ATOM     22  H   UNL     1      47.174   7.163  15.641  0.00  0.00    +0.000 HD
BRANCH  20  23
ATOM     23  C   UNL     1      49.134   7.047  17.213  0.00  0.00    +0.000 A 
ATOM     24  C   UNL     1      49.296   8.051  18.156  0.00  0.00    +0.000 A 
ATOM     25  S   UNL     1      49.193   7.492  19.767  0.00  0.00    +0.000 S 
ATOM     26  C   UNL     1      48.953   5.887  19.254  0.00  0.00    +0.000 A 
ATOM     27  N   UNL     1      48.806   4.882  20.158  0.00  0.00    +0.000 NA
ATOM     28  C   UNL     1      48.650   3.713  19.627  0.00  0.00    +0.000 A 
ATOM     29  N   UNL     1      48.615   3.466  18.278  0.00  0.00    +0.000 N 
ATOM     30  C   UNL     1      48.671   4.463  17.328  0.00  0.00    +0.000 A 
ATOM     31  O   UNL     1      48.451   4.214  16.149  0.00  0.00    +0.000 OA
ATOM     32  C   UNL     1      48.921   5.784  17.875  0.00  0.00    +0.000 A 
ATOM     33  H   UNL     1      48.433   2.538  17.926  0.00  0.00    +0.000 HD
ENDBRANCH  20  23
ENDBRANCH   1  19
BRANCH   1  35
ATOM     34  C   UNL     1      48.178   9.834  12.405  0.00  0.00    +0.000 C 
ATOM     35  C   UNL     1      47.401   9.074  13.473  0.00  0.00    +0.000 C 
ENDBRANCH   1  35
TORSDOF 7
ENDMDL
MODEL 2
REMARK VINA RESULT:    -7.035      3.414      8.339
REMARK INTER + INTRA:         -11.088
REMARK INTER:                  -9.882
REMARK INTRA:                  -1.206
REMARK UNBOUND:                -1.174
REMARK  Name = 
REMARK  9 active torsions:
REMARK  status: ('A' for Active; 'I' for Inactive)
REMARK    1  A    between atoms: C_1  and  C_2
REMARK    2  A    between atoms: C_2  and  C_3
REMARK    3  A    between atoms: C_3  and  N_4
REMARK    4  A    between atoms: C_3  and  C_17
REMARK    5  A    between atoms: C_5  and  C_7
REMARK    6  A    between atoms: C_20  and  C_21
REMARK    7  A    between atoms: C_21  and  N_22
REMARK    8  A    between atoms: C_23  and  C_25
REMARK    9  A    between atoms: N_29  and  C_30
REMARK                            x       y       z     vdW  Elec       q    Type
REMARK                         _______ _______ _______ _____ _____    ______ ____
ROOT
ATOM      1  C   UNL     1      47.828   7.960  12.728  0.00  0.00    +0.000 C 
ENDROOT
BRANCH   1   2
ATOM      2  C   UNL     1      48.237   7.507  14.124  0.00  0.00    +0.000 A 
ATOM      3  C   UNL     1      48.840   8.412  15.010  0.00  0.00    +0.000 A 
ATOM      4  C   UNL     1      49.214   8.016  16.301  0.00  0.00    +0.000 A 
ATOM      5  C   UNL     1      48.999   6.703  16.738  0.00  0.00    +0.000 A 
ATOM      6  C   UNL     1      48.367   5.805  15.868  0.00  0.00    +0.000 A 
ATOM      7  C   UNL     1      47.999   6.198  14.575  0.00  0.00    +0.000 A 
BRANCH   5   8
ATOM      8  C   UNL     1      49.438   6.260  18.114  0.00  0.00    +0.000 C 
BRANCH   8   9
ATOM      9  N   UNL     1      49.967   4.917  18.109  0.00  0.00    +0.000 N 
ATOM     10  C   UNL     1      51.244   4.644  17.659  0.00  0.00    +0.000 C 
ATOM     11  O   UNL     1      51.979   5.526  17.227  0.00  0.00    +0.000 OA
ATOM     12  H   UNL     1      49.462   4.213  18.627  0.00  0.00    +0.000 HD
BRANCH  10  13
ATOM     13  C   UNL     1      51.637   3.256  17.742  0.00  0.00    +0.000 A 
ATOM     14  C   UNL     1      52.785   2.676  18.266  0.00  0.00    +0.000 A 
ATOM     15  N   UNL     1      52.762   1.313  18.173  0.00  0.00    +0.000 NA
ATOM     16  C   UNL     1      51.613   1.029  17.612  0.00  0.00    +0.000 A 
ATOM     17  N   UNL     1      50.900   2.161  17.325  0.00  0.00    +0.000 N 
ATOM     18  C   UNL     1      49.608   2.168  16.683  0.00  0.00    +0.000 C 
ENDBRANCH  10  13
ENDBRANCH   8   9
ENDBRANCH   5   8
ENDBRANCH   1   2
BRANCH   1  19
ATOM     19  N   UNL     1      47.183   6.841  12.051  0.00  0.00    +0.000 N 
ATOM     20  C   UNL     1      45.964   6.952  11.418  0.00  0.00    +0.000 C 
ATOM     21  O   UNL     1      45.321   7.991  11.390  0.00  0.00    +0.000 OA
ATOM     22  H   UNL     1      47.637   5.942  12.091  0.00  0.00    +0.000 HD
BRANCH  20  23
ATOM     23  C   UNL     1      45.521   5.725  10.749  0.00  0.00    +0.000 A 
ATOM     24  C   UNL     1      45.722   5.478   9.398  0.00  0.00    +0.000 A 
ATOM     25  S   UNL     1      45.047   4.001   8.870  0.00  0.00    +0.000 S 
ATOM     26  C   UNL     1      44.446   3.656  10.424  0.00  0.00    +0.000 A 
ATOM     27  N   UNL     1      43.737   2.520  10.660  0.00  0.00    +0.000 NA
ATOM     28  C   UNL     1      43.327   2.397  11.881  0.00  0.00    +0.000 A 
ATOM     29  N   UNL     1      43.574   3.301  12.882  0.00  0.00    +0.000 N 
ATOM     30  C   UNL     1      44.359   4.419  12.711  0.00  0.00    +0.000 A 
ATOM     31  O   UNL     1      44.703   5.094  13.673  0.00  0.00    +0.000 OA
ATOM     32  C   UNL     1      44.781   4.638  11.340  0.00  0.00    +0.000 A 
ATOM     33  H   UNL     1      43.274   3.118  13.829  0.00  0.00    +0.000 HD
ENDBRANCH  20  23
ENDBRANCH   1  19
BRANCH   1  35
ATOM     34  C   UNL     1      50.073   7.444  11.581  0.00  0.00    +0.000 C 
ATOM     35  C   UNL     1      49.007   8.491  11.882  0.00  0.00    +0.000 C 
ENDBRANCH   1  35
TORSDOF 7
ENDMDL
MODEL 3
REMARK VINA RESULT:    -6.738      2.227      4.329
REMARK INTER + INTRA:         -10.670
REMARK INTER:                  -9.592
REMARK INTRA:                  -1.078
REMARK UNBOUND:                -1.174
REMARK  Name = 
REMARK  9 active torsions:
REMARK  status: ('A' for Active; 'I' for Inactive)
REMARK    1  A    between atoms: C_1  and  C_2
REMARK    2  A    between atoms: C_2  and  C_3
REMARK    3  A    between atoms: C_3  and  N_4
REMARK    4  A    between atoms: C_3  and  C_17
REMARK    5  A    between atoms: C_5  and  C_7
REMARK    6  A    between atoms: C_20  and  C_21
REMARK    7  A    between atoms: C_21  and  N_22
REMARK    8  A    between atoms: C_23  and  C_25
REMARK    9  A    between atoms: N_29  and  C_30
REMARK                            x       y       z     vdW  Elec       q    Type
REMARK                         _______ _______ _______ _____ _____    ______ ____
ROOT
ATOM      1  C   UNL     1      47.140   4.923  15.271  0.00  0.00    +0.000 C 
ENDROOT
BRANCH   1   2
ATOM      2  C   UNL     1      46.382   4.738  13.962  0.00  0.00    +0.000 A 
ATOM      3  C   UNL     1      45.956   5.857  13.232  0.00  0.00    +0.000 A 
ATOM      4  C   UNL     1      45.265   5.707  12.022  0.00  0.00    +0.000 A 
ATOM      5  C   UNL     1      44.980   4.433  11.513  0.00  0.00    +0.000 A 
ATOM      6  C   UNL     1      45.433   3.314  12.223  0.00  0.00    +0.000 A 
ATOM      7  C   UNL     1      46.116   3.463  13.436  0.00  0.00    +0.000 A 
BRANCH   5   8
ATOM      8  C   UNL     1      44.200   4.266  10.230  0.00  0.00    +0.000 C 
BRANCH   8   9
ATOM      9  N   UNL     1      45.060   3.986   9.105  0.00  0.00    +0.000 N 
ATOM     10  C   UNL     1      45.213   2.705   8.612  0.00  0.00    +0.000 C 
ATOM     11  O   UNL     1      44.642   1.745   9.119  0.00  0.00    +0.000 OA
ATOM     12  H   UNL     1      45.386   4.771   8.559  0.00  0.00    +0.000 HD
BRANCH  10  13
ATOM     13  C   UNL     1      46.087   2.593   7.466  0.00  0.00    +0.000 A 
ATOM     14  C   UNL     1      46.449   3.538   6.516  0.00  0.00    +0.000 A 
ATOM     15  N   UNL     1      47.326   3.034   5.597  0.00  0.00    +0.000 NA
ATOM     16  C   UNL     1      47.529   1.793   5.964  0.00  0.00    +0.000 A 
ATOM     17  N   UNL     1      46.801   1.473   7.078  0.00  0.00    +0.000 N 
ATOM     18  C   UNL     1      46.799   0.172   7.701  0.00  0.00    +0.000 C 
ENDBRANCH  10  13
ENDBRANCH   8   9
ENDBRANCH   5   8
ENDBRANCH   1   2
BRANCH   1  19
ATOM     19  N   UNL     1      48.233   5.860  15.042  0.00  0.00    +0.000 N 
ATOM     20  C   UNL     1      48.832   6.575  16.056  0.00  0.00    +0.000 C 
ATOM     21  O   UNL     1      48.481   6.491  17.224  0.00  0.00    +0.000 OA
ATOM     22  H   UNL     1      48.526   6.017  14.089  0.00  0.00    +0.000 HD
BRANCH  20  23
ATOM     23  C   UNL     1      49.949   7.417  15.619  0.00  0.00    +0.000 A 
ATOM     24  C   UNL     1      51.275   7.143  15.924  0.00  0.00    +0.000 A 
ATOM     25  S   UNL     1      52.363   8.324  15.345  0.00  0.00    +0.000 S 
ATOM     26  C   UNL     1      51.096   9.251  14.689  0.00  0.00    +0.000 A 
ATOM     27  N   UNL     1      51.349  10.426  14.054  0.00  0.00    +0.000 NA
ATOM     28  C   UNL     1      50.291  11.032  13.622  0.00  0.00    +0.000 A 
ATOM     29  N   UNL     1      49.010  10.561  13.760  0.00  0.00    +0.000 N 
ATOM     30  C   UNL     1      48.714   9.336  14.317  0.00  0.00    +0.000 A 
ATOM     31  O   UNL     1      47.580   8.878  14.251  0.00  0.00    +0.000 OA
ATOM     32  C   UNL     1      49.863   8.653  14.882  0.00  0.00    +0.000 A 
ATOM     33  H   UNL     1      48.230  11.054  13.351  0.00  0.00    +0.000 HD
ENDBRANCH  20  23
ENDBRANCH   1  19
BRANCH   1  35
ATOM     34  C   UNL     1      47.193   3.307  17.274  0.00  0.00    +0.000 C 
ATOM     35  C   UNL     1      47.683   3.602  15.861  0.00  0.00    +0.000 C 
ENDBRANCH   1  35
TORSDOF 7
ENDMDL
MODEL 4
REMARK VINA RESULT:    -6.575      3.194      8.807
REMARK INTER + INTRA:         -10.440
REMARK INTER:                  -9.283
REMARK INTRA:                  -1.157
REMARK UNBOUND:                -1.174
REMARK  Name = 
REMARK  9 active torsions:
REMARK  status: ('A' for Active; 'I' for Inactive)
REMARK    1  A    between atoms: C_1  and  C_2
REMARK    2  A    between atoms: C_2  and  C_3
REMARK    3  A    between atoms: C_3  and  N_4
REMARK    4  A    between atoms: C_3  and  C_17
REMARK    5  A    between atoms: C_5  and  C_7
REMARK    6  A    between atoms: C_20  and  C_21
REMARK    7  A    between atoms: C_21  and  N_22
REMARK    8  A    between atoms: C_23  and  C_25
REMARK    9  A    between atoms: N_29  and  C_30
REMARK                            x       y       z     vdW  Elec       q    Type
REMARK                         _______ _______ _______ _____ _____    ______ ____
ROOT
ATOM      1  C   UNL     1      46.945   7.781  12.909  0.00  0.00    +0.000 C 
ENDROOT
BRANCH   1   2
ATOM      2  C   UNL     1      47.822   7.479  14.118  0.00  0.00    +0.000 A 
ATOM      3  C   UNL     1      47.915   6.169  14.611  0.00  0.00    +0.000 A 
ATOM      4  C   UNL     1      48.723   5.870  15.715  0.00  0.00    +0.000 A 
ATOM      5  C   UNL     1      49.457   6.876  16.359  0.00  0.00    +0.000 A 
ATOM      6  C   UNL     1      49.392   8.179  15.849  0.00  0.00    +0.000 A 
ATOM      7  C   UNL     1      48.579   8.480  14.750  0.00  0.00    +0.000 A 
BRANCH   5   8
ATOM      8  C   UNL     1      50.297   6.567  17.575  0.00  0.00    +0.000 C 
BRANCH   8   9
ATOM      9  N   UNL     1      50.957   5.287  17.468  0.00  0.00    +0.000 N 
ATOM     10  C   UNL     1      50.566   4.205  18.232  0.00  0.00    +0.000 C 
ATOM     11  O   UNL     1      49.654   4.286  19.048  0.00  0.00    +0.000 OA
ATOM     12  H   UNL     1      51.574   5.144  16.682  0.00  0.00    +0.000 HD
BRANCH  10  13
ATOM     13  C   UNL     1      51.308   2.988  17.991  0.00  0.00    +0.000 A 
ATOM     14  C   UNL     1      50.971   1.861  17.253  0.00  0.00    +0.000 A 
ATOM     15  N   UNL     1      51.969   0.929  17.253  0.00  0.00    +0.000 NA
ATOM     16  C   UNL     1      52.930   1.458  17.967  0.00  0.00    +0.000 A 
ATOM     17  N   UNL     1      52.582   2.693  18.443  0.00  0.00    +0.000 N 
ATOM     18  C   UNL     1      53.426   3.509  19.280  0.00  0.00    +0.000 C 
ENDBRANCH  10  13
ENDBRANCH   8   9
ENDBRANCH   5   8
ENDBRANCH   1   2
BRANCH   1  19
ATOM     19  N   UNL     1      46.250   6.557  12.527  0.00  0.00    +0.000 N 
ATOM     20  C   UNL     1      45.095   6.555  11.775  0.00  0.00    +0.000 C 
ATOM     21  O   UNL     1      44.555   7.580  11.386  0.00  0.00    +0.000 OA
ATOM     22  H   UNL     1      46.616   5.683  12.870  0.00  0.00    +0.000 HD
BRANCH  20  23
ATOM     23  C   UNL     1      44.591   5.217  11.452  0.00  0.00    +0.000 A 
ATOM     24  C   UNL     1      43.746   4.500  12.286  0.00  0.00    +0.000 A 
ATOM     25  S   UNL     1      43.367   2.944  11.693  0.00  0.00    +0.000 S 
ATOM     26  C   UNL     1      44.338   3.172  10.314  0.00  0.00    +0.000 A 
ATOM     27  N   UNL     1      44.467   2.189   9.384  0.00  0.00    +0.000 NA
ATOM     28  C   UNL     1      45.251   2.493   8.400  0.00  0.00    +0.000 A 
ATOM     29  N   UNL     1      45.901   3.693   8.261  0.00  0.00    +0.000 N 
ATOM     30  C   UNL     1      45.730   4.747   9.132  0.00  0.00    +0.000 A 
ATOM     31  O   UNL     1      46.184   5.854   8.868  0.00  0.00    +0.000 OA
ATOM     32  C   UNL     1      44.919   4.428  10.291  0.00  0.00    +0.000 A 
ATOM     33  H   UNL     1      46.454   3.890   7.440  0.00  0.00    +0.000 HD
ENDBRANCH  20  23
ENDBRANCH   1  19
BRANCH   1  35
ATOM     34  C   UNL     1      49.000   7.575  11.372  0.00  0.00    +0.000 C 
ATOM     35  C   UNL     1      47.729   8.350  11.705  0.00  0.00    +0.000 C 
ENDBRANCH   1  35
TORSDOF 7
ENDMDL
MODEL 5
REMARK VINA RESULT:    -6.546      4.621      7.715
REMARK INTER + INTRA:         -10.399
REMARK INTER:                  -9.567
REMARK INTRA:                  -0.832
REMARK UNBOUND:                -1.174
REMARK  Name = 
REMARK  9 active torsions:
REMARK  status: ('A' for Active; 'I' for Inactive)
REMARK    1  A    between atoms: C_1  and  C_2
REMARK    2  A    between atoms: C_2  and  C_3
REMARK    3  A    between atoms: C_3  and  N_4
REMARK    4  A    between atoms: C_3  and  C_17
REMARK    5  A    between atoms: C_5  and  C_7
REMARK    6  A    between atoms: C_20  and  C_21
REMARK    7  A    between atoms: C_21  and  N_22
REMARK    8  A    between atoms: C_23  and  C_25
REMARK    9  A    between atoms: N_29  and  C_30
REMARK                            x       y       z     vdW  Elec       q    Type
REMARK                         _______ _______ _______ _____ _____    ______ ____
ROOT
ATOM      1  C   UNL     1      45.962   8.244  12.823  0.00  0.00    +0.000 C 
ENDROOT
BRANCH   1   2
ATOM      2  C   UNL     1      47.417   8.356  12.383  0.00  0.00    +0.000 A 
ATOM      3  C   UNL     1      48.251   7.228  12.416  0.00  0.00    +0.000 A 
ATOM      4  C   UNL     1      49.588   7.309  12.006  0.00  0.00    +0.000 A 
ATOM      5  C   UNL     1      50.128   8.522  11.556  0.00  0.00    +0.000 A 
ATOM      6  C   UNL     1      49.289   9.642  11.491  0.00  0.00    +0.000 A 
ATOM      7  C   UNL     1      47.954   9.563  11.908  0.00  0.00    +0.000 A 
BRANCH   5   8
ATOM      8  C   UNL     1      51.580   8.624  11.153  0.00  0.00    +0.000 C 
BRANCH   8   9
ATOM      9  N   UNL     1      51.946   7.618  10.184  0.00  0.00    +0.000 N 
ATOM     10  C   UNL     1      52.892   7.864   9.208  0.00  0.00    +0.000 C 
ATOM     11  O   UNL     1      53.450   8.951   9.109  0.00  0.00    +0.000 OA
ATOM     12  H   UNL     1      51.646   6.670  10.359  0.00  0.00    +0.000 HD
BRANCH  10  13
ATOM     13  C   UNL     1      53.167   6.749   8.331  0.00  0.00    +0.000 A 
ATOM     14  C   UNL     1      52.464   6.274   7.231  0.00  0.00    +0.000 A 
ATOM     15  N   UNL     1      53.078   5.200   6.652  0.00  0.00    +0.000 NA
ATOM     16  C   UNL     1      54.160   5.002   7.362  0.00  0.00    +0.000 A 
ATOM     17  N   UNL     1      54.259   5.900   8.390  0.00  0.00    +0.000 N 
ATOM     18  C   UNL     1      55.330   5.916   9.356  0.00  0.00    +0.000 C 
ENDBRANCH  10  13
ENDBRANCH   8   9
ENDBRANCH   5   8
ENDBRANCH   1   2
BRANCH   1  19
ATOM     19  N   UNL     1      45.395   7.036  12.237  0.00  0.00    +0.000 N 
ATOM     20  C   UNL     1      45.479   5.800  12.840  0.00  0.00    +0.000 C 
ATOM     21  O   UNL     1      46.052   5.618  13.905  0.00  0.00    +0.000 OA
ATOM     22  H   UNL     1      44.963   7.113  11.329  0.00  0.00    +0.000 HD
BRANCH  20  23
ATOM     23  C   UNL     1      44.793   4.728  12.112  0.00  0.00    +0.000 A 
ATOM     24  C   UNL     1      43.928   3.829  12.719  0.00  0.00    +0.000 A 
ATOM     25  S   UNL     1      43.319   2.645  11.649  0.00  0.00    +0.000 S 
ATOM     26  C   UNL     1      44.210   3.284  10.347  0.00  0.00    +0.000 A 
ATOM     27  N   UNL     1      44.151   2.711   9.115  0.00  0.00    +0.000 NA
ATOM     28  C   UNL     1      44.894   3.289   8.228  0.00  0.00    +0.000 A 
ATOM     29  N   UNL     1      45.675   4.392   8.461  0.00  0.00    +0.000 N 
ATOM     30  C   UNL     1      45.698   5.057   9.668  0.00  0.00    +0.000 A 
ATOM     31  O   UNL     1      46.264   6.138   9.774  0.00  0.00    +0.000 OA
ATOM     32  C   UNL     1      44.938   4.402  10.716  0.00  0.00    +0.000 A 
ATOM     33  H   UNL     1      46.188   4.831   7.711  0.00  0.00    +0.000 HD
ENDBRANCH  20  23
ENDBRANCH   1  19
BRANCH   1  35
ATOM     34  C   UNL     1      44.310   9.304  11.159  0.00  0.00    +0.000 C 
ATOM     35  C   UNL     1      45.108   9.475  12.447  0.00  0.00    +0.000 C 
ENDBRANCH   1  35
TORSDOF 7
ENDMDL
MODEL 6
REMARK VINA RESULT:    -6.531      3.002      9.961
REMARK INTER + INTRA:         -10.378
REMARK INTER:                  -9.267
REMARK INTRA:                  -1.111
REMARK UNBOUND:                -1.174
REMARK  Name = 
REMARK  9 active torsions:
REMARK  status: ('A' for Active; 'I' for Inactive)
REMARK    1  A    between atoms: C_1  and  C_2
REMARK    2  A    between atoms: C_2  and  C_3
REMARK    3  A    between atoms: C_3  and  N_4
REMARK    4  A    between atoms: C_3  and  C_17
REMARK    5  A    between atoms: C_5  and  C_7
REMARK    6  A    between atoms: C_20  and  C_21
REMARK    7  A    between atoms: C_21  and  N_22
REMARK    8  A    between atoms: C_23  and  C_25
REMARK    9  A    between atoms: N_29  and  C_30
REMARK                            x       y       z     vdW  Elec       q    Type
REMARK                         _______ _______ _______ _____ _____    ______ ____
ROOT
ATOM      1  C   UNL     1      44.625   4.245  11.248  0.00  0.00    +0.000 C 
ENDROOT
BRANCH   1   2
ATOM      2  C   UNL     1      45.677   5.036  12.017  0.00  0.00    +0.000 A 
ATOM      3  C   UNL     1      46.135   4.575  13.260  0.00  0.00    +0.000 A 
ATOM      4  C   UNL     1      47.108   5.283  13.977  0.00  0.00    +0.000 A 
ATOM      5  C   UNL     1      47.646   6.474  13.471  0.00  0.00    +0.000 A 
ATOM      6  C   UNL     1      47.214   6.920  12.216  0.00  0.00    +0.000 A 
ATOM      7  C   UNL     1      46.237   6.217  11.501  0.00  0.00    +0.000 A 
BRANCH   5   8
ATOM      8  C   UNL     1      48.665   7.263  14.259  0.00  0.00    +0.000 C 
BRANCH   8   9
ATOM      9  N   UNL     1      48.402   7.224  15.678  0.00  0.00    +0.000 N 
ATOM     10  C   UNL     1      49.270   6.608  16.558  0.00  0.00    +0.000 C 
ATOM     11  O   UNL     1      50.293   6.051  16.173  0.00  0.00    +0.000 OA
ATOM     12  H   UNL     1      47.678   7.829  16.037  0.00  0.00    +0.000 HD
BRANCH  10  13
ATOM     13  C   UNL     1      48.881   6.677  17.948  0.00  0.00    +0.000 A 
ATOM     14  C   UNL     1      49.273   7.556  18.950  0.00  0.00    +0.000 A 
ATOM     15  N   UNL     1      48.649   7.296  20.136  0.00  0.00    +0.000 NA
ATOM     16  C   UNL     1      47.862   6.278  19.892  0.00  0.00    +0.000 A 
ATOM     17  N   UNL     1      47.969   5.860  18.593  0.00  0.00    +0.000 N 
ATOM     18  C   UNL     1      47.244   4.745  18.036  0.00  0.00    +0.000 C 
ENDBRANCH  10  13
ENDBRANCH   8   9
ENDBRANCH   5   8
ENDBRANCH   1   2
BRANCH   1  19
ATOM     19  N   UNL     1      45.303   3.427  10.250  0.00  0.00    +0.000 N 
ATOM     20  C   UNL     1      44.718   2.328   9.660  0.00  0.00    +0.000 C 
ATOM     21  O   UNL     1      43.591   1.945   9.940  0.00  0.00    +0.000 OA
ATOM     22  H   UNL     1      46.258   3.658  10.022  0.00  0.00    +0.000 HD
BRANCH  20  23
ATOM     23  C   UNL     1      45.548   1.680   8.640  0.00  0.00    +0.000 A 
ATOM     24  C   UNL     1      45.704   0.304   8.546  0.00  0.00    +0.000 A 
ATOM     25  S   UNL     1      46.777  -0.174   7.307  0.00  0.00    +0.000 S 
ATOM     26  C   UNL     1      47.085   1.442   6.873  0.00  0.00    +0.000 A 
ATOM     27  N   UNL     1      47.952   1.740   5.868  0.00  0.00    +0.000 NA
ATOM     28  C   UNL     1      48.103   3.008   5.660  0.00  0.00    +0.000 A 
ATOM     29  N   UNL     1      47.456   3.997   6.357  0.00  0.00    +0.000 N 
ATOM     30  C   UNL     1      46.505   3.741   7.321  0.00  0.00    +0.000 A 
ATOM     31  O   UNL     1      45.824   4.648   7.783  0.00  0.00    +0.000 OA
ATOM     32  C   UNL     1      46.356   2.333   7.641  0.00  0.00    +0.000 A 
ATOM     33  H   UNL     1      47.574   4.968   6.108  0.00  0.00    +0.000 HD
ENDBRANCH  20  23
ENDBRANCH   1  19
BRANCH   1  35
ATOM     34  C   UNL     1      42.570   5.765  11.553  0.00  0.00    +0.000 C 
ATOM     35  C   UNL     1      43.556   5.134  10.575  0.00  0.00    +0.000 C 
ENDBRANCH   1  35
TORSDOF 7
ENDMDL
MODEL 7
REMARK VINA RESULT:    -6.356      2.858      4.753
REMARK INTER + INTRA:         -10.131
REMARK INTER:                  -9.021
REMARK INTRA:                  -1.111
REMARK UNBOUND:                -1.174
REMARK  Name = 
REMARK  9 active torsions:
REMARK  status: ('A' for Active; 'I' for Inactive)
REMARK    1  A    between atoms: C_1  and  C_2
REMARK    2  A    between atoms: C_2  and  C_3
REMARK    3  A    between atoms: C_3  and  N_4
REMARK    4  A    between atoms: C_3  and  C_17
REMARK    5  A    between atoms: C_5  and  C_7
REMARK    6  A    between atoms: C_20  and  C_21
REMARK    7  A    between atoms: C_21  and  N_22
REMARK    8  A    between atoms: C_23  and  C_25
REMARK    9  A    between atoms: N_29  and  C_30
REMARK                            x       y       z     vdW  Elec       q    Type
REMARK                         _______ _______ _______ _____ _____    ______ ____
ROOT
ATOM      1  C   UNL     1      49.209   7.073  17.875  0.00  0.00    +0.000 C 
ENDROOT
BRANCH   1   2
ATOM      2  C   UNL     1      48.795   7.006  16.410  0.00  0.00    +0.000 A 
ATOM      3  C   UNL     1      49.004   8.108  15.568  0.00  0.00    +0.000 A 
ATOM      4  C   UNL     1      48.639   8.062  14.216  0.00  0.00    +0.000 A 
ATOM      5  C   UNL     1      48.051   6.912  13.672  0.00  0.00    +0.000 A 
ATOM      6  C   UNL     1      47.870   5.798  14.502  0.00  0.00    +0.000 A 
ATOM      7  C   UNL     1      48.228   5.846  15.855  0.00  0.00    +0.000 A 
BRANCH   5   8
ATOM      8  C   UNL     1      47.617   6.871  12.226  0.00  0.00    +0.000 C 
BRANCH   8   9
ATOM      9  N   UNL     1      46.719   5.773  11.959  0.00  0.00    +0.000 N 
ATOM     10  C   UNL     1      45.480   5.976  11.383  0.00  0.00    +0.000 C 
ATOM     11  O   UNL     1      45.079   7.097  11.089  0.00  0.00    +0.000 OA
ATOM     12  H   UNL     1      47.095   4.838  12.014  0.00  0.00    +0.000 HD
BRANCH  10  13
ATOM     13  C   UNL     1      44.710   4.774  11.155  0.00  0.00    +0.000 A 
ATOM     14  C   UNL     1      44.846   3.788  10.187  0.00  0.00    +0.000 A 
ATOM     15  N   UNL     1      43.921   2.793  10.332  0.00  0.00    +0.000 NA
ATOM     16  C   UNL     1      43.217   3.133  11.382  0.00  0.00    +0.000 A 
ATOM     17  N   UNL     1      43.643   4.320  11.912  0.00  0.00    +0.000 N 
ATOM     18  C   UNL     1      43.045   4.961  13.057  0.00  0.00    +0.000 C 
ENDBRANCH  10  13
ENDBRANCH   8   9
ENDBRANCH   5   8
ENDBRANCH   1   2
BRANCH   1  19
ATOM     19  N   UNL     1      50.171   6.007  18.132  0.00  0.00    +0.000 N 
ATOM     20  C   UNL     1      51.438   5.996  17.590  0.00  0.00    +0.000 C 
ATOM     21  O   UNL     1      51.847   6.870  16.840  0.00  0.00    +0.000 OA
ATOM     22  H   UNL     1      49.869   5.228  18.696  0.00  0.00    +0.000 HD
BRANCH  20  23
ATOM     23  C   UNL     1      52.265   4.866  18.021  0.00  0.00    +0.000 A 
ATOM     24  C   UNL     1      53.510   5.015  18.615  0.00  0.00    +0.000 A 
ATOM     25  S   UNL     1      54.283   3.531  18.957  0.00  0.00    +0.000 S 
ATOM     26  C   UNL     1      52.988   2.642  18.300  0.00  0.00    +0.000 A 
ATOM     27  N   UNL     1      53.024   1.284  18.264  0.00  0.00    +0.000 NA
ATOM     28  C   UNL     1      51.981   0.742  17.721  0.00  0.00    +0.000 A 
ATOM     29  N   UNL     1      50.908   1.438  17.226  0.00  0.00    +0.000 N 
ATOM     30  C   UNL     1      50.790   2.808  17.320  0.00  0.00    +0.000 A 
ATOM     31  O   UNL     1      49.738   3.364  17.033  0.00  0.00    +0.000 OA
ATOM     32  C   UNL     1      51.968   3.465  17.855  0.00  0.00    +0.000 A 
ATOM     33  H   UNL     1      50.100   0.954  16.866  0.00  0.00    +0.000 HD
ENDBRANCH  20  23
ENDBRANCH   1  19
BRANCH   1  35
ATOM     34  C   UNL     1      47.890   5.608  19.531  0.00  0.00    +0.000 C 
ATOM     35  C   UNL     1      48.020   6.970  18.857  0.00  0.00    +0.000 C 
ENDBRANCH   1  35
TORSDOF 7
ENDMDL
MODEL 8
REMARK VINA RESULT:    -6.340      2.009      2.921
REMARK INTER + INTRA:         -10.109
REMARK INTER:                  -8.723
REMARK INTRA:                  -1.386
REMARK UNBOUND:                -1.174
REMARK  Name = 
REMARK  9 active torsions:
REMARK  status: ('A' for Active; 'I' for Inactive)
REMARK    1  A    between atoms: C_1  and  C_2
REMARK    2  A    between atoms: C_2  and  C_3
REMARK    3  A    between atoms: C_3  and  N_4
REMARK    4  A    between atoms: C_3  and  C_17
REMARK    5  A    between atoms: C_5  and  C_7
REMARK    6  A    between atoms: C_20  and  C_21
REMARK    7  A    between atoms: C_21  and  N_22
REMARK    8  A    between atoms: C_23  and  C_25
REMARK    9  A    between atoms: N_29  and  C_30
REMARK                            x       y       z     vdW  Elec       q    Type
REMARK                         _______ _______ _______ _____ _____    ______ ____
ROOT
ATOM      1  C   UNL     1      49.915   8.624  14.455  0.00  0.00    +0.000 C 
ENDROOT
BRANCH   1   2
ATOM      2  C   UNL     1      48.628   8.332  13.693  0.00  0.00    +0.000 A 
ATOM      3  C   UNL     1      48.563   7.240  12.815  0.00  0.00    +0.000 A 
ATOM      4  C   UNL     1      47.386   6.950  12.113  0.00  0.00    +0.000 A 
ATOM      5  C   UNL     1      46.243   7.747  12.268  0.00  0.00    +0.000 A 
ATOM      6  C   UNL     1      46.295   8.818  13.170  0.00  0.00    +0.000 A 
ATOM      7  C   UNL     1      47.474   9.113  13.866  0.00  0.00    +0.000 A 
BRANCH   5   8
ATOM      8  C   UNL     1      44.985   7.463  11.483  0.00  0.00    +0.000 C 
BRANCH   8   9
ATOM      9  N   UNL     1      45.051   6.198  10.790  0.00  0.00    +0.000 N 
ATOM     10  C   UNL     1      43.939   5.392  10.648  0.00  0.00    +0.000 C 
ATOM     11  O   UNL     1      42.850   5.705  11.119  0.00  0.00    +0.000 OA
ATOM     12  H   UNL     1      45.875   6.010  10.239  0.00  0.00    +0.000 HD
BRANCH  10  13
ATOM     13  C   UNL     1      44.160   4.172   9.907  0.00  0.00    +0.000 A 
ATOM     14  C   UNL     1      44.625   3.977   8.613  0.00  0.00    +0.000 A 
ATOM     15  N   UNL     1      44.717   2.652   8.293  0.00  0.00    +0.000 NA
ATOM     16  C   UNL     1      44.329   2.014   9.369  0.00  0.00    +0.000 A 
ATOM     17  N   UNL     1      43.975   2.880  10.368  0.00  0.00    +0.000 N 
ATOM     18  C   UNL     1      43.485   2.472  11.661  0.00  0.00    +0.000 C 
ENDBRANCH  10  13
ENDBRANCH   8   9
ENDBRANCH   5   8
ENDBRANCH   1   2
BRANCH   1  19
ATOM     19  N   UNL     1      49.886   7.883  15.710  0.00  0.00    +0.000 N 
ATOM     20  C   UNL     1      50.963   7.163  16.180  0.00  0.00    +0.000 C 
ATOM     21  O   UNL     1      52.021   7.076  15.573  0.00  0.00    +0.000 OA
ATOM     22  H   UNL     1      49.020   7.867  16.227  0.00  0.00    +0.000 HD
BRANCH  20  23
ATOM     23  C   UNL     1      50.745   6.540  17.489  0.00  0.00    +0.000 A 
ATOM     24  C   UNL     1      51.489   6.857  18.617  0.00  0.00    +0.000 A 
ATOM     25  S   UNL     1      51.066   5.934  19.990  0.00  0.00    +0.000 S 
ATOM     26  C   UNL     1      49.892   5.067  19.115  0.00  0.00    +0.000 A 
ATOM     27  N   UNL     1      49.160   4.089  19.712  0.00  0.00    +0.000 NA
ATOM     28  C   UNL     1      48.319   3.502  18.923  0.00  0.00    +0.000 A 
ATOM     29  N   UNL     1      48.140   3.816  17.599  0.00  0.00    +0.000 N 
ATOM     30  C   UNL     1      48.795   4.856  16.977  0.00  0.00    +0.000 A 
ATOM     31  O   UNL     1      48.468   5.215  15.853  0.00  0.00    +0.000 OA
ATOM     32  C   UNL     1      49.802   5.496  17.802  0.00  0.00    +0.000 A 
ATOM     33  H   UNL     1      47.427   3.359  17.052  0.00  0.00    +0.000 HD
ENDBRANCH  20  23
ENDBRANCH   1  19
BRANCH   1  35
ATOM     34  C   UNL     1      50.868  10.857  13.600  0.00  0.00    +0.000 C 
ATOM     35  C   UNL     1      50.144  10.128  14.726  0.00  0.00    +0.000 C 
ENDBRANCH   1  35
TORSDOF 7
ENDMDL
MODEL 9
REMARK VINA RESULT:    -6.064      3.912      8.822
REMARK INTER + INTRA:          -9.720
REMARK INTER:                  -8.564
REMARK INTRA:                  -1.156
REMARK UNBOUND:                -1.174
REMARK  Name = 
REMARK  9 active torsions:
REMARK  status: ('A' for Active; 'I' for Inactive)
REMARK    1  A    between atoms: C_1  and  C_2
REMARK    2  A    between atoms: C_2  and  C_3
REMARK    3  A    between atoms: C_3  and  N_4
REMARK    4  A    between atoms: C_3  and  C_17
REMARK    5  A    between atoms: C_5  and  C_7
REMARK    6  A    between atoms: C_20  and  C_21
REMARK    7  A    between atoms: C_21  and  N_22
REMARK    8  A    between atoms: C_23  and  C_25
REMARK    9  A    between atoms: N_29  and  C_30
REMARK                            x       y       z     vdW  Elec       q    Type
REMARK                         _______ _______ _______ _____ _____    ______ ____
ROOT
ATOM      1  C   UNL     1      47.915   4.338  16.464  0.00  0.00    +0.000 C 
ENDROOT
BRANCH   1   2
ATOM      2  C   UNL     1      49.282   4.978  16.676  0.00  0.00    +0.000 A 
ATOM      3  C   UNL     1      49.539   6.268  16.188  0.00  0.00    +0.000 A 
ATOM      4  C   UNL     1      50.785   6.877  16.382  0.00  0.00    +0.000 A 
ATOM      5  C   UNL     1      51.810   6.210  17.066  0.00  0.00    +0.000 A 
ATOM      6  C   UNL     1      51.547   4.934  17.583  0.00  0.00    +0.000 A 
ATOM      7  C   UNL     1      50.303   4.322  17.383  0.00  0.00    +0.000 A 
BRANCH   5   8
ATOM      8  C   UNL     1      53.169   6.845  17.241  0.00  0.00    +0.000 C 
BRANCH   8   9
ATOM      9  N   UNL     1      53.429   7.855  16.243  0.00  0.00    +0.000 N 
ATOM     10  C   UNL     1      54.066   7.552  15.056  0.00  0.00    +0.000 C 
ATOM     11  O   UNL     1      54.455   6.416  14.802  0.00  0.00    +0.000 OA
ATOM     12  H   UNL     1      52.958   8.742  16.342  0.00  0.00    +0.000 HD
BRANCH  10  13
ATOM     13  C   UNL     1      54.229   8.666  14.149  0.00  0.00    +0.000 A 
ATOM     14  C   UNL     1      55.302   9.529  13.969  0.00  0.00    +0.000 A 
ATOM     15  N   UNL     1      55.067  10.444  12.983  0.00  0.00    +0.000 NA
ATOM     16  C   UNL     1      53.870  10.161  12.534  0.00  0.00    +0.000 A 
ATOM     17  N   UNL     1      53.317   9.105  13.206  0.00  0.00    +0.000 N 
ATOM     18  C   UNL     1      51.998   8.579  12.950  0.00  0.00    +0.000 C 
ENDBRANCH  10  13
ENDBRANCH   8   9
ENDBRANCH   5   8
ENDBRANCH   1   2
BRANCH   1  19
ATOM     19  N   UNL     1      47.195   5.113  15.460  0.00  0.00    +0.000 N 
ATOM     20  C   UNL     1      47.007   4.673  14.168  0.00  0.00    +0.000 C 
ATOM     21  O   UNL     1      47.445   3.608  13.758  0.00  0.00    +0.000 OA
ATOM     22  H   UNL     1      46.862   6.028  15.723  0.00  0.00    +0.000 HD
BRANCH  20  23
ATOM     23  C   UNL     1      46.206   5.576  13.336  0.00  0.00    +0.000 A 
ATOM     24  C   UNL     1      46.547   6.901  13.103  0.00  0.00    +0.000 A 
ATOM     25  S   UNL     1      45.402   7.739  12.153  0.00  0.00    +0.000 S 
ATOM     26  C   UNL     1      44.403   6.365  12.043  0.00  0.00    +0.000 A 
ATOM     27  N   UNL     1      43.226   6.412  11.366  0.00  0.00    +0.000 NA
ATOM     28  C   UNL     1      42.562   5.302  11.381  0.00  0.00    +0.000 A 
ATOM     29  N   UNL     1      42.979   4.152  12.002  0.00  0.00    +0.000 N 
ATOM     30  C   UNL     1      44.202   4.032  12.624  0.00  0.00    +0.000 A 
ATOM     31  O   UNL     1      44.607   2.940  13.001  0.00  0.00    +0.000 OA
ATOM     32  C   UNL     1      44.950   5.274  12.696  0.00  0.00    +0.000 A 
ATOM     33  H   UNL     1      42.442   3.301  11.929  0.00  0.00    +0.000 HD
ENDBRANCH  20  23
ENDBRANCH   1  19
BRANCH   1  35
ATOM     34  C   UNL     1      47.050   5.507  18.587  0.00  0.00    +0.000 C 
ATOM     35  C   UNL     1      47.079   4.228  17.758  0.00  0.00    +0.000 C 
ENDBRANCH   1  35
TORSDOF 7
ENDMDL
