MODEL 1
REMARK VINA RESULT:    -7.870      0.000      0.000
REMARK INTER + INTRA:         -14.490
REMARK INTER:                 -12.470
REMARK INTRA:                  -2.020
REMARK UNBOUND:                -2.020
REMARK  Name = 
REMARK  10 active torsions:
REMARK  status: ('A' for Active; 'I' for Inactive)
REMARK    1  A    between atoms: C_2  and  C_4
REMARK    2  A    between atoms: C_4  and  C_5
REMARK    3  A    between atoms: C_5  and  C_6
REMARK    4  A    between atoms: C_6  and  N_7
REMARK    5  A    between atoms: C_6  and  C_29
REMARK    6  A    between atoms: N_7  and  C_8
REMARK    7  A    between atoms: C_8  and  C_9
REMARK    8  A    between atoms: C_12  and  C_13
REMARK    9  A    between atoms: C_13  and  N_14
REMARK   10  A    between atoms: C_15  and  C_17
REMARK                            x       y       z     vdW  Elec       q    Type
REMARK                         _______ _______ _______ _____ _____    ______ ____
ROOT
ATOM      1  C   UNL     1      45.456   6.825  11.293  0.00  0.00    +0.000 A 
ATOM      2  C   UNL     1      46.687   6.254  11.633  0.00  0.00    +0.000 A 
ATOM      3  C   UNL     1      47.482   6.825  12.632  0.00  0.00    +0.000 A 
ATOM      4  C   UNL     1      47.053   7.972  13.316  0.00  0.00    +0.000 A 
ATOM      5  C   UNL     1      45.844   8.569  12.942  0.00  0.00    +0.000 A 
ATOM      6  C   UNL     1      45.051   7.998  11.948  0.00  0.00    +0.000 A 
ENDROOT
BRANCH   1   7
ATOM      7  C   UNL     1      44.586   6.238  10.207  0.00  0.00    +0.000 C 
BRANCH   7   8
ATOM      8  N   UNL     1      45.363   5.486   9.208  0.00  0.00    +0.000 NA
ATOM      9  H   UNL     1      46.332   5.798   9.269  0.00  0.00    +0.000 HD
BRANCH   8  10
ATOM     10  C   UNL     1      45.329   4.010   9.453  0.00  0.00    +0.000 C 
BRANCH  10  11
ATOM     11  C   UNL     1      45.883   3.229   8.255  0.00  0.00    +0.000 A 
ATOM     12  C   UNL     1      46.120   1.855   8.386  0.00  0.00    +0.000 A 
ATOM     13  C   UNL     1      46.760   1.169   7.356  0.00  0.00    +0.000 A 
ATOM     14  C   UNL     1      47.117   1.858   6.205  0.00  0.00    +0.000 A 
ATOM     15  C   UNL     1      46.807   3.204   6.131  0.00  0.00    +0.000 A 
ATOM     16  N   UNL     1      46.213   3.902   7.125  0.00  0.00    +0.000 NA
ENDBRANCH  10  11
BRANCH  10  17
ATOM     17  C   UNL     1      43.915   3.611   9.944  0.00  0.00    +0.000 C 
BRANCH  17  18
ATOM     18  C   UNL     1      43.822   2.657  11.132  0.00  0.00    +0.000 C 
BRANCH  18  20
ATOM     19  N   UNL     1      45.537   2.972  12.825  0.00  0.00    +0.000 N 
ATOM     20  C   UNL     1      44.310   3.366  12.386  0.00  0.00    +0.000 C 
ATOM     21  O   UNL     1      43.694   4.242  12.982  0.00  0.00    +0.000 OA
ATOM     22  H   UNL     1      45.862   3.372  13.695  0.00  0.00    +0.000 HD
ATOM     23  H   UNL     1      46.014   2.161  12.453  0.00  0.00    +0.000 HD
ENDBRANCH  18  20
ENDBRANCH  17  18
ENDBRANCH  10  17
ENDBRANCH   8  10
ENDBRANCH   7   8
ENDBRANCH   1   7
BRANCH   4  24
ATOM     24  C   UNL     1      47.889   8.593  14.401  0.00  0.00    +0.000 C 
BRANCH  24  25
ATOM     25  N   UNL     1      48.114   7.659  15.474  0.00  0.00    +0.000 N 
ATOM     26  C   UNL     1      49.280   6.947  15.567  0.00  0.00    +0.000 C 
ATOM     27  O   UNL     1      50.202   7.096  14.771  0.00  0.00    +0.000 OA
ATOM     28  H   UNL     1      47.296   7.352  15.990  0.00  0.00    +0.000 HD
BRANCH  26  29
ATOM     29  C   UNL     1      49.395   6.041  16.716  0.00  0.00    +0.000 A 
ATOM     30  C   UNL     1      50.375   6.270  17.674  0.00  0.00    +0.000 A 
ATOM     31  S   UNL     1      50.337   5.160  18.968  0.00  0.00    +0.000 S 
ATOM     32  C   UNL     1      49.041   4.303  18.269  0.00  0.00    +0.000 A 
ATOM     33  N   UNL     1      48.525   3.201  18.872  0.00  0.00    +0.000 NA
ATOM     34  C   UNL     1      47.564   2.639  18.224  0.00  0.00    +0.000 A 
ATOM     35  N   UNL     1      47.064   3.080  17.025  0.00  0.00    +0.000 N 
ATOM     36  C   UNL     1      47.542   4.200  16.387  0.00  0.00    +0.000 A 
ATOM     37  O   UNL     1      47.053   4.587  15.330  0.00  0.00    +0.000 OA
ATOM     38  C   UNL     1      48.634   4.868  17.072  0.00  0.00    +0.000 A 
ATOM     39  H   UNL     1      46.309   2.595  16.567  0.00  0.00    +0.000 HD
ENDBRANCH  26  29
ENDBRANCH  24  25
ENDBRANCH   4  24
TORSDOF 10
ENDMDL
MODEL 2
REMARK VINA RESULT:    -7.077      2.205      2.966
REMARK INTER + INTRA:         -13.234
REMARK INTER:                 -11.925
REMARK INTRA:                  -1.309
REMARK UNBOUND:                -2.020
REMARK  Name = 
REMARK  10 active torsions:
REMARK  status: ('A' for Active; 'I' for Inactive)
REMARK    1  A    between atoms: C_2  and  C_4
REMARK    2  A    between atoms: C_4  and  C_5
REMARK    3  A    between atoms: C_5  and  C_6
REMARK    4  A    between atoms: C_6  and  N_7
REMARK    5  A    between atoms: C_6  and  C_29
REMARK    6  A    between atoms: N_7  and  C_8
REMARK    7  A    between atoms: C_8  and  C_9
REMARK    8  A    between atoms: C_12  and  C_13
REMARK    9  A    between atoms: C_13  and  N_14
REMARK   10  A    between atoms: C_15  and  C_17
REMARK                            x       y       z     vdW  Elec       q    Type
REMARK                         _______ _______ _______ _____ _____    ______ ____
ROOT
ATOM      1  C   UNL     1      46.135   7.156  12.355  0.00  0.00    +0.000 A 
ATOM      2  C   UNL     1      46.366   8.451  12.834  0.00  0.00    +0.000 A 
ATOM      3  C   UNL     1      47.322   8.678  13.830  0.00  0.00    +0.000 A 
ATOM      4  C   UNL     1      48.071   7.615  14.355  0.00  0.00    +0.000 A 
ATOM      5  C   UNL     1      47.806   6.315  13.908  0.00  0.00    +0.000 A 
ATOM      6  C   UNL     1      46.855   6.090  12.915  0.00  0.00    +0.000 A 
ENDROOT
BRANCH   1   7
ATOM      7  C   UNL     1      45.097   6.880  11.293  0.00  0.00    +0.000 C 
BRANCH   7   8
ATOM      8  N   UNL     1      45.618   6.046  10.198  0.00  0.00    +0.000 NA
ATOM      9  H   UNL     1      46.628   5.968  10.320  0.00  0.00    +0.000 HD
BRANCH   8  10
ATOM     10  C   UNL     1      45.037   4.667  10.206  0.00  0.00    +0.000 C 
BRANCH  10  11
ATOM     11  C   UNL     1      45.556   3.832   9.028  0.00  0.00    +0.000 A 
ATOM     12  C   UNL     1      45.537   2.435   9.121  0.00  0.00    +0.000 A 
ATOM     13  C   UNL     1      46.140   1.675   8.122  0.00  0.00    +0.000 A 
ATOM     14  C   UNL     1      46.716   2.319   7.036  0.00  0.00    +0.000 A 
ATOM     15  C   UNL     1      46.654   3.701   6.993  0.00  0.00    +0.000 A 
ATOM     16  N   UNL     1      46.101   4.467   7.961  0.00  0.00    +0.000 NA
ENDBRANCH  10  11
BRANCH  10  17
ATOM     17  C   UNL     1      43.499   4.766  10.359  0.00  0.00    +0.000 C 
BRANCH  17  18
ATOM     18  C   UNL     1      42.900   4.423  11.720  0.00  0.00    +0.000 C 
BRANCH  18  20
ATOM     19  N   UNL     1      43.392   2.048  11.873  0.00  0.00    +0.000 N 
ATOM     20  C   UNL     1      43.693   3.288  12.349  0.00  0.00    +0.000 C 
ATOM     21  O   UNL     1      44.558   3.426  13.205  0.00  0.00    +0.000 OA
ATOM     22  H   UNL     1      43.850   1.264  12.317  0.00  0.00    +0.000 HD
ATOM     23  H   UNL     1      42.594   1.873  11.277  0.00  0.00    +0.000 HD
ENDBRANCH  18  20
ENDBRANCH  17  18
ENDBRANCH  10  17
ENDBRANCH   8  10
ENDBRANCH   7   8
ENDBRANCH   1   7
BRANCH   4  24
ATOM     24  C   UNL     1      49.112   7.843  15.417  0.00  0.00    +0.000 C 
BRANCH  24  25
ATOM     25  N   UNL     1      49.742   6.603  15.793  0.00  0.00    +0.000 N 
ATOM     26  C   UNL     1      49.397   5.949  16.945  0.00  0.00    +0.000 C 
ATOM     27  O   UNL     1      48.512   6.359  17.691  0.00  0.00    +0.000 OA
ATOM     28  H   UNL     1      50.616   6.378  15.331  0.00  0.00    +0.000 HD
BRANCH  26  29
ATOM     29  C   UNL     1      50.098   4.686  17.208  0.00  0.00    +0.000 A 
ATOM     30  C   UNL     1      49.384   3.494  17.213  0.00  0.00    +0.000 A 
ATOM     31  S   UNL     1      50.356   2.118  17.478  0.00  0.00    +0.000 S 
ATOM     32  C   UNL     1      51.759   3.071  17.644  0.00  0.00    +0.000 A 
ATOM     33  N   UNL     1      52.964   2.502  17.908  0.00  0.00    +0.000 NA
ATOM     34  C   UNL     1      53.934   3.340  18.030  0.00  0.00    +0.000 A 
ATOM     35  N   UNL     1      53.814   4.701  17.906  0.00  0.00    +0.000 N 
ATOM     36  C   UNL     1      52.620   5.320  17.621  0.00  0.00    +0.000 A 
ATOM     37  O   UNL     1      52.551   6.537  17.487  0.00  0.00    +0.000 OA
ATOM     38  C   UNL     1      51.489   4.420  17.482  0.00  0.00    +0.000 A 
ATOM     39  H   UNL     1      54.614   5.305  18.013  0.00  0.00    +0.000 HD
ENDBRANCH  26  29
ENDBRANCH  24  25
ENDBRANCH   4  24
TORSDOF 10
ENDMDL
MODEL 3
REMARK VINA RESULT:    -7.076      3.030      4.448
REMARK INTER + INTRA:         -13.232
REMARK INTER:                 -11.601
REMARK INTRA:                  -1.631
REMARK UNBOUND:                -2.020
REMARK  Name = 
REMARK  10 active torsions:
REMARK  status: ('A' for Active; 'I' for Inactive)
REMARK    1  A    between atoms: C_2  and  C_4
REMARK    2  A    between atoms: C_4  and  C_5
REMARK    3  A    between atoms: C_5  and  C_6
REMARK    4  A    between atoms: C_6  and  N_7
REMARK    5  A    between atoms: C_6  and  C_29
REMARK    6  A    between atoms: N_7  and  C_8
REMARK    7  A    between atoms: C_8  and  C_9
REMARK    8  A    between atoms: C_12  and  C_13
REMARK    9  A    between atoms: C_13  and  N_14
REMARK   10  A    between atoms: C_15  and  C_17
REMARK                            x       y       z     vdW  Elec       q    Type
REMARK                         _______ _______ _______ _____ _____    ______ ____
ROOT
ATOM      1  C   UNL     1      47.109   5.030  14.273  0.00  0.00    +0.000 A 
ATOM      2  C   UNL     1      47.148   4.284  15.457  0.00  0.00    +0.000 A 
ATOM      3  C   UNL     1      47.921   4.714  16.540  0.00  0.00    +0.000 A 
ATOM      4  C   UNL     1      48.659   5.904  16.461  0.00  0.00    +0.000 A 
ATOM      5  C   UNL     1      48.656   6.624  15.261  0.00  0.00    +0.000 A 
ATOM      6  C   UNL     1      47.884   6.196  14.183  0.00  0.00    +0.000 A 
ENDROOT
BRANCH   1   7
ATOM      7  C   UNL     1      46.296   4.579  13.082  0.00  0.00    +0.000 C 
BRANCH   7   8
ATOM      8  N   UNL     1      44.955   5.187  13.052  0.00  0.00    +0.000 NA
ATOM      9  H   UNL     1      44.938   5.936  13.744  0.00  0.00    +0.000 HD
BRANCH   8  10
ATOM     10  C   UNL     1      44.626   5.774  11.716  0.00  0.00    +0.000 C 
BRANCH  10  11
ATOM     11  C   UNL     1      44.814   4.750  10.590  0.00  0.00    +0.000 A 
ATOM     12  C   UNL     1      45.578   5.099   9.469  0.00  0.00    +0.000 A 
ATOM     13  C   UNL     1      45.630   4.233   8.380  0.00  0.00    +0.000 A 
ATOM     14  C   UNL     1      44.952   3.024   8.444  0.00  0.00    +0.000 A 
ATOM     15  C   UNL     1      44.257   2.729   9.604  0.00  0.00    +0.000 A 
ATOM     16  N   UNL     1      44.164   3.562  10.665  0.00  0.00    +0.000 NA
ENDBRANCH  10  11
BRANCH  10  17
ATOM     17  C   UNL     1      45.374   7.121  11.557  0.00  0.00    +0.000 C 
BRANCH  17  18
ATOM     18  C   UNL     1      44.533   8.374  11.323  0.00  0.00    +0.000 C 
BRANCH  18  20
ATOM     19  N   UNL     1      45.912   9.089  13.192  0.00  0.00    +0.000 N 
ATOM     20  C   UNL     1      45.005   9.480  12.254  0.00  0.00    +0.000 C 
ATOM     21  O   UNL     1      44.644  10.649  12.195  0.00  0.00    +0.000 OA
ATOM     22  H   UNL     1      46.195   9.783  13.871  0.00  0.00    +0.000 HD
ATOM     23  H   UNL     1      46.129   8.117  13.368  0.00  0.00    +0.000 HD
ENDBRANCH  18  20
ENDBRANCH  17  18
ENDBRANCH  10  17
ENDBRANCH   8  10
ENDBRANCH   7   8
ENDBRANCH   1   7
BRANCH   4  24
ATOM     24  C   UNL     1      49.486   6.388  17.621  0.00  0.00    +0.000 C 
BRANCH  24  25
ATOM     25  N   UNL     1      50.459   5.398  18.006  0.00  0.00    +0.000 N 
ATOM     26  C   UNL     1      51.698   5.353  17.426  0.00  0.00    +0.000 C 
ATOM     27  O   UNL     1      52.056   6.170  16.583  0.00  0.00    +0.000 OA
ATOM     28  H   UNL     1      50.111   4.590  18.511  0.00  0.00    +0.000 HD
BRANCH  26  29
ATOM     29  C   UNL     1      52.606   4.309  17.917  0.00  0.00    +0.000 A 
ATOM     30  C   UNL     1      53.806   4.671  18.516  0.00  0.00    +0.000 A 
ATOM     31  S   UNL     1      54.715   3.343  19.080  0.00  0.00    +0.000 S 
ATOM     32  C   UNL     1      53.560   2.233  18.499  0.00  0.00    +0.000 A 
ATOM     33  N   UNL     1      53.742   0.895  18.642  0.00  0.00    +0.000 NA
ATOM     34  C   UNL     1      52.802   0.172  18.138  0.00  0.00    +0.000 A 
ATOM     35  N   UNL     1      51.689   0.664  17.506  0.00  0.00    +0.000 N 
ATOM     36  C   UNL     1      51.453   2.010  17.354  0.00  0.00    +0.000 A 
ATOM     37  O   UNL     1      50.432   2.419  16.811  0.00  0.00    +0.000 OA
ATOM     38  C   UNL     1      52.488   2.872  17.898  0.00  0.00    +0.000 A 
ATOM     39  H   UNL     1      50.987   0.044  17.132  0.00  0.00    +0.000 HD
ENDBRANCH  26  29
ENDBRANCH  24  25
ENDBRANCH   4  24
TORSDOF 10
ENDMDL
MODEL 4
REMARK VINA RESULT:    -6.857      2.104      2.372
REMARK INTER + INTRA:         -12.885
REMARK INTER:                 -12.079
REMARK INTRA:                  -0.806
REMARK UNBOUND:                -2.020
REMARK  Name = 
REMARK  10 active torsions:
REMARK  status: ('A' for Active; 'I' for Inactive)
REMARK    1  A    between atoms: C_2  and  C_4
REMARK    2  A    between atoms: C_4  and  C_5
REMARK    3  A    between atoms: C_5  and  C_6
REMARK    4  A    between atoms: C_6  and  N_7
REMARK    5  A    between atoms: C_6  and  C_29
REMARK    6  A    between atoms: N_7  and  C_8
REMARK    7  A    between atoms: C_8  and  C_9
REMARK    8  A    between atoms: C_12  and  C_13
REMARK    9  A    between atoms: C_13  and  N_14
REMARK   10  A    between atoms: C_15  and  C_17
REMARK                            x       y       z     vdW  Elec       q    Type
REMARK                         _______ _______ _______ _____ _____    ______ ____
ROOT
ATOM      1  C   UNL     1      46.953   6.443  11.737  0.00  0.00    +0.000 A 
ATOM      2  C   UNL     1      46.973   5.525  12.793  0.00  0.00    +0.000 A 
ATOM      3  C   UNL     1      47.490   5.891  14.040  0.00  0.00    +0.000 A 
ATOM      4  C   UNL     1      47.985   7.185  14.255  0.00  0.00    +0.000 A 
ATOM      5  C   UNL     1      48.008   8.087  13.185  0.00  0.00    +0.000 A 
ATOM      6  C   UNL     1      47.491   7.722  11.943  0.00  0.00    +0.000 A 
ENDROOT
BRANCH   1   7
ATOM      7  C   UNL     1      46.416   6.068  10.375  0.00  0.00    +0.000 C 
BRANCH   7   8
ATOM      8  N   UNL     1      45.037   5.556  10.434  0.00  0.00    +0.000 NA
ATOM      9  H   UNL     1      44.539   5.909   9.617  0.00  0.00    +0.000 HD
BRANCH   8  10
ATOM     10  C   UNL     1      44.984   4.061  10.407  0.00  0.00    +0.000 C 
BRANCH  10  11
ATOM     11  C   UNL     1      45.514   3.504   9.080  0.00  0.00    +0.000 A 
ATOM     12  C   UNL     1      45.709   2.124   8.947  0.00  0.00    +0.000 A 
ATOM     13  C   UNL     1      46.328   1.627   7.802  0.00  0.00    +0.000 A 
ATOM     14  C   UNL     1      46.706   2.509   6.800  0.00  0.00    +0.000 A 
ATOM     15  C   UNL     1      46.438   3.854   6.984  0.00  0.00    +0.000 A 
ATOM     16  N   UNL     1      45.865   4.369   8.096  0.00  0.00    +0.000 NA
ENDBRANCH  10  11
BRANCH  10  17
ATOM     17  C   UNL     1      43.570   3.597  10.835  0.00  0.00    +0.000 C 
BRANCH  17  18
ATOM     18  C   UNL     1      43.164   3.815  12.291  0.00  0.00    +0.000 C 
BRANCH  18  20
ATOM     19  N   UNL     1      42.082   5.938  11.809  0.00  0.00    +0.000 N 
ATOM     20  C   UNL     1      43.029   5.305  12.559  0.00  0.00    +0.000 C 
ATOM     21  O   UNL     1      43.680   5.932  13.385  0.00  0.00    +0.000 OA
ATOM     22  H   UNL     1      42.013   6.941  11.912  0.00  0.00    +0.000 HD
ATOM     23  H   UNL     1      41.626   5.494  11.023  0.00  0.00    +0.000 HD
ENDBRANCH  18  20
ENDBRANCH  17  18
ENDBRANCH  10  17
ENDBRANCH   8  10
ENDBRANCH   7   8
ENDBRANCH   1   7
BRANCH   4  24
ATOM     24  C   UNL     1      48.534   7.600  15.593  0.00  0.00    +0.000 C 
BRANCH  24  25
ATOM     25  N   UNL     1      49.619   6.742  15.991  0.00  0.00    +0.000 N 
ATOM     26  C   UNL     1      49.552   5.989  17.132  0.00  0.00    +0.000 C 
ATOM     27  O   UNL     1      48.555   5.975  17.848  0.00  0.00    +0.000 OA
ATOM     28  H   UNL     1      50.520   6.915  15.558  0.00  0.00    +0.000 HD
BRANCH  26  29
ATOM     29  C   UNL     1      50.715   5.141  17.420  0.00  0.00    +0.000 A 
ATOM     30  C   UNL     1      51.914   5.729  17.804  0.00  0.00    +0.000 A 
ATOM     31  S   UNL     1      53.145   4.603  18.153  0.00  0.00    +0.000 S 
ATOM     32  C   UNL     1      52.135   3.289  17.756  0.00  0.00    +0.000 A 
ATOM     33  N   UNL     1      52.590   2.011  17.822  0.00  0.00    +0.000 NA
ATOM     34  C   UNL     1      51.728   1.119  17.474  0.00  0.00    +0.000 A 
ATOM     35  N   UNL     1      50.445   1.386  17.068  0.00  0.00    +0.000 N 
ATOM     36  C   UNL     1      49.935   2.661  17.003  0.00  0.00    +0.000 A 
ATOM     37  O   UNL     1      48.773   2.864  16.665  0.00  0.00    +0.000 OA
ATOM     38  C   UNL     1      50.870   3.707  17.378  0.00  0.00    +0.000 A 
ATOM     39  H   UNL     1      49.818   0.642  16.807  0.00  0.00    +0.000 HD
ENDBRANCH  26  29
ENDBRANCH  24  25
ENDBRANCH   4  24
TORSDOF 10
ENDMDL
MODEL 5
REMARK VINA RESULT:    -6.823      2.085      2.915
REMARK INTER + INTRA:         -12.832
REMARK INTER:                 -10.579
REMARK INTRA:                  -2.252
REMARK UNBOUND:                -2.020
REMARK  Name = 
REMARK  10 active torsions:
REMARK  status: ('A' for Active; 'I' for Inactive)
REMARK    1  A    between atoms: C_2  and  C_4
REMARK    2  A    between atoms: C_4  and  C_5
REMARK    3  A    between atoms: C_5  and  C_6
REMARK    4  A    between atoms: C_6  and  N_7
REMARK    5  A    between atoms: C_6  and  C_29
REMARK    6  A    between atoms: N_7  and  C_8
REMARK    7  A    between atoms: C_8  and  C_9
REMARK    8  A    between atoms: C_12  and  C_13
REMARK    9  A    between atoms: C_13  and  N_14
REMARK   10  A    between atoms: C_15  and  C_17
REMARK                            x       y       z     vdW  Elec       q    Type
REMARK                         _______ _______ _______ _____ _____    ______ ____
ROOT
ATOM      1  C   UNL     1      46.287   8.357  12.113  0.00  0.00    +0.000 A 
ATOM      2  C   UNL     1      46.526   8.814  13.414  0.00  0.00    +0.000 A 
ATOM      3  C   UNL     1      47.830   8.866  13.918  0.00  0.00    +0.000 A 
ATOM      4  C   UNL     1      48.918   8.472  13.124  0.00  0.00    +0.000 A 
ATOM      5  C   UNL     1      48.672   7.972  11.841  0.00  0.00    +0.000 A 
ATOM      6  C   UNL     1      47.373   7.922  11.338  0.00  0.00    +0.000 A 
ENDROOT
BRANCH   1   7
ATOM      7  C   UNL     1      44.887   8.275  11.550  0.00  0.00    +0.000 C 
BRANCH   7   8
ATOM      8  N   UNL     1      44.292   6.938  11.714  0.00  0.00    +0.000 NA
ATOM      9  H   UNL     1      43.714   6.753  10.895  0.00  0.00    +0.000 HD
BRANCH   8  10
ATOM     10  C   UNL     1      45.327   5.862  11.813  0.00  0.00    +0.000 C 
BRANCH  10  11
ATOM     11  C   UNL     1      45.192   4.848  10.670  0.00  0.00    +0.000 A 
ATOM     12  C   UNL     1      45.662   5.188   9.395  0.00  0.00    +0.000 A 
ATOM     13  C   UNL     1      45.411   4.336   8.323  0.00  0.00    +0.000 A 
ATOM     14  C   UNL     1      44.730   3.148   8.548  0.00  0.00    +0.000 A 
ATOM     15  C   UNL     1      44.338   2.859   9.843  0.00  0.00    +0.000 A 
ATOM     16  N   UNL     1      44.542   3.680  10.899  0.00  0.00    +0.000 NA
ENDBRANCH  10  11
BRANCH  10  17
ATOM     17  C   UNL     1      45.325   5.287  13.251  0.00  0.00    +0.000 C 
BRANCH  17  18
ATOM     18  C   UNL     1      46.677   5.031  13.912  0.00  0.00    +0.000 C 
BRANCH  18  20
ATOM     19  N   UNL     1      46.158   2.770  13.184  0.00  0.00    +0.000 N 
ATOM     20  C   UNL     1      46.902   3.532  14.034  0.00  0.00    +0.000 C 
ATOM     21  O   UNL     1      47.693   3.001  14.804  0.00  0.00    +0.000 OA
ATOM     22  H   UNL     1      46.232   1.767  13.286  0.00  0.00    +0.000 HD
ATOM     23  H   UNL     1      45.398   3.151  12.637  0.00  0.00    +0.000 HD
ENDBRANCH  18  20
ENDBRANCH  17  18
ENDBRANCH  10  17
ENDBRANCH   8  10
ENDBRANCH   7   8
ENDBRANCH   1   7
BRANCH   4  24
ATOM     24  C   UNL     1      50.328   8.533  13.646  0.00  0.00    +0.000 C 
BRANCH  24  25
ATOM     25  N   UNL     1      50.604   7.416  14.511  0.00  0.00    +0.000 N 
ATOM     26  C   UNL     1      51.297   7.573  15.681  0.00  0.00    +0.000 C 
ATOM     27  O   UNL     1      51.681   8.672  16.070  0.00  0.00    +0.000 OA
ATOM     28  H   UNL     1      50.510   6.491  14.104  0.00  0.00    +0.000 HD
BRANCH  26  29
ATOM     29  C   UNL     1      51.498   6.361  16.483  0.00  0.00    +0.000 A 
ATOM     30  C   UNL     1      52.788   5.966  16.817  0.00  0.00    +0.000 A 
ATOM     31  S   UNL     1      52.842   4.571  17.797  0.00  0.00    +0.000 S 
ATOM     32  C   UNL     1      51.145   4.417  17.770  0.00  0.00    +0.000 A 
ATOM     33  N   UNL     1      50.526   3.394  18.413  0.00  0.00    +0.000 NA
ATOM     34  C   UNL     1      49.243   3.386  18.292  0.00  0.00    +0.000 A 
ATOM     35  N   UNL     1      48.517   4.314  17.589  0.00  0.00    +0.000 N 
ATOM     36  C   UNL     1      49.099   5.376  16.938  0.00  0.00    +0.000 A 
ATOM     37  O   UNL     1      48.419   6.206  16.342  0.00  0.00    +0.000 OA
ATOM     38  C   UNL     1      50.547   5.427  17.035  0.00  0.00    +0.000 A 
ATOM     39  H   UNL     1      47.513   4.253  17.531  0.00  0.00    +0.000 HD
ENDBRANCH  26  29
ENDBRANCH  24  25
ENDBRANCH   4  24
TORSDOF 10
ENDMDL
MODEL 6
REMARK VINA RESULT:    -6.762      1.737      2.410
REMARK INTER + INTRA:         -12.735
REMARK INTER:                 -10.953
REMARK INTRA:                  -1.782
REMARK UNBOUND:                -2.020
REMARK  Name = 
REMARK  10 active torsions:
REMARK  status: ('A' for Active; 'I' for Inactive)
REMARK    1  A    between atoms: C_2  and  C_4
REMARK    2  A    between atoms: C_4  and  C_5
REMARK    3  A    between atoms: C_5  and  C_6
REMARK    4  A    between atoms: C_6  and  N_7
REMARK    5  A    between atoms: C_6  and  C_29
REMARK    6  A    between atoms: N_7  and  C_8
REMARK    7  A    between atoms: C_8  and  C_9
REMARK    8  A    between atoms: C_12  and  C_13
REMARK    9  A    between atoms: C_13  and  N_14
REMARK   10  A    between atoms: C_15  and  C_17
REMARK                            x       y       z     vdW  Elec       q    Type
REMARK                         _______ _______ _______ _____ _____    ______ ____
ROOT
ATOM      1  C   UNL     1      45.788   7.570  11.741  0.00  0.00    +0.000 A 
ATOM      2  C   UNL     1      45.743   8.283  12.945  0.00  0.00    +0.000 A 
ATOM      3  C   UNL     1      46.914   8.515  13.675  0.00  0.00    +0.000 A 
ATOM      4  C   UNL     1      48.150   8.046  13.207  0.00  0.00    +0.000 A 
ATOM      5  C   UNL     1      48.186   7.294  12.028  0.00  0.00    +0.000 A 
ATOM      6  C   UNL     1      47.020   7.065  11.300  0.00  0.00    +0.000 A 
ENDROOT
BRANCH   1   7
ATOM      7  C   UNL     1      44.536   7.291  10.942  0.00  0.00    +0.000 C 
BRANCH   7   8
ATOM      8  N   UNL     1      44.052   5.911  11.116  0.00  0.00    +0.000 NA
ATOM      9  H   UNL     1      43.462   5.686  10.316  0.00  0.00    +0.000 HD
BRANCH   8  10
ATOM     10  C   UNL     1      45.170   4.918  11.170  0.00  0.00    +0.000 C 
BRANCH  10  11
ATOM     11  C   UNL     1      45.300   4.147   9.851  0.00  0.00    +0.000 A 
ATOM     12  C   UNL     1      45.002   2.779   9.827  0.00  0.00    +0.000 A 
ATOM     13  C   UNL     1      45.258   2.042   8.673  0.00  0.00    +0.000 A 
ATOM     14  C   UNL     1      45.771   2.689   7.558  0.00  0.00    +0.000 A 
ATOM     15  C   UNL     1      45.996   4.051   7.643  0.00  0.00    +0.000 A 
ATOM     16  N   UNL     1      45.784   4.787   8.758  0.00  0.00    +0.000 NA
ENDBRANCH  10  11
BRANCH  10  17
ATOM     17  C   UNL     1      45.031   4.068  12.457  0.00  0.00    +0.000 C 
BRANCH  17  18
ATOM     18  C   UNL     1      45.339   4.746  13.790  0.00  0.00    +0.000 C 
BRANCH  18  20
ATOM     19  N   UNL     1      47.299   5.146  15.171  0.00  0.00    +0.000 N 
ATOM     20  C   UNL     1      46.712   4.305  14.274  0.00  0.00    +0.000 C 
ATOM     21  O   UNL     1      47.280   3.276  13.932  0.00  0.00    +0.000 OA
ATOM     22  H   UNL     1      48.241   4.920  15.461  0.00  0.00    +0.000 HD
ATOM     23  H   UNL     1      46.935   6.068  15.371  0.00  0.00    +0.000 HD
ENDBRANCH  18  20
ENDBRANCH  17  18
ENDBRANCH  10  17
ENDBRANCH   8  10
ENDBRANCH   7   8
ENDBRANCH   1   7
BRANCH   4  24
ATOM     24  C   UNL     1      49.420   8.297  13.973  0.00  0.00    +0.000 C 
BRANCH  24  25
ATOM     25  N   UNL     1      49.212   8.114  15.386  0.00  0.00    +0.000 N 
ATOM     26  C   UNL     1      49.992   7.259  16.117  0.00  0.00    +0.000 C 
ATOM     27  O   UNL     1      50.927   6.639  15.619  0.00  0.00    +0.000 OA
ATOM     28  H   UNL     1      48.321   8.423  15.759  0.00  0.00    +0.000 HD
BRANCH  26  29
ATOM     29  C   UNL     1      49.692   7.174  17.552  0.00  0.00    +0.000 A 
ATOM     30  C   UNL     1      49.672   8.333  18.318  0.00  0.00    +0.000 A 
ATOM     31  S   UNL     1      49.253   8.066  19.949  0.00  0.00    +0.000 S 
ATOM     32  C   UNL     1      49.132   6.384  19.701  0.00  0.00    +0.000 A 
ATOM     33  N   UNL     1      48.817   5.547  20.723  0.00  0.00    +0.000 NA
ATOM     34  C   UNL     1      48.781   4.301  20.401  0.00  0.00    +0.000 A 
ATOM     35  N   UNL     1      49.026   3.809  19.144  0.00  0.00    +0.000 N 
ATOM     36  C   UNL     1      49.330   4.619  18.075  0.00  0.00    +0.000 A 
ATOM     37  O   UNL     1      49.513   4.151  16.956  0.00  0.00    +0.000 OA
ATOM     38  C   UNL     1      49.392   6.036  18.386  0.00  0.00    +0.000 A 
ATOM     39  H   UNL     1      48.982   2.820  18.955  0.00  0.00    +0.000 HD
ENDBRANCH  26  29
ENDBRANCH  24  25
ENDBRANCH   4  24
TORSDOF 10
ENDMDL
MODEL 7
REMARK VINA RESULT:    -6.584      2.885      8.358
REMARK INTER + INTRA:         -12.453
REMARK INTER:                 -10.321
REMARK INTRA:                  -2.132
REMARK UNBOUND:                -2.020
REMARK  Name = 
REMARK  10 active torsions:
REMARK  status: ('A' for Active; 'I' for Inactive)
REMARK    1  A    between atoms: C_2  and  C_4
REMARK    2  A    between atoms: C_4  and  C_5
REMARK    3  A    between atoms: C_5  and  C_6
REMARK    4  A    between atoms: C_6  and  N_7
REMARK    5  A    between atoms: C_6  and  C_29
REMARK    6  A    between atoms: N_7  and  C_8
REMARK    7  A    between atoms: C_8  and  C_9
REMARK    8  A    between atoms: C_12  and  C_13
REMARK    9  A    between atoms: C_13  and  N_14
REMARK   10  A    between atoms: C_15  and  C_17
REMARK                            x       y       z     vdW  Elec       q    Type
REMARK                         _______ _______ _______ _____ _____    ______ ____
ROOT
ATOM      1  C   UNL     1      49.583   8.104  15.476  0.00  0.00    +0.000 A 
ATOM      2  C   UNL     1      50.050   7.305  14.426  0.00  0.00    +0.000 A 
ATOM      3  C   UNL     1      49.360   7.258  13.210  0.00  0.00    +0.000 A 
ATOM      4  C   UNL     1      48.197   8.018  13.021  0.00  0.00    +0.000 A 
ATOM      5  C   UNL     1      47.705   8.779  14.087  0.00  0.00    +0.000 A 
ATOM      6  C   UNL     1      48.394   8.827  15.298  0.00  0.00    +0.000 A 
ENDROOT
BRANCH   1   7
ATOM      7  C   UNL     1      50.299   8.159  16.805  0.00  0.00    +0.000 C 
BRANCH   7   8
ATOM      8  N   UNL     1      50.990   6.900  17.126  0.00  0.00    +0.000 NA
ATOM      9  H   UNL     1      51.910   7.136  17.498  0.00  0.00    +0.000 HD
BRANCH   8  10
ATOM     10  C   UNL     1      50.260   6.095  18.155  0.00  0.00    +0.000 C 
BRANCH  10  11
ATOM     11  C   UNL     1      49.653   4.824  17.548  0.00  0.00    +0.000 A 
ATOM     12  C   UNL     1      48.389   4.890  16.949  0.00  0.00    +0.000 A 
ATOM     13  C   UNL     1      47.769   3.716  16.529  0.00  0.00    +0.000 A 
ATOM     14  C   UNL     1      48.434   2.508  16.681  0.00  0.00    +0.000 A 
ATOM     15  C   UNL     1      49.700   2.529  17.239  0.00  0.00    +0.000 A 
ATOM     16  N   UNL     1      50.316   3.649  17.682  0.00  0.00    +0.000 NA
ENDBRANCH  10  11
BRANCH  10  17
ATOM     17  C   UNL     1      49.291   7.023  18.929  0.00  0.00    +0.000 C 
BRANCH  17  18
ATOM     18  C   UNL     1      49.163   6.813  20.435  0.00  0.00    +0.000 C 
BRANCH  18  20
ATOM     19  N   UNL     1      47.098   5.530  20.405  0.00  0.00    +0.000 N 
ATOM     20  C   UNL     1      48.428   5.509  20.702  0.00  0.00    +0.000 C 
ATOM     21  O   UNL     1      48.947   4.486  21.131  0.00  0.00    +0.000 OA
ATOM     22  H   UNL     1      46.565   4.703  20.636  0.00  0.00    +0.000 HD
ATOM     23  H   UNL     1      46.604   6.385  20.187  0.00  0.00    +0.000 HD
ENDBRANCH  18  20
ENDBRANCH  17  18
ENDBRANCH  10  17
ENDBRANCH   8  10
ENDBRANCH   7   8
ENDBRANCH   1   7
BRANCH   4  24
ATOM     24  C   UNL     1      47.449   7.989  11.716  0.00  0.00    +0.000 C 
BRANCH  24  25
ATOM     25  N   UNL     1      46.781   6.726  11.535  0.00  0.00    +0.000 N 
ATOM     26  C   UNL     1      45.430   6.600  11.717  0.00  0.00    +0.000 C 
ATOM     27  O   UNL     1      44.717   7.558  12.002  0.00  0.00    +0.000 OA
ATOM     28  H   UNL     1      47.366   5.897  11.536  0.00  0.00    +0.000 HD
BRANCH  26  29
ATOM     29  C   UNL     1      44.866   5.266  11.485  0.00  0.00    +0.000 A 
ATOM     30  C   UNL     1      44.118   4.654  12.483  0.00  0.00    +0.000 A 
ATOM     31  S   UNL     1      43.490   3.134  12.032  0.00  0.00    +0.000 S 
ATOM     32  C   UNL     1      44.237   3.217  10.503  0.00  0.00    +0.000 A 
ATOM     33  N   UNL     1      44.113   2.202   9.608  0.00  0.00    +0.000 NA
ATOM     34  C   UNL     1      44.746   2.386   8.502  0.00  0.00    +0.000 A 
ATOM     35  N   UNL     1      45.491   3.498   8.201  0.00  0.00    +0.000 N 
ATOM     36  C   UNL     1      45.630   4.557   9.067  0.00  0.00    +0.000 A 
ATOM     37  O   UNL     1      46.278   5.552   8.756  0.00  0.00    +0.000 OA
ATOM     38  C   UNL     1      44.942   4.397  10.335  0.00  0.00    +0.000 A 
ATOM     39  H   UNL     1      45.964   3.583   7.315  0.00  0.00    +0.000 HD
ENDBRANCH  26  29
ENDBRANCH  24  25
ENDBRANCH   4  24
TORSDOF 10
ENDMDL
MODEL 8
REMARK VINA RESULT:    -6.554      2.937      8.563
REMARK INTER + INTRA:         -12.405
REMARK INTER:                 -10.222
REMARK INTRA:                  -2.184
REMARK UNBOUND:                -2.020
REMARK  Name = 
REMARK  10 active torsions:
REMARK  status: ('A' for Active; 'I' for Inactive)
REMARK    1  A    between atoms: C_2  and  C_4
REMARK    2  A    between atoms: C_4  and  C_5
REMARK    3  A    between atoms: C_5  and  C_6
REMARK    4  A    between atoms: C_6  and  N_7
REMARK    5  A    between atoms: C_6  and  C_29
REMARK    6  A    between atoms: N_7  and  C_8
REMARK    7  A    between atoms: C_8  and  C_9
REMARK    8  A    between atoms: C_12  and  C_13
REMARK    9  A    between atoms: C_13  and  N_14
REMARK   10  A    between atoms: C_15  and  C_17
REMARK                            x       y       z     vdW  Elec       q    Type
REMARK                         _______ _______ _______ _____ _____    ______ ____
ROOT
ATOM      1  C   UNL     1      49.813   8.237  15.651  0.00  0.00    +0.000 A 
ATOM      2  C   UNL     1      50.526   7.816  14.522  0.00  0.00    +0.000 A 
ATOM      3  C   UNL     1      49.889   7.711  13.281  0.00  0.00    +0.000 A 
ATOM      4  C   UNL     1      48.532   8.037  13.146  0.00  0.00    +0.000 A 
ATOM      5  C   UNL     1      47.810   8.413  14.284  0.00  0.00    +0.000 A 
ATOM      6  C   UNL     1      48.445   8.519  15.520  0.00  0.00    +0.000 A 
ENDROOT
BRANCH   1   7
ATOM      7  C   UNL     1      50.471   8.342  17.007  0.00  0.00    +0.000 C 
BRANCH   7   8
ATOM      8  N   UNL     1      49.973   7.332  17.955  0.00  0.00    +0.000 NA
ATOM      9  H   UNL     1      48.961   7.275  17.845  0.00  0.00    +0.000 HD
BRANCH   8  10
ATOM     10  C   UNL     1      50.550   5.975  17.697  0.00  0.00    +0.000 C 
BRANCH  10  11
ATOM     11  C   UNL     1      49.451   4.936  17.444  0.00  0.00    +0.000 A 
ATOM     12  C   UNL     1      48.110   5.306  17.609  0.00  0.00    +0.000 A 
ATOM     13  C   UNL     1      47.117   4.334  17.526  0.00  0.00    +0.000 A 
ATOM     14  C   UNL     1      47.475   3.023  17.245  0.00  0.00    +0.000 A 
ATOM     15  C   UNL     1      48.816   2.744  17.049  0.00  0.00    +0.000 A 
ATOM     16  N   UNL     1      49.805   3.661  17.152  0.00  0.00    +0.000 NA
ENDBRANCH  10  11
BRANCH  10  17
ATOM     17  C   UNL     1      51.574   5.641  18.810  0.00  0.00    +0.000 C 
BRANCH  17  18
ATOM     18  C   UNL     1      53.031   5.451  18.396  0.00  0.00    +0.000 C 
BRANCH  18  20
ATOM     19  N   UNL     1      52.375   3.159  18.874  0.00  0.00    +0.000 N 
ATOM     20  C   UNL     1      53.377   3.970  18.432  0.00  0.00    +0.000 C 
ATOM     21  O   UNL     1      54.449   3.491  18.084  0.00  0.00    +0.000 OA
ATOM     22  H   UNL     1      52.592   2.178  18.976  0.00  0.00    +0.000 HD
ATOM     23  H   UNL     1      51.532   3.520  19.302  0.00  0.00    +0.000 HD
ENDBRANCH  18  20
ENDBRANCH  17  18
ENDBRANCH  10  17
ENDBRANCH   8  10
ENDBRANCH   7   8
ENDBRANCH   1   7
BRANCH   4  24
ATOM     24  C   UNL     1      47.835   7.942  11.816  0.00  0.00    +0.000 C 
BRANCH  24  25
ATOM     25  N   UNL     1      47.088   6.715  11.714  0.00  0.00    +0.000 N 
ATOM     26  C   UNL     1      45.722   6.702  11.801  0.00  0.00    +0.000 C 
ATOM     27  O   UNL     1      45.065   7.732  11.927  0.00  0.00    +0.000 OA
ATOM     28  H   UNL     1      47.607   5.853  11.848  0.00  0.00    +0.000 HD
BRANCH  26  29
ATOM     29  C   UNL     1      45.075   5.392  11.664  0.00  0.00    +0.000 A 
ATOM     30  C   UNL     1      44.415   4.836  12.753  0.00  0.00    +0.000 A 
ATOM     31  S   UNL     1      43.673   3.339  12.410  0.00  0.00    +0.000 S 
ATOM     32  C   UNL     1      44.251   3.357  10.807  0.00  0.00    +0.000 A 
ATOM     33  N   UNL     1      43.984   2.332   9.956  0.00  0.00    +0.000 NA
ATOM     34  C   UNL     1      44.498   2.464   8.783  0.00  0.00    +0.000 A 
ATOM     35  N   UNL     1      45.255   3.534   8.375  0.00  0.00    +0.000 N 
ATOM     36  C   UNL     1      45.536   4.602   9.195  0.00  0.00    +0.000 A 
ATOM     37  O   UNL     1      46.190   5.558   8.791  0.00  0.00    +0.000 OA
ATOM     38  C   UNL     1      44.985   4.499  10.535  0.00  0.00    +0.000 A 
ATOM     39  H   UNL     1      45.631   3.579   7.441  0.00  0.00    +0.000 HD
ENDBRANCH  26  29
ENDBRANCH  24  25
ENDBRANCH   4  24
TORSDOF 10
ENDMDL
MODEL 9
REMARK VINA RESULT:    -6.488      3.313      9.099
REMARK INTER + INTRA:         -12.301
REMARK INTER:                 -10.130
REMARK INTRA:                  -2.171
REMARK UNBOUND:                -2.020
REMARK  Name = 
REMARK  10 active torsions:
REMARK  status: ('A' for Active; 'I' for Inactive)
REMARK    1  A    between atoms: C_2  and  C_4
REMARK    2  A    between atoms: C_4  and  C_5
REMARK    3  A    between atoms: C_5  and  C_6
REMARK    4  A    between atoms: C_6  and  N_7
REMARK    5  A    between atoms: C_6  and  C_29
REMARK    6  A    between atoms: N_7  and  C_8
REMARK    7  A    between atoms: C_8  and  C_9
REMARK    8  A    between atoms: C_12  and  C_13
REMARK    9  A    between atoms: C_13  and  N_14
REMARK   10  A    between atoms: C_15  and  C_17
REMARK                            x       y       z     vdW  Elec       q    Type
REMARK                         _______ _______ _______ _____ _____    ______ ____
ROOT
ATOM      1  C   UNL     1      49.550   8.252  15.747  0.00  0.00    +0.000 A 
ATOM      2  C   UNL     1      48.429   9.026  15.423  0.00  0.00    +0.000 A 
ATOM      3  C   UNL     1      47.841   8.926  14.157  0.00  0.00    +0.000 A 
ATOM      4  C   UNL     1      48.358   8.042  13.199  0.00  0.00    +0.000 A 
ATOM      5  C   UNL     1      49.506   7.304  13.508  0.00  0.00    +0.000 A 
ATOM      6  C   UNL     1      50.090   7.402  14.770  0.00  0.00    +0.000 A 
ENDROOT
BRANCH   1   7
ATOM      7  C   UNL     1      50.214   8.353  17.100  0.00  0.00    +0.000 C 
BRANCH   7   8
ATOM      8  N   UNL     1      49.907   7.202  17.966  0.00  0.00    +0.000 NA
ATOM      9  H   UNL     1      50.510   7.260  18.786  0.00  0.00    +0.000 HD
BRANCH   8  10
ATOM     10  C   UNL     1      48.484   7.202  18.429  0.00  0.00    +0.000 C 
BRANCH  10  11
ATOM     11  C   UNL     1      48.193   8.393  19.351  0.00  0.00    +0.000 A 
ATOM     12  C   UNL     1      47.151   9.270  19.026  0.00  0.00    +0.000 A 
ATOM     13  C   UNL     1      46.976  10.432  19.773  0.00  0.00    +0.000 A 
ATOM     14  C   UNL     1      47.818  10.678  20.848  0.00  0.00    +0.000 A 
ATOM     15  C   UNL     1      48.796   9.742  21.135  0.00  0.00    +0.000 A 
ATOM     16  N   UNL     1      49.008   8.619  20.411  0.00  0.00    +0.000 NA
ENDBRANCH  10  11
BRANCH  10  17
ATOM     17  C   UNL     1      48.131   5.798  18.981  0.00  0.00    +0.000 C 
BRANCH  17  18
ATOM     18  C   UNL     1      47.377   4.844  18.058  0.00  0.00    +0.000 C 
BRANCH  18  20
ATOM     19  N   UNL     1      47.436   5.137  15.645  0.00  0.00    +0.000 N 
ATOM     20  C   UNL     1      48.128   4.718  16.741  0.00  0.00    +0.000 C 
ATOM     21  O   UNL     1      49.273   4.298  16.623  0.00  0.00    +0.000 OA
ATOM     22  H   UNL     1      47.878   5.003  14.746  0.00  0.00    +0.000 HD
ATOM     23  H   UNL     1      46.449   5.354  15.676  0.00  0.00    +0.000 HD
ENDBRANCH  18  20
ENDBRANCH  17  18
ENDBRANCH  10  17
ENDBRANCH   8  10
ENDBRANCH   7   8
ENDBRANCH   1   7
BRANCH   4  24
ATOM     24  C   UNL     1      47.731   7.913  11.837  0.00  0.00    +0.000 C 
BRANCH  24  25
ATOM     25  N   UNL     1      47.008   6.673  11.721  0.00  0.00    +0.000 N 
ATOM     26  C   UNL     1      45.640   6.638  11.774  0.00  0.00    +0.000 C 
ATOM     27  O   UNL     1      44.964   7.656  11.883  0.00  0.00    +0.000 OA
ATOM     28  H   UNL     1      47.538   5.821  11.868  0.00  0.00    +0.000 HD
BRANCH  26  29
ATOM     29  C   UNL     1      45.020   5.316  11.625  0.00  0.00    +0.000 A 
ATOM     30  C   UNL     1      44.359   4.743  12.704  0.00  0.00    +0.000 A 
ATOM     31  S   UNL     1      43.649   3.234  12.347  0.00  0.00    +0.000 S 
ATOM     32  C   UNL     1      44.242   3.270  10.750  0.00  0.00    +0.000 A 
ATOM     33  N   UNL     1      44.002   2.245   9.892  0.00  0.00    +0.000 NA
ATOM     34  C   UNL     1      44.526   2.392   8.725  0.00  0.00    +0.000 A 
ATOM     35  N   UNL     1      45.267   3.477   8.330  0.00  0.00    +0.000 N 
ATOM     36  C   UNL     1      45.520   4.546   9.157  0.00  0.00    +0.000 A 
ATOM     37  O   UNL     1      46.161   5.516   8.765  0.00  0.00    +0.000 OA
ATOM     38  C   UNL     1      44.958   4.427  10.491  0.00  0.00    +0.000 A 
ATOM     39  H   UNL     1      45.652   3.534   7.400  0.00  0.00    +0.000 HD
ENDBRANCH  26  29
ENDBRANCH  24  25
ENDBRANCH   4  24
TORSDOF 10
ENDMDL
