MODEL 1
REMARK VINA RESULT:    -8.084      0.000      0.000
REMARK INTER + INTRA:         -10.994
REMARK INTER:                 -10.447
REMARK INTRA:                  -0.547
REMARK UNBOUND:                -0.547
REMARK  Name = 
REMARK  6 active torsions:
REMARK  status: ('A' for Active; 'I' for Inactive)
REMARK    1  A    between atoms: C_1  and  O_2
REMARK    2  A    between atoms: O_2  and  C_3
REMARK    3  A    between atoms: C_6  and  C_7
REMARK    4  A    between atoms: C_7  and  O_8
REMARK    5  A    between atoms: O_8  and  C_9
REMARK    6  A    between atoms: C_12  and  C_13
REMARK                            x       y       z     vdW  Elec       q    Type
REMARK                         _______ _______ _______ _____ _____    ______ ____
ROOT
ATOM      1  C   UNL     1      44.443   3.379   9.499  0.00  0.00    +0.000 A 
ATOM      2  C   UNL     1      45.107   4.359   8.764  0.00  0.00    +0.000 A 
ATOM      3  C   UNL     1      46.092   3.992   7.839  0.00  0.00    +0.000 A 
ATOM      4  C   UNL     1      46.431   2.645   7.654  0.00  0.00    +0.000 A 
ATOM      5  C   UNL     1      45.768   1.662   8.393  0.00  0.00    +0.000 A 
ATOM      6  C   UNL     1      44.777   2.033   9.308  0.00  0.00    +0.000 A 
ENDROOT
BRANCH   4   7
ATOM      7  C   UNL     1      47.466   2.315   6.638  0.00  0.00    +0.000 C 
ATOM      8  N   UNL     1      47.437   3.001   5.457  0.00  0.00    +0.000 N 
ATOM      9  O   UNL     1      48.302   1.443   6.837  0.00  0.00    +0.000 OA
ATOM     10  H   UNL     1      46.668   3.590   5.172  0.00  0.00    +0.000 HD
ATOM     11  H   UNL     1      48.095   2.703   4.748  0.00  0.00    +0.000 HD
ENDBRANCH   4   7
BRANCH   1  12
ATOM     12  O   UNL     1      43.451   3.591  10.411  0.00  0.00    +0.000 OA
BRANCH  12  13
ATOM     13  C   UNL     1      43.643   3.072  11.732  0.00  0.00    +0.000 C 
BRANCH  13  17
ATOM     14  C   UNL     1      46.857   5.089  13.722  0.00  0.00    +0.000 A 
ATOM     15  C   UNL     1      45.785   5.834  13.243  0.00  0.00    +0.000 A 
ATOM     16  C   UNL     1      44.733   5.188  12.593  0.00  0.00    +0.000 A 
ATOM     17  C   UNL     1      44.776   3.807  12.417  0.00  0.00    +0.000 A 
ATOM     18  N   UNL     1      45.804   3.056  12.894  0.00  0.00    +0.000 NA
ATOM     19  C   UNL     1      46.814   3.714  13.526  0.00  0.00    +0.000 A 
BRANCH  14  21
ATOM     20  C   UNL     1      48.262   6.950  14.137  0.00  0.00    +0.000 C 
ATOM     21  O   UNL     1      47.953   5.581  14.372  0.00  0.00    +0.000 OA
ENDBRANCH  14  21
ENDBRANCH  13  17
ENDBRANCH  12  13
ENDBRANCH   1  12
TORSDOF 5
ENDMDL
MODEL 2
REMARK VINA RESULT:    -7.615      1.047      1.273
REMARK INTER + INTRA:         -10.388
REMARK INTER:                  -9.982
REMARK INTRA:                  -0.406
REMARK UNBOUND:                -0.547
REMARK  Name = 
REMARK  6 active torsions:
REMARK  status: ('A' for Active; 'I' for Inactive)
REMARK    1  A    between atoms: C_1  and  O_2
REMARK    2  A    between atoms: O_2  and  C_3
REMARK    3  A    between atoms: C_6  and  C_7
REMARK    4  A    between atoms: C_7  and  O_8
REMARK    5  A    between atoms: O_8  and  C_9
REMARK    6  A    between atoms: C_12  and  C_13
REMARK                            x       y       z     vdW  Elec       q    Type
REMARK                         _______ _______ _______ _____ _____    ______ ____
ROOT
ATOM      1  C   UNL     1      44.539   3.362   9.368  0.00  0.00    +0.000 A 
ATOM      2  C   UNL     1      45.062   4.309   8.489  0.00  0.00    +0.000 A 
ATOM      3  C   UNL     1      46.019   3.928   7.541  0.00  0.00    +0.000 A 
ATOM      4  C   UNL     1      46.470   2.604   7.474  0.00  0.00    +0.000 A 
ATOM      5  C   UNL     1      45.948   1.655   8.357  0.00  0.00    +0.000 A 
ATOM      6  C   UNL     1      44.984   2.038   9.296  0.00  0.00    +0.000 A 
ENDROOT
BRANCH   4   7
ATOM      7  C   UNL     1      47.468   2.254   6.429  0.00  0.00    +0.000 C 
ATOM      8  N   UNL     1      47.430   2.954   5.257  0.00  0.00    +0.000 N 
ATOM      9  O   UNL     1      48.281   1.353   6.596  0.00  0.00    +0.000 OA
ATOM     10  H   UNL     1      46.673   3.570   4.998  0.00  0.00    +0.000 HD
ATOM     11  H   UNL     1      48.060   2.645   4.527  0.00  0.00    +0.000 HD
ENDBRANCH   4   7
BRANCH   1  12
ATOM     12  O   UNL     1      43.588   3.588  10.320  0.00  0.00    +0.000 OA
BRANCH  12  13
ATOM     13  C   UNL     1      43.557   4.882  10.933  0.00  0.00    +0.000 C 
BRANCH  13  17
ATOM     14  C   UNL     1      47.098   5.475  13.271  0.00  0.00    +0.000 A 
ATOM     15  C   UNL     1      46.265   4.402  13.565  0.00  0.00    +0.000 A 
ATOM     16  C   UNL     1      45.110   4.199  12.811  0.00  0.00    +0.000 A 
ATOM     17  C   UNL     1      44.794   5.083  11.782  0.00  0.00    +0.000 A 
ATOM     18  N   UNL     1      45.603   6.128  11.464  0.00  0.00    +0.000 NA
ATOM     19  C   UNL     1      46.724   6.299  12.215  0.00  0.00    +0.000 A 
BRANCH  14  21
ATOM     20  C   UNL     1      48.358   7.139  14.390  0.00  0.00    +0.000 C 
ATOM     21  O   UNL     1      48.255   5.800  13.920  0.00  0.00    +0.000 OA
ENDBRANCH  14  21
ENDBRANCH  13  17
ENDBRANCH  12  13
ENDBRANCH   1  12
TORSDOF 5
ENDMDL
MODEL 3
REMARK VINA RESULT:    -6.858      1.577      6.586
REMARK INTER + INTRA:          -9.409
REMARK INTER:                  -8.974
REMARK INTRA:                  -0.435
REMARK UNBOUND:                -0.547
REMARK  Name = 
REMARK  6 active torsions:
REMARK  status: ('A' for Active; 'I' for Inactive)
REMARK    1  A    between atoms: C_1  and  O_2
REMARK    2  A    between atoms: O_2  and  C_3
REMARK    3  A    between atoms: C_6  and  C_7
REMARK    4  A    between atoms: C_7  and  O_8
REMARK    5  A    between atoms: O_8  and  C_9
REMARK    6  A    between atoms: C_12  and  C_13
REMARK                            x       y       z     vdW  Elec       q    Type
REMARK                         _______ _______ _______ _____ _____    ______ ____
ROOT
ATOM      1  C   UNL     1      45.503   5.403  11.549  0.00  0.00    +0.000 A 
ATOM      2  C   UNL     1      46.525   6.232  12.007  0.00  0.00    +0.000 A 
ATOM      3  C   UNL     1      47.141   5.969  13.237  0.00  0.00    +0.000 A 
ATOM      4  C   UNL     1      46.729   4.884  14.023  0.00  0.00    +0.000 A 
ATOM      5  C   UNL     1      45.702   4.055  13.565  0.00  0.00    +0.000 A 
ATOM      6  C   UNL     1      45.098   4.316  12.331  0.00  0.00    +0.000 A 
ENDROOT
BRANCH   4   7
ATOM      7  C   UNL     1      47.439   4.639  15.306  0.00  0.00    +0.000 C 
ATOM      8  N   UNL     1      46.904   3.716  16.160  0.00  0.00    +0.000 N 
ATOM      9  O   UNL     1      48.453   5.257  15.605  0.00  0.00    +0.000 OA
ATOM     10  H   UNL     1      45.983   3.319  16.048  0.00  0.00    +0.000 HD
ATOM     11  H   UNL     1      47.353   3.625  17.063  0.00  0.00    +0.000 HD
ENDBRANCH   4   7
BRANCH   1  12
ATOM     12  O   UNL     1      44.836   5.528  10.365  0.00  0.00    +0.000 OA
BRANCH  12  13
ATOM     13  C   UNL     1      44.172   4.367   9.854  0.00  0.00    +0.000 C 
BRANCH  13  17
ATOM     14  C   UNL     1      46.819   2.185   7.287  0.00  0.00    +0.000 A 
ATOM     15  C   UNL     1      46.090   1.496   8.249  0.00  0.00    +0.000 A 
ATOM     16  C   UNL     1      45.225   2.195   9.090  0.00  0.00    +0.000 A 
ATOM     17  C   UNL     1      45.114   3.579   8.969  0.00  0.00    +0.000 A 
ATOM     18  N   UNL     1      45.802   4.271   8.022  0.00  0.00    +0.000 NA
ATOM     19  C   UNL     1      46.635   3.561   7.214  0.00  0.00    +0.000 A 
BRANCH  14  21
ATOM     20  C   UNL     1      47.871   2.337   5.170  0.00  0.00    +0.000 C 
ATOM     21  O   UNL     1      47.701   1.638   6.399  0.00  0.00    +0.000 OA
ENDBRANCH  14  21
ENDBRANCH  13  17
ENDBRANCH  12  13
ENDBRANCH   1  12
TORSDOF 5
ENDMDL
MODEL 4
REMARK VINA RESULT:    -5.786      3.817      5.801
REMARK INTER + INTRA:          -8.024
REMARK INTER:                  -7.621
REMARK INTRA:                  -0.403
REMARK UNBOUND:                -0.547
REMARK  Name = 
REMARK  6 active torsions:
REMARK  status: ('A' for Active; 'I' for Inactive)
REMARK    1  A    between atoms: C_1  and  O_2
REMARK    2  A    between atoms: O_2  and  C_3
REMARK    3  A    between atoms: C_6  and  C_7
REMARK    4  A    between atoms: C_7  and  O_8
REMARK    5  A    between atoms: O_8  and  C_9
REMARK    6  A    between atoms: C_12  and  C_13
REMARK                            x       y       z     vdW  Elec       q    Type
REMARK                         _______ _______ _______ _____ _____    ______ ____
ROOT
ATOM      1  C   UNL     1      46.887   5.016  13.702  0.00  0.00    +0.000 A 
ATOM      2  C   UNL     1      46.345   5.988  12.863  0.00  0.00    +0.000 A 
ATOM      3  C   UNL     1      45.440   5.619  11.859  0.00  0.00    +0.000 A 
ATOM      4  C   UNL     1      45.083   4.276  11.679  0.00  0.00    +0.000 A 
ATOM      5  C   UNL     1      45.630   3.301  12.518  0.00  0.00    +0.000 A 
ATOM      6  C   UNL     1      46.525   3.676  13.526  0.00  0.00    +0.000 A 
ENDROOT
BRANCH   4   7
ATOM      7  C   UNL     1      44.098   3.949  10.615  0.00  0.00    +0.000 C 
ATOM      8  N   UNL     1      43.973   4.826   9.575  0.00  0.00    +0.000 N 
ATOM      9  O   UNL     1      43.401   2.944  10.676  0.00  0.00    +0.000 OA
ATOM     10  H   UNL     1      44.383   5.748   9.570  0.00  0.00    +0.000 HD
ATOM     11  H   UNL     1      43.239   4.629   8.907  0.00  0.00    +0.000 HD
ENDBRANCH   4   7
BRANCH   1  12
ATOM     12  O   UNL     1      47.756   5.236  14.731  0.00  0.00    +0.000 OA
BRANCH  12  13
ATOM     13  C   UNL     1      47.455   4.631  15.994  0.00  0.00    +0.000 C 
BRANCH  13  17
ATOM     14  C   UNL     1      50.998   2.793  17.550  0.00  0.00    +0.000 A 
ATOM     15  C   UNL     1      49.940   1.987  17.145  0.00  0.00    +0.000 A 
ATOM     16  C   UNL     1      48.782   2.574  16.637  0.00  0.00    +0.000 A 
ATOM     17  C   UNL     1      48.690   3.962  16.556  0.00  0.00    +0.000 A 
ATOM     18  N   UNL     1      49.720   4.769  16.928  0.00  0.00    +0.000 NA
ATOM     19  C   UNL     1      50.837   4.168  17.417  0.00  0.00    +0.000 A 
BRANCH  14  21
ATOM     20  C   UNL     1      52.596   1.051  17.694  0.00  0.00    +0.000 C 
ATOM     21  O   UNL     1      52.187   2.363  18.066  0.00  0.00    +0.000 OA
ENDBRANCH  14  21
ENDBRANCH  13  17
ENDBRANCH  12  13
ENDBRANCH   1  12
TORSDOF 5
ENDMDL
MODEL 5
REMARK VINA RESULT:    -5.666      4.108      6.330
REMARK INTER + INTRA:          -7.869
REMARK INTER:                  -7.530
REMARK INTRA:                  -0.339
REMARK UNBOUND:                -0.547
REMARK  Name = 
REMARK  6 active torsions:
REMARK  status: ('A' for Active; 'I' for Inactive)
REMARK    1  A    between atoms: C_1  and  O_2
REMARK    2  A    between atoms: O_2  and  C_3
REMARK    3  A    between atoms: C_6  and  C_7
REMARK    4  A    between atoms: C_7  and  O_8
REMARK    5  A    between atoms: O_8  and  C_9
REMARK    6  A    between atoms: C_12  and  C_13
REMARK                            x       y       z     vdW  Elec       q    Type
REMARK                         _______ _______ _______ _____ _____    ______ ____
ROOT
ATOM      1  C   UNL     1      46.652   3.742  13.773  0.00  0.00    +0.000 A 
ATOM      2  C   UNL     1      45.861   3.133  12.802  0.00  0.00    +0.000 A 
ATOM      3  C   UNL     1      44.967   3.901  12.045  0.00  0.00    +0.000 A 
ATOM      4  C   UNL     1      44.850   5.280  12.263  0.00  0.00    +0.000 A 
ATOM      5  C   UNL     1      45.642   5.891  13.239  0.00  0.00    +0.000 A 
ATOM      6  C   UNL     1      46.540   5.121  13.985  0.00  0.00    +0.000 A 
ENDROOT
BRANCH   4   7
ATOM      7  C   UNL     1      43.905   6.047  11.410  0.00  0.00    +0.000 C 
ATOM      8  N   UNL     1      44.344   7.228  10.880  0.00  0.00    +0.000 N 
ATOM      9  O   UNL     1      42.763   5.654  11.205  0.00  0.00    +0.000 OA
ATOM     10  H   UNL     1      45.198   7.684  11.163  0.00  0.00    +0.000 HD
ATOM     11  H   UNL     1      43.659   7.775  10.373  0.00  0.00    +0.000 HD
ENDBRANCH   4   7
BRANCH   1  12
ATOM     12  O   UNL     1      47.578   3.123  14.562  0.00  0.00    +0.000 OA
BRANCH  12  13
ATOM     13  C   UNL     1      47.546   3.404  15.966  0.00  0.00    +0.000 C 
BRANCH  13  17
ATOM     14  C   UNL     1      51.369   2.575  17.713  0.00  0.00    +0.000 A 
ATOM     15  C   UNL     1      50.775   3.811  17.941  0.00  0.00    +0.000 A 
ATOM     16  C   UNL     1      49.531   4.092  17.378  0.00  0.00    +0.000 A 
ATOM     17  C   UNL     1      48.904   3.138  16.579  0.00  0.00    +0.000 A 
ATOM     18  N   UNL     1      49.457   1.916  16.358  0.00  0.00    +0.000 NA
ATOM     19  C   UNL     1      50.669   1.669  16.923  0.00  0.00    +0.000 A 
BRANCH  14  21
ATOM     20  C   UNL     1      53.059   0.916  17.699  0.00  0.00    +0.000 C 
ATOM     21  O   UNL     1      52.578   2.161  18.194  0.00  0.00    +0.000 OA
ENDBRANCH  14  21
ENDBRANCH  13  17
ENDBRANCH  12  13
ENDBRANCH   1  12
TORSDOF 5
ENDMDL
MODEL 6
REMARK VINA RESULT:    -5.619      3.901      8.587
REMARK INTER + INTRA:          -7.809
REMARK INTER:                  -7.494
REMARK INTRA:                  -0.315
REMARK UNBOUND:                -0.547
REMARK  Name = 
REMARK  6 active torsions:
REMARK  status: ('A' for Active; 'I' for Inactive)
REMARK    1  A    between atoms: C_1  and  O_2
REMARK    2  A    between atoms: O_2  and  C_3
REMARK    3  A    between atoms: C_6  and  C_7
REMARK    4  A    between atoms: C_7  and  O_8
REMARK    5  A    between atoms: O_8  and  C_9
REMARK    6  A    between atoms: C_12  and  C_13
REMARK                            x       y       z     vdW  Elec       q    Type
REMARK                         _______ _______ _______ _____ _____    ______ ____
ROOT
ATOM      1  C   UNL     1      47.620   3.918  16.265  0.00  0.00    +0.000 A 
ATOM      2  C   UNL     1      47.707   2.894  17.206  0.00  0.00    +0.000 A 
ATOM      3  C   UNL     1      48.259   3.150  18.468  0.00  0.00    +0.000 A 
ATOM      4  C   UNL     1      48.738   4.426  18.791  0.00  0.00    +0.000 A 
ATOM      5  C   UNL     1      48.654   5.452  17.846  0.00  0.00    +0.000 A 
ATOM      6  C   UNL     1      48.093   5.193  16.591  0.00  0.00    +0.000 A 
ENDROOT
BRANCH   4   7
ATOM      7  C   UNL     1      49.287   4.644  20.156  0.00  0.00    +0.000 C 
ATOM      8  N   UNL     1      50.627   4.449  20.339  0.00  0.00    +0.000 N 
ATOM      9  O   UNL     1      48.566   4.963  21.092  0.00  0.00    +0.000 OA
ATOM     10  H   UNL     1      51.226   4.012  19.655  0.00  0.00    +0.000 HD
ATOM     11  H   UNL     1      50.965   4.519  21.290  0.00  0.00    +0.000 HD
ENDBRANCH   4   7
BRANCH   1  12
ATOM     12  O   UNL     1      47.087   3.816  15.012  0.00  0.00    +0.000 OA
BRANCH  12  13
ATOM     13  C   UNL     1      46.819   5.032  14.305  0.00  0.00    +0.000 C 
BRANCH  13  17
ATOM     14  C   UNL     1      44.801   4.101  10.643  0.00  0.00    +0.000 A 
ATOM     15  C   UNL     1      45.366   5.361  10.802  0.00  0.00    +0.000 A 
ATOM     16  C   UNL     1      46.025   5.675  11.989  0.00  0.00    +0.000 A 
ATOM     17  C   UNL     1      46.096   4.730  13.010  0.00  0.00    +0.000 A 
ATOM     18  N   UNL     1      45.568   3.485  12.869  0.00  0.00    +0.000 NA
ATOM     19  C   UNL     1      44.934   3.206  11.699  0.00  0.00    +0.000 A 
BRANCH  14  21
ATOM     20  C   UNL     1      44.888   3.526   8.347  0.00  0.00    +0.000 C 
ATOM     21  O   UNL     1      44.126   3.653   9.543  0.00  0.00    +0.000 OA
ENDBRANCH  14  21
ENDBRANCH  13  17
ENDBRANCH  12  13
ENDBRANCH   1  12
TORSDOF 5
ENDMDL
MODEL 7
REMARK VINA RESULT:    -5.473      3.003      4.395
REMARK INTER + INTRA:          -7.620
REMARK INTER:                  -7.307
REMARK INTRA:                  -0.314
REMARK UNBOUND:                -0.547
REMARK  Name = 
REMARK  6 active torsions:
REMARK  status: ('A' for Active; 'I' for Inactive)
REMARK    1  A    between atoms: C_1  and  O_2
REMARK    2  A    between atoms: O_2  and  C_3
REMARK    3  A    between atoms: C_6  and  C_7
REMARK    4  A    between atoms: C_7  and  O_8
REMARK    5  A    between atoms: O_8  and  C_9
REMARK    6  A    between atoms: C_12  and  C_13
REMARK                            x       y       z     vdW  Elec       q    Type
REMARK                         _______ _______ _______ _____ _____    ______ ____
ROOT
ATOM      1  C   UNL     1      45.740   5.194  12.467  0.00  0.00    +0.000 A 
ATOM      2  C   UNL     1      45.319   3.871  12.588  0.00  0.00    +0.000 A 
ATOM      3  C   UNL     1      44.938   3.152  11.448  0.00  0.00    +0.000 A 
ATOM      4  C   UNL     1      44.963   3.755  10.184  0.00  0.00    +0.000 A 
ATOM      5  C   UNL     1      45.383   5.082  10.063  0.00  0.00    +0.000 A 
ATOM      6  C   UNL     1      45.772   5.792  11.203  0.00  0.00    +0.000 A 
ENDROOT
BRANCH   4   7
ATOM      7  C   UNL     1      44.573   2.932   9.007  0.00  0.00    +0.000 C 
ATOM      8  N   UNL     1      44.289   3.587   7.843  0.00  0.00    +0.000 N 
ATOM      9  O   UNL     1      44.483   1.713   9.081  0.00  0.00    +0.000 OA
ATOM     10  H   UNL     1      44.169   4.587   7.778  0.00  0.00    +0.000 HD
ATOM     11  H   UNL     1      43.945   3.017   7.080  0.00  0.00    +0.000 HD
ENDBRANCH   4   7
BRANCH   1  12
ATOM     12  O   UNL     1      46.161   6.001  13.485  0.00  0.00    +0.000 OA
BRANCH  12  13
ATOM     13  C   UNL     1      47.568   6.060  13.745  0.00  0.00    +0.000 C 
BRANCH  13  17
ATOM     14  C   UNL     1      48.507   4.320  17.546  0.00  0.00    +0.000 A 
ATOM     15  C   UNL     1      47.475   3.776  16.790  0.00  0.00    +0.000 A 
ATOM     16  C   UNL     1      47.160   4.334  15.551  0.00  0.00    +0.000 A 
ATOM     17  C   UNL     1      47.872   5.441  15.093  0.00  0.00    +0.000 A 
ATOM     18  N   UNL     1      48.897   5.977  15.806  0.00  0.00    +0.000 NA
ATOM     19  C   UNL     1      49.183   5.410  17.009  0.00  0.00    +0.000 A 
BRANCH  14  21
ATOM     20  C   UNL     1      49.265   4.893  19.716  0.00  0.00    +0.000 C 
ATOM     21  O   UNL     1      48.925   3.884  18.771  0.00  0.00    +0.000 OA
ENDBRANCH  14  21
ENDBRANCH  13  17
ENDBRANCH  12  13
ENDBRANCH   1  12
TORSDOF 5
ENDMDL
MODEL 8
REMARK VINA RESULT:    -5.441      2.593      7.232
REMARK INTER + INTRA:          -7.579
REMARK INTER:                  -7.219
REMARK INTRA:                  -0.360
REMARK UNBOUND:                -0.547
REMARK  Name = 
REMARK  6 active torsions:
REMARK  status: ('A' for Active; 'I' for Inactive)
REMARK    1  A    between atoms: C_1  and  O_2
REMARK    2  A    between atoms: O_2  and  C_3
REMARK    3  A    between atoms: C_6  and  C_7
REMARK    4  A    between atoms: C_7  and  O_8
REMARK    5  A    between atoms: O_8  and  C_9
REMARK    6  A    between atoms: C_12  and  C_13
REMARK                            x       y       z     vdW  Elec       q    Type
REMARK                         _______ _______ _______ _____ _____    ______ ____
ROOT
ATOM      1  C   UNL     1      46.775   4.629  14.378  0.00  0.00    +0.000 A 
ATOM      2  C   UNL     1      47.208   4.276  15.655  0.00  0.00    +0.000 A 
ATOM      3  C   UNL     1      48.160   5.063  16.313  0.00  0.00    +0.000 A 
ATOM      4  C   UNL     1      48.696   6.200  15.694  0.00  0.00    +0.000 A 
ATOM      5  C   UNL     1      48.265   6.553  14.413  0.00  0.00    +0.000 A 
ATOM      6  C   UNL     1      47.306   5.769  13.764  0.00  0.00    +0.000 A 
ENDROOT
BRANCH   4   7
ATOM      7  C   UNL     1      49.684   7.012  16.454  0.00  0.00    +0.000 C 
ATOM      8  N   UNL     1      49.205   8.029  17.231  0.00  0.00    +0.000 N 
ATOM      9  O   UNL     1      50.887   6.799  16.370  0.00  0.00    +0.000 OA
ATOM     10  H   UNL     1      48.254   8.361  17.192  0.00  0.00    +0.000 HD
ATOM     11  H   UNL     1      49.898   8.621  17.672  0.00  0.00    +0.000 HD
ENDBRANCH   4   7
BRANCH   1  12
ATOM     12  O   UNL     1      45.839   3.970  13.634  0.00  0.00    +0.000 OA
BRANCH  12  13
ATOM     13  C   UNL     1      44.890   4.762  12.912  0.00  0.00    +0.000 C 
BRANCH  13  17
ATOM     14  C   UNL     1      45.208   3.866   8.734  0.00  0.00    +0.000 A 
ATOM     15  C   UNL     1      45.599   5.120   9.188  0.00  0.00    +0.000 A 
ATOM     16  C   UNL     1      45.500   5.424  10.545  0.00  0.00    +0.000 A 
ATOM     17  C   UNL     1      44.995   4.472  11.429  0.00  0.00    +0.000 A 
ATOM     18  N   UNL     1      44.626   3.232  11.011  0.00  0.00    +0.000 NA
ATOM     19  C   UNL     1      44.737   2.965   9.682  0.00  0.00    +0.000 A 
BRANCH  14  21
ATOM     20  C   UNL     1      46.534   3.368   6.835  0.00  0.00    +0.000 C 
ATOM     21  O   UNL     1      45.247   3.429   7.441  0.00  0.00    +0.000 OA
ENDBRANCH  14  21
ENDBRANCH  13  17
ENDBRANCH  12  13
ENDBRANCH   1  12
TORSDOF 5
ENDMDL
MODEL 9
REMARK VINA RESULT:    -5.271      3.868      5.664
REMARK INTER + INTRA:          -7.358
REMARK INTER:                  -7.059
REMARK INTRA:                  -0.299
REMARK UNBOUND:                -0.547
REMARK  Name = 
REMARK  6 active torsions:
REMARK  status: ('A' for Active; 'I' for Inactive)
REMARK    1  A    between atoms: C_1  and  O_2
REMARK    2  A    between atoms: O_2  and  C_3
REMARK    3  A    between atoms: C_6  and  C_7
REMARK    4  A    between atoms: C_7  and  O_8
REMARK    5  A    between atoms: O_8  and  C_9
REMARK    6  A    between atoms: C_12  and  C_13
REMARK                            x       y       z     vdW  Elec       q    Type
REMARK                         _______ _______ _______ _____ _____    ______ ____
ROOT
ATOM      1  C   UNL     1      46.893   5.084  13.596  0.00  0.00    +0.000 A 
ATOM      2  C   UNL     1      46.762   6.158  12.718  0.00  0.00    +0.000 A 
ATOM      3  C   UNL     1      45.908   6.056  11.612  0.00  0.00    +0.000 A 
ATOM      4  C   UNL     1      45.193   4.876  11.369  0.00  0.00    +0.000 A 
ATOM      5  C   UNL     1      45.328   3.798  12.248  0.00  0.00    +0.000 A 
ATOM      6  C   UNL     1      46.174   3.909  13.357  0.00  0.00    +0.000 A 
ENDROOT
BRANCH   4   7
ATOM      7  C   UNL     1      44.282   4.837  10.195  0.00  0.00    +0.000 C 
ATOM      8  N   UNL     1      44.839   4.612   8.968  0.00  0.00    +0.000 N 
ATOM      9  O   UNL     1      43.078   5.024  10.313  0.00  0.00    +0.000 OA
ATOM     10  H   UNL     1      45.833   4.636   8.792  0.00  0.00    +0.000 HD
ATOM     11  H   UNL     1      44.215   4.673   8.173  0.00  0.00    +0.000 HD
ENDBRANCH   4   7
BRANCH   1  12
ATOM     12  O   UNL     1      47.666   5.055  14.721  0.00  0.00    +0.000 OA
BRANCH  12  13
ATOM     13  C   UNL     1      47.404   4.021  15.677  0.00  0.00    +0.000 C 
BRANCH  13  17
ATOM     14  C   UNL     1      49.577   4.740  19.300  0.00  0.00    +0.000 A 
ATOM     15  C   UNL     1      48.255   5.158  19.210  0.00  0.00    +0.000 A 
ATOM     16  C   UNL     1      47.537   4.930  18.036  0.00  0.00    +0.000 A 
ATOM     17  C   UNL     1      48.159   4.300  16.960  0.00  0.00    +0.000 A 
ATOM     18  N   UNL     1      49.445   3.865  17.032  0.00  0.00    +0.000 NA
ATOM     19  C   UNL     1      50.118   4.099  18.190  0.00  0.00    +0.000 A 
BRANCH  14  21
ATOM     20  C   UNL     1      51.798   4.831  20.117  0.00  0.00    +0.000 C 
ATOM     21  O   UNL     1      50.400   4.895  20.378  0.00  0.00    +0.000 OA
ENDBRANCH  14  21
ENDBRANCH  13  17
ENDBRANCH  12  13
ENDBRANCH   1  12
TORSDOF 5
ENDMDL
