MODEL 1
REMARK VINA RESULT:    -7.929      0.000      0.000
REMARK INTER + INTRA:         -11.009
REMARK INTER:                 -10.247
REMARK INTRA:                  -0.762
REMARK UNBOUND:                -0.762
REMARK  Name = 
REMARK  6 active torsions:
REMARK  status: ('A' for Active; 'I' for Inactive)
REMARK    1  A    between atoms: C_1  and  C_2
REMARK    2  A    between atoms: C_2  and  C_3
REMARK    3  A    between atoms: C_2  and  C_14
REMARK    4  A    between atoms: C_3  and  N_4
REMARK    5  A    between atoms: N_4  and  C_5
REMARK    6  A    between atoms: C_8  and  C_9
REMARK                            x       y       z     vdW  Elec       q    Type
REMARK                         _______ _______ _______ _____ _____    ______ ____
ROOT
ATOM      1  N   UNL     1      43.756   3.483  10.426  0.00  0.00    +0.000 N 
ATOM      2  H   UNL     1      42.798   3.262  10.167  0.00  0.00    +0.000 HD
ENDROOT
BRANCH   1   3
ATOM      3  C   UNL     1      44.666   3.162   9.411  0.00  0.00    +0.000 A 
ATOM      4  C   UNL     1      45.144   1.867   9.175  0.00  0.00    +0.000 A 
ATOM      5  C   UNL     1      46.102   1.612   8.186  0.00  0.00    +0.000 A 
ATOM      6  C   UNL     1      46.627   2.657   7.425  0.00  0.00    +0.000 A 
ATOM      7  C   UNL     1      46.200   3.963   7.677  0.00  0.00    +0.000 A 
ATOM      8  C   UNL     1      45.231   4.206   8.663  0.00  0.00    +0.000 A 
BRANCH   6   9
ATOM      9  C   UNL     1      47.653   2.329   6.398  0.00  0.00    +0.000 C 
ATOM     10  N   UNL     1      47.709   3.128   5.288  0.00  0.00    +0.000 N 
ATOM     11  O   UNL     1      48.393   1.361   6.510  0.00  0.00    +0.000 OA
ATOM     12  H   UNL     1      46.975   3.772   5.041  0.00  0.00    +0.000 HD
ATOM     13  H   UNL     1      48.336   2.822   4.553  0.00  0.00    +0.000 HD
ENDBRANCH   6   9
ENDBRANCH   1   3
BRANCH   1  14
ATOM     14  C   UNL     1      44.079   3.152  11.804  0.00  0.00    +0.000 C 
BRANCH  14  16
ATOM     15  C   UNL     1      42.882   5.221  12.799  0.00  0.00    +0.000 C 
ATOM     16  C   UNL     1      44.128   4.400  12.644  0.00  0.00    +0.000 C 
BRANCH  16  17
ATOM     17  C   UNL     1      45.438   5.079  12.730  0.00  0.00    +0.000 A 
ATOM     18  C   UNL     1      45.828   5.998  11.747  0.00  0.00    +0.000 A 
ATOM     19  C   UNL     1      47.039   6.688  11.855  0.00  0.00    +0.000 A 
ATOM     20  C   UNL     1      47.874   6.467  12.948  0.00  0.00    +0.000 A 
ATOM     21  C   UNL     1      47.504   5.548  13.927  0.00  0.00    +0.000 A 
ATOM     22  C   UNL     1      46.298   4.855  13.816  0.00  0.00    +0.000 A 
ENDBRANCH  16  17
ENDBRANCH  14  16
ENDBRANCH   1  14
TORSDOF 5
ENDMDL
MODEL 2
REMARK VINA RESULT:    -7.886      1.319      1.831
REMARK INTER + INTRA:         -10.953
REMARK INTER:                 -10.103
REMARK INTRA:                  -0.850
REMARK UNBOUND:                -0.762
REMARK  Name = 
REMARK  6 active torsions:
REMARK  status: ('A' for Active; 'I' for Inactive)
REMARK    1  A    between atoms: C_1  and  C_2
REMARK    2  A    between atoms: C_2  and  C_3
REMARK    3  A    between atoms: C_2  and  C_14
REMARK    4  A    between atoms: C_3  and  N_4
REMARK    5  A    between atoms: N_4  and  C_5
REMARK    6  A    between atoms: C_8  and  C_9
REMARK                            x       y       z     vdW  Elec       q    Type
REMARK                         _______ _______ _______ _____ _____    ______ ____
ROOT
ATOM      1  N   UNL     1      43.809   4.931   9.880  0.00  0.00    +0.000 N 
ATOM      2  H   UNL     1      42.883   5.008   9.468  0.00  0.00    +0.000 HD
ENDROOT
BRANCH   1   3
ATOM      3  C   UNL     1      44.632   4.048   9.170  0.00  0.00    +0.000 A 
ATOM      4  C   UNL     1      44.621   2.659   9.348  0.00  0.00    +0.000 A 
ATOM      5  C   UNL     1      45.511   1.828   8.657  0.00  0.00    +0.000 A 
ATOM      6  C   UNL     1      46.456   2.373   7.788  0.00  0.00    +0.000 A 
ATOM      7  C   UNL     1      46.518   3.759   7.634  0.00  0.00    +0.000 A 
ATOM      8  C   UNL     1      45.614   4.583   8.322  0.00  0.00    +0.000 A 
BRANCH   6   9
ATOM      9  C   UNL     1      47.385   1.442   7.091  0.00  0.00    +0.000 C 
ATOM     10  N   UNL     1      48.449   1.995   6.429  0.00  0.00    +0.000 N 
ATOM     11  O   UNL     1      47.194   0.234   7.068  0.00  0.00    +0.000 OA
ATOM     12  H   UNL     1      48.509   2.978   6.217  0.00  0.00    +0.000 HD
ATOM     13  H   UNL     1      49.003   1.356   5.871  0.00  0.00    +0.000 HD
ENDBRANCH   6   9
ENDBRANCH   1   3
BRANCH   1  14
ATOM     14  C   UNL     1      43.798   4.884  11.334  0.00  0.00    +0.000 C 
BRANCH  14  16
ATOM     15  C   UNL     1      45.687   3.864  12.779  0.00  0.00    +0.000 C 
ATOM     16  C   UNL     1      45.202   4.953  11.869  0.00  0.00    +0.000 C 
BRANCH  16  17
ATOM     17  C   UNL     1      45.783   6.305  12.012  0.00  0.00    +0.000 A 
ATOM     18  C   UNL     1      44.990   7.376  12.446  0.00  0.00    +0.000 A 
ATOM     19  C   UNL     1      45.547   8.643  12.640  0.00  0.00    +0.000 A 
ATOM     20  C   UNL     1      46.904   8.854  12.404  0.00  0.00    +0.000 A 
ATOM     21  C   UNL     1      47.701   7.801  11.961  0.00  0.00    +0.000 A 
ATOM     22  C   UNL     1      47.143   6.537  11.761  0.00  0.00    +0.000 A 
ENDBRANCH  16  17
ENDBRANCH  14  16
ENDBRANCH   1  14
TORSDOF 5
ENDMDL
MODEL 3
REMARK VINA RESULT:    -7.127      2.838      6.373
REMARK INTER + INTRA:          -9.972
REMARK INTER:                  -9.360
REMARK INTRA:                  -0.613
REMARK UNBOUND:                -0.762
REMARK  Name = 
REMARK  6 active torsions:
REMARK  status: ('A' for Active; 'I' for Inactive)
REMARK    1  A    between atoms: C_1  and  C_2
REMARK    2  A    between atoms: C_2  and  C_3
REMARK    3  A    between atoms: C_2  and  C_14
REMARK    4  A    between atoms: C_3  and  N_4
REMARK    5  A    between atoms: N_4  and  C_5
REMARK    6  A    between atoms: C_8  and  C_9
REMARK                            x       y       z     vdW  Elec       q    Type
REMARK                         _______ _______ _______ _____ _____    ______ ____
ROOT
ATOM      1  N   UNL     1      44.131   4.931  10.680  0.00  0.00    +0.000 N 
ATOM      2  H   UNL     1      43.276   5.471  10.779  0.00  0.00    +0.000 HD
ENDROOT
BRANCH   1   3
ATOM      3  C   UNL     1      45.132   5.359  11.561  0.00  0.00    +0.000 A 
ATOM      4  C   UNL     1      46.052   6.372  11.263  0.00  0.00    +0.000 A 
ATOM      5  C   UNL     1      47.073   6.717  12.156  0.00  0.00    +0.000 A 
ATOM      6  C   UNL     1      47.214   6.034  13.365  0.00  0.00    +0.000 A 
ATOM      7  C   UNL     1      46.339   4.987  13.661  0.00  0.00    +0.000 A 
ATOM      8  C   UNL     1      45.312   4.656  12.763  0.00  0.00    +0.000 A 
BRANCH   6   9
ATOM      9  C   UNL     1      48.326   6.435  14.270  0.00  0.00    +0.000 C 
ATOM     10  N   UNL     1      48.070   6.447  15.614  0.00  0.00    +0.000 N 
ATOM     11  O   UNL     1      49.417   6.783  13.838  0.00  0.00    +0.000 OA
ATOM     12  H   UNL     1      47.136   6.407  15.992  0.00  0.00    +0.000 HD
ATOM     13  H   UNL     1      48.802   6.828  16.202  0.00  0.00    +0.000 HD
ENDBRANCH   6   9
ENDBRANCH   1   3
BRANCH   1  14
ATOM     14  C   UNL     1      44.477   4.632   9.300  0.00  0.00    +0.000 C 
BRANCH  14  16
ATOM     15  C   UNL     1      44.182   2.229  10.216  0.00  0.00    +0.000 C 
ATOM     16  C   UNL     1      44.581   3.144   9.097  0.00  0.00    +0.000 C 
BRANCH  16  17
ATOM     17  C   UNL     1      45.610   2.685   8.141  0.00  0.00    +0.000 A 
ATOM     18  C   UNL     1      46.068   3.536   7.126  0.00  0.00    +0.000 A 
ATOM     19  C   UNL     1      47.083   3.128   6.256  0.00  0.00    +0.000 A 
ATOM     20  C   UNL     1      47.653   1.863   6.391  0.00  0.00    +0.000 A 
ATOM     21  C   UNL     1      47.200   1.003   7.387  0.00  0.00    +0.000 A 
ATOM     22  C   UNL     1      46.182   1.409   8.252  0.00  0.00    +0.000 A 
ENDBRANCH  16  17
ENDBRANCH  14  16
ENDBRANCH   1  14
TORSDOF 5
ENDMDL
MODEL 4
REMARK VINA RESULT:    -7.047      3.164      5.687
REMARK INTER + INTRA:          -9.869
REMARK INTER:                  -8.901
REMARK INTRA:                  -0.969
REMARK UNBOUND:                -0.762
REMARK  Name = 
REMARK  6 active torsions:
REMARK  status: ('A' for Active; 'I' for Inactive)
REMARK    1  A    between atoms: C_1  and  C_2
REMARK    2  A    between atoms: C_2  and  C_3
REMARK    3  A    between atoms: C_2  and  C_14
REMARK    4  A    between atoms: C_3  and  N_4
REMARK    5  A    between atoms: N_4  and  C_5
REMARK    6  A    between atoms: C_8  and  C_9
REMARK                            x       y       z     vdW  Elec       q    Type
REMARK                         _______ _______ _______ _____ _____    ______ ____
ROOT
ATOM      1  N   UNL     1      43.637   5.656  12.531  0.00  0.00    +0.000 N 
ATOM      2  H   UNL     1      43.056   6.352  12.990  0.00  0.00    +0.000 HD
ENDROOT
BRANCH   1   3
ATOM      3  C   UNL     1      45.004   5.917  12.691  0.00  0.00    +0.000 A 
ATOM      4  C   UNL     1      45.843   5.182  13.537  0.00  0.00    +0.000 A 
ATOM      5  C   UNL     1      47.189   5.526  13.708  0.00  0.00    +0.000 A 
ATOM      6  C   UNL     1      47.723   6.637  13.053  0.00  0.00    +0.000 A 
ATOM      7  C   UNL     1      46.891   7.414  12.245  0.00  0.00    +0.000 A 
ATOM      8  C   UNL     1      45.546   7.053  12.071  0.00  0.00    +0.000 A 
BRANCH   6   9
ATOM      9  C   UNL     1      49.156   6.964  13.284  0.00  0.00    +0.000 C 
ATOM     10  N   UNL     1      49.924   7.236  12.183  0.00  0.00    +0.000 N 
ATOM     11  O   UNL     1      49.651   6.951  14.403  0.00  0.00    +0.000 OA
ATOM     12  H   UNL     1      49.627   7.022  11.244  0.00  0.00    +0.000 HD
ATOM     13  H   UNL     1      50.917   7.346  12.351  0.00  0.00    +0.000 HD
ENDBRANCH   6   9
ENDBRANCH   1   3
BRANCH   1  14
ATOM     14  C   UNL     1      43.137   5.248  11.228  0.00  0.00    +0.000 C 
BRANCH  14  16
ATOM     15  C   UNL     1      43.436   2.831  12.106  0.00  0.00    +0.000 C 
ATOM     16  C   UNL     1      43.476   3.805  10.966  0.00  0.00    +0.000 C 
BRANCH  16  17
ATOM     17  C   UNL     1      44.403   3.543   9.845  0.00  0.00    +0.000 A 
ATOM     18  C   UNL     1      44.989   4.606   9.144  0.00  0.00    +0.000 A 
ATOM     19  C   UNL     1      45.912   4.365   8.123  0.00  0.00    +0.000 A 
ATOM     20  C   UNL     1      46.261   3.058   7.790  0.00  0.00    +0.000 A 
ATOM     21  C   UNL     1      45.679   1.992   8.471  0.00  0.00    +0.000 A 
ATOM     22  C   UNL     1      44.752   2.233   9.487  0.00  0.00    +0.000 A 
ENDBRANCH  16  17
ENDBRANCH  14  16
ENDBRANCH   1  14
TORSDOF 5
ENDMDL
MODEL 5
REMARK VINA RESULT:    -6.224      3.649      6.654
REMARK INTER + INTRA:          -8.806
REMARK INTER:                  -8.287
REMARK INTRA:                  -0.519
REMARK UNBOUND:                -0.762
REMARK  Name = 
REMARK  6 active torsions:
REMARK  status: ('A' for Active; 'I' for Inactive)
REMARK    1  A    between atoms: C_1  and  C_2
REMARK    2  A    between atoms: C_2  and  C_3
REMARK    3  A    between atoms: C_2  and  C_14
REMARK    4  A    between atoms: C_3  and  N_4
REMARK    5  A    between atoms: N_4  and  C_5
REMARK    6  A    between atoms: C_8  and  C_9
REMARK                            x       y       z     vdW  Elec       q    Type
REMARK                         _______ _______ _______ _____ _____    ______ ____
ROOT
ATOM      1  N   UNL     1      45.369   5.312  11.855  0.00  0.00    +0.000 N 
ATOM      2  H   UNL     1      45.217   4.765  12.698  0.00  0.00    +0.000 HD
ENDROOT
BRANCH   1   3
ATOM      3  C   UNL     1      45.997   6.534  12.123  0.00  0.00    +0.000 A 
ATOM      4  C   UNL     1      45.338   7.648  12.659  0.00  0.00    +0.000 A 
ATOM      5  C   UNL     1      46.000   8.867  12.848  0.00  0.00    +0.000 A 
ATOM      6  C   UNL     1      47.338   9.008  12.477  0.00  0.00    +0.000 A 
ATOM      7  C   UNL     1      48.000   7.926  11.893  0.00  0.00    +0.000 A 
ATOM      8  C   UNL     1      47.330   6.705  11.719  0.00  0.00    +0.000 A 
BRANCH   6   9
ATOM      9  C   UNL     1      47.987  10.331  12.687  0.00  0.00    +0.000 C 
ATOM     10  N   UNL     1      47.196  11.443  12.580  0.00  0.00    +0.000 N 
ATOM     11  O   UNL     1      49.186  10.435  12.906  0.00  0.00    +0.000 OA
ATOM     12  H   UNL     1      46.277  11.421  12.167  0.00  0.00    +0.000 HD
ATOM     13  H   UNL     1      47.677  12.334  12.616  0.00  0.00    +0.000 HD
ENDBRANCH   6   9
ENDBRANCH   1   3
BRANCH   1  14
ATOM     14  C   UNL     1      44.250   5.273  10.926  0.00  0.00    +0.000 C 
BRANCH  14  16
ATOM     15  C   UNL     1      43.441   2.844  11.308  0.00  0.00    +0.000 C 
ATOM     16  C   UNL     1      44.051   3.875  10.406  0.00  0.00    +0.000 C 
BRANCH  16  17
ATOM     17  C   UNL     1      44.988   3.429   9.354  0.00  0.00    +0.000 A 
ATOM     18  C   UNL     1      45.274   2.067   9.188  0.00  0.00    +0.000 A 
ATOM     19  C   UNL     1      46.113   1.634   8.157  0.00  0.00    +0.000 A 
ATOM     20  C   UNL     1      46.676   2.558   7.279  0.00  0.00    +0.000 A 
ATOM     21  C   UNL     1      46.410   3.915   7.439  0.00  0.00    +0.000 A 
ATOM     22  C   UNL     1      45.577   4.348   8.473  0.00  0.00    +0.000 A 
ENDBRANCH  16  17
ENDBRANCH  14  16
ENDBRANCH   1  14
TORSDOF 5
ENDMDL
MODEL 6
REMARK VINA RESULT:    -6.115      3.670      6.233
REMARK INTER + INTRA:          -8.664
REMARK INTER:                  -7.850
REMARK INTRA:                  -0.814
REMARK UNBOUND:                -0.762
REMARK  Name = 
REMARK  6 active torsions:
REMARK  status: ('A' for Active; 'I' for Inactive)
REMARK    1  A    between atoms: C_1  and  C_2
REMARK    2  A    between atoms: C_2  and  C_3
REMARK    3  A    between atoms: C_2  and  C_14
REMARK    4  A    between atoms: C_3  and  N_4
REMARK    5  A    between atoms: N_4  and  C_5
REMARK    6  A    between atoms: C_8  and  C_9
REMARK                            x       y       z     vdW  Elec       q    Type
REMARK                         _______ _______ _______ _____ _____    ______ ____
ROOT
ATOM      1  N   UNL     1      45.242   6.008  13.244  0.00  0.00    +0.000 N 
ATOM      2  H   UNL     1      44.346   6.424  13.486  0.00  0.00    +0.000 HD
ENDROOT
BRANCH   1   3
ATOM      3  C   UNL     1      46.141   6.952  12.732  0.00  0.00    +0.000 A 
ATOM      4  C   UNL     1      47.390   6.623  12.190  0.00  0.00    +0.000 A 
ATOM      5  C   UNL     1      48.278   7.612  11.750  0.00  0.00    +0.000 A 
ATOM      6  C   UNL     1      47.946   8.962  11.869  0.00  0.00    +0.000 A 
ATOM      7  C   UNL     1      46.727   9.314  12.453  0.00  0.00    +0.000 A 
ATOM      8  C   UNL     1      45.840   8.314  12.880  0.00  0.00    +0.000 A 
BRANCH   6   9
ATOM      9  C   UNL     1      48.934   9.970  11.398  0.00  0.00    +0.000 C 
ATOM     10  N   UNL     1      50.246   9.768  11.732  0.00  0.00    +0.000 N 
ATOM     11  O   UNL     1      48.595  10.966  10.773  0.00  0.00    +0.000 OA
ATOM     12  H   UNL     1      50.534   9.109  12.439  0.00  0.00    +0.000 HD
ATOM     13  H   UNL     1      50.884  10.520  11.499  0.00  0.00    +0.000 HD
ENDBRANCH   6   9
ENDBRANCH   1   3
BRANCH   1  14
ATOM     14  C   UNL     1      45.127   4.709  12.600  0.00  0.00    +0.000 C 
BRANCH  14  16
ATOM     15  C   UNL     1      42.853   5.009  11.399  0.00  0.00    +0.000 C 
ATOM     16  C   UNL     1      44.340   4.827  11.323  0.00  0.00    +0.000 C 
BRANCH  16  17
ATOM     17  C   UNL     1      44.910   4.150  10.139  0.00  0.00    +0.000 A 
ATOM     18  C   UNL     1      44.729   2.773   9.952  0.00  0.00    +0.000 A 
ATOM     19  C   UNL     1      45.213   2.138   8.805  0.00  0.00    +0.000 A 
ATOM     20  C   UNL     1      45.885   2.874   7.830  0.00  0.00    +0.000 A 
ATOM     21  C   UNL     1      46.082   4.241   8.008  0.00  0.00    +0.000 A 
ATOM     22  C   UNL     1      45.603   4.873   9.157  0.00  0.00    +0.000 A 
ENDBRANCH  16  17
ENDBRANCH  14  16
ENDBRANCH   1  14
TORSDOF 5
ENDMDL
MODEL 7
REMARK VINA RESULT:    -5.841      3.305      5.592
REMARK INTER + INTRA:          -8.310
REMARK INTER:                  -7.699
REMARK INTRA:                  -0.612
REMARK UNBOUND:                -0.762
REMARK  Name = 
REMARK  6 active torsions:
REMARK  status: ('A' for Active; 'I' for Inactive)
REMARK    1  A    between atoms: C_1  and  C_2
REMARK    2  A    between atoms: C_2  and  C_3
REMARK    3  A    between atoms: C_2  and  C_14
REMARK    4  A    between atoms: C_3  and  N_4
REMARK    5  A    between atoms: N_4  and  C_5
REMARK    6  A    between atoms: C_8  and  C_9
REMARK                            x       y       z     vdW  Elec       q    Type
REMARK                         _______ _______ _______ _____ _____    ______ ____
ROOT
ATOM      1  N   UNL     1      47.127   6.978  13.957  0.00  0.00    +0.000 N 
ATOM      2  H   UNL     1      46.529   7.193  14.750  0.00  0.00    +0.000 HD
ENDROOT
BRANCH   1   3
ATOM      3  C   UNL     1      46.469   6.209  12.990  0.00  0.00    +0.000 A 
ATOM      4  C   UNL     1      46.419   6.541  11.630  0.00  0.00    +0.000 A 
ATOM      5  C   UNL     1      45.692   5.769  10.716  0.00  0.00    +0.000 A 
ATOM      6  C   UNL     1      44.972   4.654  11.149  0.00  0.00    +0.000 A 
ATOM      7  C   UNL     1      44.967   4.334  12.508  0.00  0.00    +0.000 A 
ATOM      8  C   UNL     1      45.708   5.108  13.414  0.00  0.00    +0.000 A 
BRANCH   6   9
ATOM      9  C   UNL     1      44.206   3.879  10.135  0.00  0.00    +0.000 C 
ATOM     10  N   UNL     1      44.092   4.421   8.884  0.00  0.00    +0.000 N 
ATOM     11  O   UNL     1      43.660   2.819  10.410  0.00  0.00    +0.000 OA
ATOM     12  H   UNL     1      44.310   5.385   8.684  0.00  0.00    +0.000 HD
ATOM     13  H   UNL     1      43.476   3.934   8.244  0.00  0.00    +0.000 HD
ENDBRANCH   6   9
ENDBRANCH   1   3
BRANCH   1  14
ATOM     14  C   UNL     1      48.492   6.640  14.330  0.00  0.00    +0.000 C 
BRANCH  14  16
ATOM     15  C   UNL     1      49.397   7.885  16.411  0.00  0.00    +0.000 C 
ATOM     16  C   UNL     1      48.660   6.719  15.823  0.00  0.00    +0.000 C 
BRANCH  16  17
ATOM     17  C   UNL     1      48.680   5.431  16.548  0.00  0.00    +0.000 A 
ATOM     18  C   UNL     1      47.598   4.545  16.454  0.00  0.00    +0.000 A 
ATOM     19  C   UNL     1      47.637   3.301  17.089  0.00  0.00    +0.000 A 
ATOM     20  C   UNL     1      48.759   2.926  17.825  0.00  0.00    +0.000 A 
ATOM     21  C   UNL     1      49.837   3.801  17.937  0.00  0.00    +0.000 A 
ATOM     22  C   UNL     1      49.795   5.046  17.307  0.00  0.00    +0.000 A 
ENDBRANCH  16  17
ENDBRANCH  14  16
ENDBRANCH   1  14
TORSDOF 5
ENDMDL
MODEL 8
REMARK VINA RESULT:    -5.475      4.851      8.159
REMARK INTER + INTRA:          -7.837
REMARK INTER:                  -7.405
REMARK INTRA:                  -0.433
REMARK UNBOUND:                -0.762
REMARK  Name = 
REMARK  6 active torsions:
REMARK  status: ('A' for Active; 'I' for Inactive)
REMARK    1  A    between atoms: C_1  and  C_2
REMARK    2  A    between atoms: C_2  and  C_3
REMARK    3  A    between atoms: C_2  and  C_14
REMARK    4  A    between atoms: C_3  and  N_4
REMARK    5  A    between atoms: N_4  and  C_5
REMARK    6  A    between atoms: C_8  and  C_9
REMARK                            x       y       z     vdW  Elec       q    Type
REMARK                         _______ _______ _______ _____ _____    ______ ____
ROOT
ATOM      1  N   UNL     1      47.436   5.858  14.117  0.00  0.00    +0.000 N 
ATOM      2  H   UNL     1      48.229   6.235  13.605  0.00  0.00    +0.000 HD
ENDROOT
BRANCH   1   3
ATOM      3  C   UNL     1      47.771   5.514  15.433  0.00  0.00    +0.000 A 
ATOM      4  C   UNL     1      48.720   6.201  16.201  0.00  0.00    +0.000 A 
ATOM      5  C   UNL     1      49.062   5.775  17.490  0.00  0.00    +0.000 A 
ATOM      6  C   UNL     1      48.480   4.629  18.033  0.00  0.00    +0.000 A 
ATOM      7  C   UNL     1      47.570   3.900  17.265  0.00  0.00    +0.000 A 
ATOM      8  C   UNL     1      47.225   4.342  15.978  0.00  0.00    +0.000 A 
BRANCH   6   9
ATOM      9  C   UNL     1      48.893   4.215  19.402  0.00  0.00    +0.000 C 
ATOM     10  N   UNL     1      48.317   3.085  19.918  0.00  0.00    +0.000 N 
ATOM     11  O   UNL     1      49.682   4.874  20.065  0.00  0.00    +0.000 OA
ATOM     12  H   UNL     1      47.498   2.658  19.515  0.00  0.00    +0.000 HD
ATOM     13  H   UNL     1      48.526   2.885  20.888  0.00  0.00    +0.000 HD
ENDBRANCH   6   9
ENDBRANCH   1   3
BRANCH   1  14
ATOM     14  C   UNL     1      46.611   4.955  13.332  0.00  0.00    +0.000 C 
BRANCH  14  16
ATOM     15  C   UNL     1      45.298   7.012  12.467  0.00  0.00    +0.000 C 
ATOM     16  C   UNL     1      45.964   5.696  12.193  0.00  0.00    +0.000 C 
BRANCH  16  17
ATOM     17  C   UNL     1      45.462   4.869  11.076  0.00  0.00    +0.000 A 
ATOM     18  C   UNL     1      45.665   5.269   9.748  0.00  0.00    +0.000 A 
ATOM     19  C   UNL     1      45.245   4.462   8.687  0.00  0.00    +0.000 A 
ATOM     20  C   UNL     1      44.618   3.244   8.940  0.00  0.00    +0.000 A 
ATOM     21  C   UNL     1      44.399   2.839  10.254  0.00  0.00    +0.000 A 
ATOM     22  C   UNL     1      44.813   3.648  11.314  0.00  0.00    +0.000 A 
ENDBRANCH  16  17
ENDBRANCH  14  16
ENDBRANCH   1  14
TORSDOF 5
ENDMDL
MODEL 9
REMARK VINA RESULT:    -5.295      5.612      8.327
REMARK INTER + INTRA:          -7.605
REMARK INTER:                  -7.002
REMARK INTRA:                  -0.603
REMARK UNBOUND:                -0.762
REMARK  Name = 
REMARK  6 active torsions:
REMARK  status: ('A' for Active; 'I' for Inactive)
REMARK    1  A    between atoms: C_1  and  C_2
REMARK    2  A    between atoms: C_2  and  C_3
REMARK    3  A    between atoms: C_2  and  C_14
REMARK    4  A    between atoms: C_3  and  N_4
REMARK    5  A    between atoms: N_4  and  C_5
REMARK    6  A    between atoms: C_8  and  C_9
REMARK                            x       y       z     vdW  Elec       q    Type
REMARK                         _______ _______ _______ _____ _____    ______ ____
ROOT
ATOM      1  N   UNL     1      48.014   4.874  16.810  0.00  0.00    +0.000 N 
ATOM      2  H   UNL     1      48.251   5.862  16.814  0.00  0.00    +0.000 HD
ENDROOT
BRANCH   1   3
ATOM      3  C   UNL     1      49.112   4.064  17.127  0.00  0.00    +0.000 A 
ATOM      4  C   UNL     1      50.352   4.563  17.546  0.00  0.00    +0.000 A 
ATOM      5  C   UNL     1      51.436   3.711  17.788  0.00  0.00    +0.000 A 
ATOM      6  C   UNL     1      51.312   2.335  17.590  0.00  0.00    +0.000 A 
ATOM      7  C   UNL     1      50.100   1.823  17.124  0.00  0.00    +0.000 A 
ATOM      8  C   UNL     1      49.015   2.684  16.895  0.00  0.00    +0.000 A 
BRANCH   6   9
ATOM      9  C   UNL     1      52.502   1.480  17.850  0.00  0.00    +0.000 C 
ATOM     10  N   UNL     1      52.639   0.347  17.095  0.00  0.00    +0.000 N 
ATOM     11  O   UNL     1      53.310   1.747  18.730  0.00  0.00    +0.000 OA
ATOM     12  H   UNL     1      51.888  -0.034  16.542  0.00  0.00    +0.000 HD
ATOM     13  H   UNL     1      53.392  -0.276  17.363  0.00  0.00    +0.000 HD
ENDBRANCH   6   9
ENDBRANCH   1   3
BRANCH   1  14
ATOM     14  C   UNL     1      47.136   4.489  15.716  0.00  0.00    +0.000 C 
BRANCH  14  16
ATOM     15  C   UNL     1      48.223   6.543  14.575  0.00  0.00    +0.000 C 
ATOM     16  C   UNL     1      47.513   5.227  14.460  0.00  0.00    +0.000 C 
BRANCH  16  17
ATOM     17  C   UNL     1      46.659   4.986  13.278  0.00  0.00    +0.000 A 
ATOM     18  C   UNL     1      46.022   3.749  13.101  0.00  0.00    +0.000 A 
ATOM     19  C   UNL     1      45.167   3.536  12.017  0.00  0.00    +0.000 A 
ATOM     20  C   UNL     1      44.936   4.556  11.096  0.00  0.00    +0.000 A 
ATOM     21  C   UNL     1      45.571   5.785  11.253  0.00  0.00    +0.000 A 
ATOM     22  C   UNL     1      46.430   5.996  12.333  0.00  0.00    +0.000 A 
ENDBRANCH  16  17
ENDBRANCH  14  16
ENDBRANCH   1  14
TORSDOF 5
ENDMDL
