MODEL 1
REMARK VINA RESULT:    -8.277      0.000      0.000
REMARK INTER + INTRA:         -12.486
REMARK INTER:                 -11.422
REMARK INTRA:                  -1.064
REMARK UNBOUND:                -1.064
REMARK  Name = 
REMARK  7 active torsions:
REMARK  status: ('A' for Active; 'I' for Inactive)
REMARK    1  A    between atoms: N_1  and  C_2
REMARK    2  A    between atoms: C_2  and  C_3
REMARK    3  A    between atoms: C_2  and  C_19
REMARK    4  A    between atoms: C_3  and  C_4
REMARK    5  A    between atoms: C_7  and  C_8
REMARK    6  A    between atoms: C_8  and  C_9
REMARK    7  A    between atoms: C_9  and  C_10
REMARK                            x       y       z     vdW  Elec       q    Type
REMARK                         _______ _______ _______ _____ _____    ______ ____
ROOT
ATOM      1  C   UNL     1      47.367   7.374  13.624  0.00  0.00    +0.000 C 
ENDROOT
BRANCH   1   2
ATOM      2  C   UNL     1      46.400   6.648  12.719  0.00  0.00    +0.000 A 
ATOM      3  C   UNL     1      45.287   5.993  13.253  0.00  0.00    +0.000 A 
ATOM      4  C   UNL     1      44.424   5.280  12.425  0.00  0.00    +0.000 A 
ATOM      5  C   UNL     1      44.631   5.235  11.038  0.00  0.00    +0.000 A 
ATOM      6  C   UNL     1      45.734   5.909  10.502  0.00  0.00    +0.000 A 
ATOM      7  C   UNL     1      46.611   6.608  11.335  0.00  0.00    +0.000 A 
BRANCH   5   8
ATOM      8  C   UNL     1      43.703   4.443  10.149  0.00  0.00    +0.000 C 
BRANCH   8   9
ATOM      9  C   UNL     1      44.343   4.113   8.802  0.00  0.00    +0.000 C 
BRANCH   9  10
ATOM     10  C   UNL     1      44.980   2.739   8.785  0.00  0.00    +0.000 C 
ATOM     11  O   UNL     1      44.563   1.813   9.479  0.00  0.00    +0.000 OA
ATOM     12  N   UNL     1      46.040   2.583   7.916  0.00  0.00    +0.000 N 
ATOM     13  C   UNL     1      46.674   3.598   7.093  0.00  0.00    +0.000 C 
ATOM     14  C   UNL     1      47.214   2.802   5.920  0.00  0.00    +0.000 C 
ATOM     15  C   UNL     1      47.633   1.481   6.556  0.00  0.00    +0.000 C 
ATOM     16  C   UNL     1      46.658   1.286   7.715  0.00  0.00    +0.000 C 
ENDBRANCH   9  10
ENDBRANCH   8   9
ENDBRANCH   5   8
ENDBRANCH   1   2
BRANCH   1  17
ATOM     17  C   UNL     1      48.559   6.510  14.114  0.00  0.00    +0.000 C 
BRANCH  17  18
ATOM     18  C   UNL     1      48.544   6.320  15.616  0.00  0.00    +0.000 A 
ATOM     19  C   UNL     1      48.919   7.311  16.511  0.00  0.00    +0.000 A 
ATOM     20  S   UNL     1      48.895   6.791  18.139  0.00  0.00    +0.000 S 
ATOM     21  C   UNL     1      48.374   5.231  17.697  0.00  0.00    +0.000 A 
ATOM     22  N   UNL     1      48.200   4.253  18.625  0.00  0.00    +0.000 NA
ATOM     23  C   UNL     1      47.814   3.121  18.138  0.00  0.00    +0.000 A 
ATOM     24  N   UNL     1      47.562   2.883  16.808  0.00  0.00    +0.000 N 
ATOM     25  C   UNL     1      47.648   3.862  15.847  0.00  0.00    +0.000 A 
ATOM     26  O   UNL     1      47.278   3.656  14.693  0.00  0.00    +0.000 OA
ATOM     27  C   UNL     1      48.168   5.126  16.334  0.00  0.00    +0.000 A 
ATOM     28  H   UNL     1      47.219   1.987  16.500  0.00  0.00    +0.000 HD
ENDBRANCH  17  18
BRANCH  17  29
ATOM     29  N   UNL     1      49.871   7.030  13.737  0.00  0.00    +0.000 NA
ATOM     30  H   UNL     1      50.485   7.053  14.547  0.00  0.00    +0.000 HD
ATOM     31  H   UNL     1      49.764   7.994  13.407  0.00  0.00    +0.000 HD
ENDBRANCH  17  29
ENDBRANCH   1  17
TORSDOF 7
ENDMDL
MODEL 2
REMARK VINA RESULT:    -7.553      2.085      2.717
REMARK INTER + INTRA:         -11.486
REMARK INTER:                 -10.880
REMARK INTRA:                  -0.606
REMARK UNBOUND:                -1.064
REMARK  Name = 
REMARK  7 active torsions:
REMARK  status: ('A' for Active; 'I' for Inactive)
REMARK    1  A    between atoms: N_1  and  C_2
REMARK    2  A    between atoms: C_2  and  C_3
REMARK    3  A    between atoms: C_2  and  C_19
REMARK    4  A    between atoms: C_3  and  C_4
REMARK    5  A    between atoms: C_7  and  C_8
REMARK    6  A    between atoms: C_8  and  C_9
REMARK    7  A    between atoms: C_9  and  C_10
REMARK                            x       y       z     vdW  Elec       q    Type
REMARK                         _______ _______ _______ _____ _____    ______ ____
ROOT
ATOM      1  C   UNL     1      48.028   5.020  14.995  0.00  0.00    +0.000 C 
ENDROOT
BRANCH   1   2
ATOM      2  C   UNL     1      46.932   4.770  13.986  0.00  0.00    +0.000 A 
ATOM      3  C   UNL     1      46.671   3.475  13.531  0.00  0.00    +0.000 A 
ATOM      4  C   UNL     1      45.696   3.251  12.561  0.00  0.00    +0.000 A 
ATOM      5  C   UNL     1      44.934   4.311  12.050  0.00  0.00    +0.000 A 
ATOM      6  C   UNL     1      45.181   5.606  12.522  0.00  0.00    +0.000 A 
ATOM      7  C   UNL     1      46.172   5.833  13.479  0.00  0.00    +0.000 A 
BRANCH   5   8
ATOM      8  C   UNL     1      43.892   4.064  10.985  0.00  0.00    +0.000 C 
BRANCH   8   9
ATOM      9  C   UNL     1      44.367   3.052   9.945  0.00  0.00    +0.000 C 
BRANCH   9  10
ATOM     10  C   UNL     1      45.177   3.694   8.838  0.00  0.00    +0.000 C 
ATOM     11  O   UNL     1      45.219   4.913   8.678  0.00  0.00    +0.000 OA
ATOM     12  N   UNL     1      45.891   2.826   8.039  0.00  0.00    +0.000 N 
ATOM     13  C   UNL     1      45.883   1.374   8.073  0.00  0.00    +0.000 C 
ATOM     14  C   UNL     1      47.260   1.009   7.552  0.00  0.00    +0.000 C 
ATOM     15  C   UNL     1      47.535   2.085   6.507  0.00  0.00    +0.000 C 
ATOM     16  C   UNL     1      46.800   3.320   7.023  0.00  0.00    +0.000 C 
ENDBRANCH   9  10
ENDBRANCH   8   9
ENDBRANCH   5   8
ENDBRANCH   1   2
BRANCH   1  17
ATOM     17  C   UNL     1      47.614   4.768  16.469  0.00  0.00    +0.000 C 
BRANCH  17  18
ATOM     18  C   UNL     1      48.814   4.632  17.381  0.00  0.00    +0.000 A 
ATOM     19  C   UNL     1      49.158   5.581  18.332  0.00  0.00    +0.000 A 
ATOM     20  S   UNL     1      50.611   5.216  19.153  0.00  0.00    +0.000 S 
ATOM     21  C   UNL     1      50.818   3.774  18.271  0.00  0.00    +0.000 A 
ATOM     22  N   UNL     1      51.911   2.985  18.450  0.00  0.00    +0.000 NA
ATOM     23  C   UNL     1      51.935   1.933  17.701  0.00  0.00    +0.000 A 
ATOM     24  N   UNL     1      50.953   1.583  16.806  0.00  0.00    +0.000 N 
ATOM     25  C   UNL     1      49.794   2.307  16.651  0.00  0.00    +0.000 A 
ATOM     26  O   UNL     1      48.874   1.893  15.951  0.00  0.00    +0.000 OA
ATOM     27  C   UNL     1      49.767   3.548  17.403  0.00  0.00    +0.000 A 
ATOM     28  H   UNL     1      51.012   0.722  16.285  0.00  0.00    +0.000 HD
ENDBRANCH  17  18
BRANCH  17  29
ATOM     29  N   UNL     1      46.766   3.594  16.659  0.00  0.00    +0.000 NA
ATOM     30  H   UNL     1      45.909   3.690  16.119  0.00  0.00    +0.000 HD
ATOM     31  H   UNL     1      46.500   3.533  17.646  0.00  0.00    +0.000 HD
ENDBRANCH  17  29
ENDBRANCH   1  17
TORSDOF 7
ENDMDL
MODEL 3
REMARK VINA RESULT:    -7.527      1.981      2.625
REMARK INTER + INTRA:         -11.451
REMARK INTER:                 -10.173
REMARK INTRA:                  -1.278
REMARK UNBOUND:                -1.064
REMARK  Name = 
REMARK  7 active torsions:
REMARK  status: ('A' for Active; 'I' for Inactive)
REMARK    1  A    between atoms: N_1  and  C_2
REMARK    2  A    between atoms: C_2  and  C_3
REMARK    3  A    between atoms: C_2  and  C_19
REMARK    4  A    between atoms: C_3  and  C_4
REMARK    5  A    between atoms: C_7  and  C_8
REMARK    6  A    between atoms: C_8  and  C_9
REMARK    7  A    between atoms: C_9  and  C_10
REMARK                            x       y       z     vdW  Elec       q    Type
REMARK                         _______ _______ _______ _____ _____    ______ ____
ROOT
ATOM      1  C   UNL     1      48.627   7.743  13.001  0.00  0.00    +0.000 C 
ENDROOT
BRANCH   1   2
ATOM      2  C   UNL     1      47.300   7.023  12.955  0.00  0.00    +0.000 A 
ATOM      3  C   UNL     1      46.155   7.678  12.494  0.00  0.00    +0.000 A 
ATOM      4  C   UNL     1      44.921   7.032  12.501  0.00  0.00    +0.000 A 
ATOM      5  C   UNL     1      44.808   5.703  12.935  0.00  0.00    +0.000 A 
ATOM      6  C   UNL     1      45.959   5.040  13.377  0.00  0.00    +0.000 A 
ATOM      7  C   UNL     1      47.193   5.695  13.389  0.00  0.00    +0.000 A 
BRANCH   5   8
ATOM      8  C   UNL     1      43.464   5.015  12.959  0.00  0.00    +0.000 C 
BRANCH   8   9
ATOM      9  C   UNL     1      42.970   4.675  11.555  0.00  0.00    +0.000 C 
BRANCH   9  10
ATOM     10  C   UNL     1      43.444   3.314  11.087  0.00  0.00    +0.000 C 
ATOM     11  O   UNL     1      43.000   2.268  11.556  0.00  0.00    +0.000 OA
ATOM     12  N   UNL     1      44.384   3.323  10.078  0.00  0.00    +0.000 N 
ATOM     13  C   UNL     1      45.038   4.474   9.481  0.00  0.00    +0.000 C 
ATOM     14  C   UNL     1      45.362   3.997   8.077  0.00  0.00    +0.000 C 
ATOM     15  C   UNL     1      45.694   2.522   8.277  0.00  0.00    +0.000 C 
ATOM     16  C   UNL     1      44.829   2.090   9.459  0.00  0.00    +0.000 C 
ENDBRANCH   9  10
ENDBRANCH   8   9
ENDBRANCH   5   8
ENDBRANCH   1   2
BRANCH   1  17
ATOM     17  C   UNL     1      49.519   7.369  14.215  0.00  0.00    +0.000 C 
BRANCH  17  18
ATOM     18  C   UNL     1      49.020   7.995  15.500  0.00  0.00    +0.000 A 
ATOM     19  C   UNL     1      48.737   9.346  15.628  0.00  0.00    +0.000 A 
ATOM     20  S   UNL     1      48.283   9.792  17.214  0.00  0.00    +0.000 S 
ATOM     21  C   UNL     1      48.441   8.192  17.774  0.00  0.00    +0.000 A 
ATOM     22  N   UNL     1      48.241   7.876  19.081  0.00  0.00    +0.000 NA
ATOM     23  C   UNL     1      48.409   6.626  19.357  0.00  0.00    +0.000 A 
ATOM     24  N   UNL     1      48.735   5.656  18.441  0.00  0.00    +0.000 N 
ATOM     25  C   UNL     1      48.868   5.915  17.097  0.00  0.00    +0.000 A 
ATOM     26  O   UNL     1      49.017   5.006  16.285  0.00  0.00    +0.000 OA
ATOM     27  C   UNL     1      48.781   7.323  16.755  0.00  0.00    +0.000 A 
ATOM     28  H   UNL     1      48.806   4.688  18.715  0.00  0.00    +0.000 HD
ENDBRANCH  17  18
BRANCH  17  29
ATOM     29  N   UNL     1      50.926   7.724  14.055  0.00  0.00    +0.000 NA
ATOM     30  H   UNL     1      51.435   7.531  14.914  0.00  0.00    +0.000 HD
ATOM     31  H   UNL     1      50.998   8.730  13.878  0.00  0.00    +0.000 HD
ENDBRANCH  17  29
ENDBRANCH   1  17
TORSDOF 7
ENDMDL
MODEL 4
REMARK VINA RESULT:    -7.320      2.965      4.000
REMARK INTER + INTRA:         -11.165
REMARK INTER:                 -10.235
REMARK INTRA:                  -0.930
REMARK UNBOUND:                -1.064
REMARK  Name = 
REMARK  7 active torsions:
REMARK  status: ('A' for Active; 'I' for Inactive)
REMARK    1  A    between atoms: N_1  and  C_2
REMARK    2  A    between atoms: C_2  and  C_3
REMARK    3  A    between atoms: C_2  and  C_19
REMARK    4  A    between atoms: C_3  and  C_4
REMARK    5  A    between atoms: C_7  and  C_8
REMARK    6  A    between atoms: C_8  and  C_9
REMARK    7  A    between atoms: C_9  and  C_10
REMARK                            x       y       z     vdW  Elec       q    Type
REMARK                         _______ _______ _______ _____ _____    ______ ____
ROOT
ATOM      1  C   UNL     1      47.708   6.670  13.790  0.00  0.00    +0.000 C 
ENDROOT
BRANCH   1   2
ATOM      2  C   UNL     1      46.706   6.060  12.839  0.00  0.00    +0.000 A 
ATOM      3  C   UNL     1      46.639   6.490  11.510  0.00  0.00    +0.000 A 
ATOM      4  C   UNL     1      45.680   5.965  10.647  0.00  0.00    +0.000 A 
ATOM      5  C   UNL     1      44.789   4.972  11.080  0.00  0.00    +0.000 A 
ATOM      6  C   UNL     1      44.871   4.527  12.405  0.00  0.00    +0.000 A 
ATOM      7  C   UNL     1      45.819   5.068  13.276  0.00  0.00    +0.000 A 
BRANCH   5   8
ATOM      8  C   UNL     1      43.739   4.422  10.144  0.00  0.00    +0.000 C 
BRANCH   8   9
ATOM      9  C   UNL     1      44.318   4.076   8.775  0.00  0.00    +0.000 C 
BRANCH   9  10
ATOM     10  C   UNL     1      44.999   2.723   8.759  0.00  0.00    +0.000 C 
ATOM     11  O   UNL     1      44.624   1.791   9.469  0.00  0.00    +0.000 OA
ATOM     12  N   UNL     1      46.048   2.592   7.873  0.00  0.00    +0.000 N 
ATOM     13  C   UNL     1      46.633   3.619   7.028  0.00  0.00    +0.000 C 
ATOM     14  C   UNL     1      47.178   2.829   5.853  0.00  0.00    +0.000 C 
ATOM     15  C   UNL     1      47.651   1.529   6.494  0.00  0.00    +0.000 C 
ATOM     16  C   UNL     1      46.704   1.314   7.673  0.00  0.00    +0.000 C 
ENDBRANCH   9  10
ENDBRANCH   8   9
ENDBRANCH   5   8
ENDBRANCH   1   2
BRANCH   1  17
ATOM     17  C   UNL     1      47.775   8.220  13.746  0.00  0.00    +0.000 C 
BRANCH  17  18
ATOM     18  C   UNL     1      49.065   8.716  13.128  0.00  0.00    +0.000 A 
ATOM     19  C   UNL     1      49.110   9.466  11.963  0.00  0.00    +0.000 A 
ATOM     20  S   UNL     1      50.702   9.807  11.444  0.00  0.00    +0.000 S 
ATOM     21  C   UNL     1      51.377   8.973  12.766  0.00  0.00    +0.000 A 
ATOM     22  N   UNL     1      52.722   8.837  12.906  0.00  0.00    +0.000 NA
ATOM     23  C   UNL     1      53.083   8.169  13.951  0.00  0.00    +0.000 A 
ATOM     24  N   UNL     1      52.222   7.644  14.884  0.00  0.00    +0.000 N 
ATOM     25  C   UNL     1      50.860   7.825  14.826  0.00  0.00    +0.000 A 
ATOM     26  O   UNL     1      50.130   7.469  15.748  0.00  0.00    +0.000 OA
ATOM     27  C   UNL     1      50.402   8.490  13.619  0.00  0.00    +0.000 A 
ATOM     28  H   UNL     1      52.572   7.172  15.703  0.00  0.00    +0.000 HD
ENDBRANCH  17  18
BRANCH  17  29
ATOM     29  N   UNL     1      47.620   8.863  15.048  0.00  0.00    +0.000 NA
ATOM     30  H   UNL     1      48.414   9.470  15.235  0.00  0.00    +0.000 HD
ATOM     31  H   UNL     1      47.608   8.142  15.776  0.00  0.00    +0.000 HD
ENDBRANCH  17  29
ENDBRANCH   1  17
TORSDOF 7
ENDMDL
MODEL 5
REMARK VINA RESULT:    -7.296      2.926      4.840
REMARK INTER + INTRA:         -11.132
REMARK INTER:                 -10.142
REMARK INTRA:                  -0.991
REMARK UNBOUND:                -1.064
REMARK  Name = 
REMARK  7 active torsions:
REMARK  status: ('A' for Active; 'I' for Inactive)
REMARK    1  A    between atoms: N_1  and  C_2
REMARK    2  A    between atoms: C_2  and  C_3
REMARK    3  A    between atoms: C_2  and  C_19
REMARK    4  A    between atoms: C_3  and  C_4
REMARK    5  A    between atoms: C_7  and  C_8
REMARK    6  A    between atoms: C_8  and  C_9
REMARK    7  A    between atoms: C_9  and  C_10
REMARK                            x       y       z     vdW  Elec       q    Type
REMARK                         _______ _______ _______ _____ _____    ______ ____
ROOT
ATOM      1  C   UNL     1      47.778   6.396  14.061  0.00  0.00    +0.000 C 
ENDROOT
BRANCH   1   2
ATOM      2  C   UNL     1      46.770   5.857  13.074  0.00  0.00    +0.000 A 
ATOM      3  C   UNL     1      46.615   6.458  11.821  0.00  0.00    +0.000 A 
ATOM      4  C   UNL     1      45.649   5.994  10.931  0.00  0.00    +0.000 A 
ATOM      5  C   UNL     1      44.841   4.895  11.256  0.00  0.00    +0.000 A 
ATOM      6  C   UNL     1      45.011   4.280  12.502  0.00  0.00    +0.000 A 
ATOM      7  C   UNL     1      45.966   4.758  13.403  0.00  0.00    +0.000 A 
BRANCH   5   8
ATOM      8  C   UNL     1      43.782   4.410  10.294  0.00  0.00    +0.000 C 
BRANCH   8   9
ATOM      9  C   UNL     1      44.359   4.107   8.914  0.00  0.00    +0.000 C 
BRANCH   9  10
ATOM     10  C   UNL     1      44.965   2.721   8.830  0.00  0.00    +0.000 C 
ATOM     11  O   UNL     1      44.531   1.775   9.484  0.00  0.00    +0.000 OA
ATOM     12  N   UNL     1      46.017   2.582   7.948  0.00  0.00    +0.000 N 
ATOM     13  C   UNL     1      46.668   3.618   7.167  0.00  0.00    +0.000 C 
ATOM     14  C   UNL     1      47.184   2.865   5.956  0.00  0.00    +0.000 C 
ATOM     15  C   UNL     1      47.577   1.508   6.529  0.00  0.00    +0.000 C 
ATOM     16  C   UNL     1      46.604   1.282   7.685  0.00  0.00    +0.000 C 
ENDBRANCH   9  10
ENDBRANCH   8   9
ENDBRANCH   5   8
ENDBRANCH   1   2
BRANCH   1  17
ATOM     17  C   UNL     1      47.871   7.944  14.103  0.00  0.00    +0.000 C 
BRANCH  17  18
ATOM     18  C   UNL     1      48.969   8.473  13.205  0.00  0.00    +0.000 A 
ATOM     19  C   UNL     1      50.276   8.013  13.252  0.00  0.00    +0.000 A 
ATOM     20  S   UNL     1      51.323   8.852  12.194  0.00  0.00    +0.000 S 
ATOM     21  C   UNL     1      50.060   9.847  11.635  0.00  0.00    +0.000 A 
ATOM     22  N   UNL     1      50.285  10.838  10.733  0.00  0.00    +0.000 NA
ATOM     23  C   UNL     1      49.233  11.516  10.414  0.00  0.00    +0.000 A 
ATOM     24  N   UNL     1      47.969  11.277  10.896  0.00  0.00    +0.000 N 
ATOM     25  C   UNL     1      47.680  10.237  11.747  0.00  0.00    +0.000 A 
ATOM     26  O   UNL     1      46.521   9.962  12.047  0.00  0.00    +0.000 OA
ATOM     27  C   UNL     1      48.848   9.507  12.206  0.00  0.00    +0.000 A 
ATOM     28  H   UNL     1      47.181  11.816  10.570  0.00  0.00    +0.000 HD
ENDBRANCH  17  18
BRANCH  17  29
ATOM     29  N   UNL     1      48.075   8.495  15.440  0.00  0.00    +0.000 NA
ATOM     30  H   UNL     1      47.922   9.500  15.432  0.00  0.00    +0.000 HD
ATOM     31  H   UNL     1      49.047   8.336  15.721  0.00  0.00    +0.000 HD
ENDBRANCH  17  29
ENDBRANCH   1  17
TORSDOF 7
ENDMDL
MODEL 6
REMARK VINA RESULT:    -7.181      2.730      4.358
REMARK INTER + INTRA:         -10.973
REMARK INTER:                 -10.037
REMARK INTRA:                  -0.936
REMARK UNBOUND:                -1.064
REMARK  Name = 
REMARK  7 active torsions:
REMARK  status: ('A' for Active; 'I' for Inactive)
REMARK    1  A    between atoms: N_1  and  C_2
REMARK    2  A    between atoms: C_2  and  C_3
REMARK    3  A    between atoms: C_2  and  C_19
REMARK    4  A    between atoms: C_3  and  C_4
REMARK    5  A    between atoms: C_7  and  C_8
REMARK    6  A    between atoms: C_8  and  C_9
REMARK    7  A    between atoms: C_9  and  C_10
REMARK                            x       y       z     vdW  Elec       q    Type
REMARK                         _______ _______ _______ _____ _____    ______ ____
ROOT
ATOM      1  C   UNL     1      47.859   6.295  14.089  0.00  0.00    +0.000 C 
ENDROOT
BRANCH   1   2
ATOM      2  C   UNL     1      46.827   5.820  13.093  0.00  0.00    +0.000 A 
ATOM      3  C   UNL     1      46.769   6.380  11.814  0.00  0.00    +0.000 A 
ATOM      4  C   UNL     1      45.784   5.980  10.914  0.00  0.00    +0.000 A 
ATOM      5  C   UNL     1      44.857   4.985  11.257  0.00  0.00    +0.000 A 
ATOM      6  C   UNL     1      44.930   4.410  12.531  0.00  0.00    +0.000 A 
ATOM      7  C   UNL     1      45.905   4.825  13.441  0.00  0.00    +0.000 A 
BRANCH   5   8
ATOM      8  C   UNL     1      43.780   4.571  10.283  0.00  0.00    +0.000 C 
BRANCH   8   9
ATOM      9  C   UNL     1      44.354   4.200   8.918  0.00  0.00    +0.000 C 
BRANCH   9  10
ATOM     10  C   UNL     1      44.930   2.799   8.893  0.00  0.00    +0.000 C 
ATOM     11  O   UNL     1      44.464   1.885   9.572  0.00  0.00    +0.000 OA
ATOM     12  N   UNL     1      45.993   2.606   8.035  0.00  0.00    +0.000 N 
ATOM     13  C   UNL     1      46.680   3.600   7.230  0.00  0.00    +0.000 C 
ATOM     14  C   UNL     1      47.199   2.794   6.055  0.00  0.00    +0.000 C 
ATOM     15  C   UNL     1      47.552   1.449   6.682  0.00  0.00    +0.000 C 
ATOM     16  C   UNL     1      46.556   1.285   7.827  0.00  0.00    +0.000 C 
ENDBRANCH   9  10
ENDBRANCH   8   9
ENDBRANCH   5   8
ENDBRANCH   1   2
BRANCH   1  17
ATOM     17  C   UNL     1      48.236   7.795  13.958  0.00  0.00    +0.000 C 
BRANCH  17  18
ATOM     18  C   UNL     1      49.729   8.017  14.064  0.00  0.00    +0.000 A 
ATOM     19  C   UNL     1      50.500   7.521  15.104  0.00  0.00    +0.000 A 
ATOM     20  S   UNL     1      52.137   8.005  15.019  0.00  0.00    +0.000 S 
ATOM     21  C   UNL     1      51.866   8.882  13.585  0.00  0.00    +0.000 A 
ATOM     22  N   UNL     1      52.861   9.593  12.991  0.00  0.00    +0.000 NA
ATOM     23  C   UNL     1      52.502  10.216  11.919  0.00  0.00    +0.000 A 
ATOM     24  N   UNL     1      51.243  10.174  11.370  0.00  0.00    +0.000 N 
ATOM     25  C   UNL     1      50.229   9.405  11.890  0.00  0.00    +0.000 A 
ATOM     26  O   UNL     1      49.160   9.275  11.299  0.00  0.00    +0.000 OA
ATOM     27  C   UNL     1      50.560   8.762  13.149  0.00  0.00    +0.000 A 
ATOM     28  H   UNL     1      51.041  10.648  10.503  0.00  0.00    +0.000 HD
ENDBRANCH  17  18
BRANCH  17  29
ATOM     29  N   UNL     1      47.579   8.663  14.932  0.00  0.00    +0.000 NA
ATOM     30  H   UNL     1      46.773   8.191  15.334  0.00  0.00    +0.000 HD
ATOM     31  H   UNL     1      47.234   9.500  14.452  0.00  0.00    +0.000 HD
ENDBRANCH  17  29
ENDBRANCH   1  17
TORSDOF 7
ENDMDL
MODEL 7
REMARK VINA RESULT:    -7.092      2.225      2.849
REMARK INTER + INTRA:         -10.851
REMARK INTER:                 -10.119
REMARK INTRA:                  -0.731
REMARK UNBOUND:                -1.064
REMARK  Name = 
REMARK  7 active torsions:
REMARK  status: ('A' for Active; 'I' for Inactive)
REMARK    1  A    between atoms: N_1  and  C_2
REMARK    2  A    between atoms: C_2  and  C_3
REMARK    3  A    between atoms: C_2  and  C_19
REMARK    4  A    between atoms: C_3  and  C_4
REMARK    5  A    between atoms: C_7  and  C_8
REMARK    6  A    between atoms: C_8  and  C_9
REMARK    7  A    between atoms: C_9  and  C_10
REMARK                            x       y       z     vdW  Elec       q    Type
REMARK                         _______ _______ _______ _____ _____    ______ ____
ROOT
ATOM      1  C   UNL     1      48.851   6.730  13.307  0.00  0.00    +0.000 C 
ENDROOT
BRANCH   1   2
ATOM      2  C   UNL     1      47.395   6.335  13.240  0.00  0.00    +0.000 A 
ATOM      3  C   UNL     1      46.972   5.102  13.744  0.00  0.00    +0.000 A 
ATOM      4  C   UNL     1      45.639   4.715  13.635  0.00  0.00    +0.000 A 
ATOM      5  C   UNL     1      44.688   5.567  13.054  0.00  0.00    +0.000 A 
ATOM      6  C   UNL     1      45.108   6.811  12.568  0.00  0.00    +0.000 A 
ATOM      7  C   UNL     1      46.449   7.190  12.659  0.00  0.00    +0.000 A 
BRANCH   5   8
ATOM      8  C   UNL     1      43.248   5.133  12.921  0.00  0.00    +0.000 C 
BRANCH   8   9
ATOM      9  C   UNL     1      42.894   4.757  11.484  0.00  0.00    +0.000 C 
BRANCH   9  10
ATOM     10  C   UNL     1      43.408   3.385  11.101  0.00  0.00    +0.000 C 
ATOM     11  O   UNL     1      42.989   2.356  11.629  0.00  0.00    +0.000 OA
ATOM     12  N   UNL     1      44.354   3.360  10.097  0.00  0.00    +0.000 N 
ATOM     13  C   UNL     1      44.980   4.492   9.436  0.00  0.00    +0.000 C 
ATOM     14  C   UNL     1      45.326   3.942   8.065  0.00  0.00    +0.000 C 
ATOM     15  C   UNL     1      45.697   2.491   8.353  0.00  0.00    +0.000 C 
ATOM     16  C   UNL     1      44.836   2.105   9.554  0.00  0.00    +0.000 C 
ENDBRANCH   9  10
ENDBRANCH   8   9
ENDBRANCH   5   8
ENDBRANCH   1   2
BRANCH   1  17
ATOM     17  C   UNL     1      49.176   7.811  14.372  0.00  0.00    +0.000 C 
BRANCH  17  18
ATOM     18  C   UNL     1      50.423   7.474  15.162  0.00  0.00    +0.000 A 
ATOM     19  C   UNL     1      51.637   8.115  14.974  0.00  0.00    +0.000 A 
ATOM     20  S   UNL     1      52.895   7.468  15.933  0.00  0.00    +0.000 S 
ATOM     21  C   UNL     1      51.852   6.320  16.635  0.00  0.00    +0.000 A 
ATOM     22  N   UNL     1      52.307   5.401  17.527  0.00  0.00    +0.000 NA
ATOM     23  C   UNL     1      51.402   4.590  17.963  0.00  0.00    +0.000 A 
ATOM     24  N   UNL     1      50.075   4.629  17.609  0.00  0.00    +0.000 N 
ATOM     25  C   UNL     1      49.555   5.590  16.774  0.00  0.00    +0.000 A 
ATOM     26  O   UNL     1      48.345   5.687  16.590  0.00  0.00    +0.000 OA
ATOM     27  C   UNL     1      50.553   6.465  16.186  0.00  0.00    +0.000 A 
ATOM     28  H   UNL     1      49.411   3.994  18.023  0.00  0.00    +0.000 HD
ENDBRANCH  17  18
BRANCH  17  29
ATOM     29  N   UNL     1      48.093   8.059  15.321  0.00  0.00    +0.000 NA
ATOM     30  H   UNL     1      47.888   9.054  15.365  0.00  0.00    +0.000 HD
ATOM     31  H   UNL     1      48.396   7.768  16.255  0.00  0.00    +0.000 HD
ENDBRANCH  17  29
ENDBRANCH   1  17
TORSDOF 7
ENDMDL
MODEL 8
REMARK VINA RESULT:    -7.064      3.364      8.356
REMARK INTER + INTRA:         -10.812
REMARK INTER:                 -10.233
REMARK INTRA:                  -0.579
REMARK UNBOUND:                -1.064
REMARK  Name = 
REMARK  7 active torsions:
REMARK  status: ('A' for Active; 'I' for Inactive)
REMARK    1  A    between atoms: N_1  and  C_2
REMARK    2  A    between atoms: C_2  and  C_3
REMARK    3  A    between atoms: C_2  and  C_19
REMARK    4  A    between atoms: C_3  and  C_4
REMARK    5  A    between atoms: C_7  and  C_8
REMARK    6  A    between atoms: C_8  and  C_9
REMARK    7  A    between atoms: C_9  and  C_10
REMARK                            x       y       z     vdW  Elec       q    Type
REMARK                         _______ _______ _______ _____ _____    ______ ____
ROOT
ATOM      1  C   UNL     1      46.753   6.292  12.163  0.00  0.00    +0.000 C 
ENDROOT
BRANCH   1   2
ATOM      2  C   UNL     1      47.249   5.886  13.531  0.00  0.00    +0.000 A 
ATOM      3  C   UNL     1      46.757   4.732  14.148  0.00  0.00    +0.000 A 
ATOM      4  C   UNL     1      47.174   4.386  15.431  0.00  0.00    +0.000 A 
ATOM      5  C   UNL     1      48.120   5.165  16.114  0.00  0.00    +0.000 A 
ATOM      6  C   UNL     1      48.627   6.309  15.487  0.00  0.00    +0.000 A 
ATOM      7  C   UNL     1      48.194   6.667  14.209  0.00  0.00    +0.000 A 
BRANCH   5   8
ATOM      8  C   UNL     1      48.552   4.795  17.513  0.00  0.00    +0.000 C 
BRANCH   8   9
ATOM      9  C   UNL     1      50.038   4.449  17.580  0.00  0.00    +0.000 C 
BRANCH   9  10
ATOM     10  C   UNL     1      50.303   2.978  17.335  0.00  0.00    +0.000 C 
ATOM     11  O   UNL     1      49.475   2.243  16.799  0.00  0.00    +0.000 OA
ATOM     12  N   UNL     1      51.545   2.522  17.723  0.00  0.00    +0.000 N 
ATOM     13  C   UNL     1      52.587   3.258  18.419  0.00  0.00    +0.000 C 
ATOM     14  C   UNL     1      53.859   2.572  17.959  0.00  0.00    +0.000 C 
ATOM     15  C   UNL     1      53.442   1.111  17.829  0.00  0.00    +0.000 C 
ATOM     16  C   UNL     1      51.968   1.165  17.433  0.00  0.00    +0.000 C 
ENDBRANCH   9  10
ENDBRANCH   8   9
ENDBRANCH   5   8
ENDBRANCH   1   2
BRANCH   1  17
ATOM     17  C   UNL     1      45.208   6.340  12.028  0.00  0.00    +0.000 C 
BRANCH  17  18
ATOM     18  C   UNL     1      44.631   5.001  11.620  0.00  0.00    +0.000 A 
ATOM     19  C   UNL     1      43.786   4.259  12.430  0.00  0.00    +0.000 A 
ATOM     20  S   UNL     1      43.365   2.747  11.756  0.00  0.00    +0.000 S 
ATOM     21  C   UNL     1      44.290   3.043  10.358  0.00  0.00    +0.000 A 
ATOM     22  N   UNL     1      44.405   2.112   9.373  0.00  0.00    +0.000 NA
ATOM     23  C   UNL     1      45.148   2.476   8.382  0.00  0.00    +0.000 A 
ATOM     24  N   UNL     1      45.770   3.697   8.272  0.00  0.00    +0.000 N 
ATOM     25  C   UNL     1      45.617   4.696   9.204  0.00  0.00    +0.000 A 
ATOM     26  O   UNL     1      46.066   5.823   9.008  0.00  0.00    +0.000 OA
ATOM     27  C   UNL     1      44.866   4.299  10.381  0.00  0.00    +0.000 A 
ATOM     28  H   UNL     1      46.300   3.934   7.449  0.00  0.00    +0.000 HD
ENDBRANCH  17  18
BRANCH  17  29
ATOM     29  N   UNL     1      44.721   7.348  11.089  0.00  0.00    +0.000 NA
ATOM     30  H   UNL     1      45.194   7.250  10.194  0.00  0.00    +0.000 HD
ATOM     31  H   UNL     1      44.946   8.278  11.454  0.00  0.00    +0.000 HD
ENDBRANCH  17  29
ENDBRANCH   1  17
TORSDOF 7
ENDMDL
MODEL 9
REMARK VINA RESULT:    -6.590      2.468      3.180
REMARK INTER + INTRA:         -10.158
REMARK INTER:                  -9.320
REMARK INTRA:                  -0.839
REMARK UNBOUND:                -1.064
REMARK  Name = 
REMARK  7 active torsions:
REMARK  status: ('A' for Active; 'I' for Inactive)
REMARK    1  A    between atoms: N_1  and  C_2
REMARK    2  A    between atoms: C_2  and  C_3
REMARK    3  A    between atoms: C_2  and  C_19
REMARK    4  A    between atoms: C_3  and  C_4
REMARK    5  A    between atoms: C_7  and  C_8
REMARK    6  A    between atoms: C_8  and  C_9
REMARK    7  A    between atoms: C_9  and  C_10
REMARK                            x       y       z     vdW  Elec       q    Type
REMARK                         _______ _______ _______ _____ _____    ______ ____
ROOT
ATOM      1  C   UNL     1      48.155   5.968  14.689  0.00  0.00    +0.000 C 
ENDROOT
BRANCH   1   2
ATOM      2  C   UNL     1      47.079   5.700  13.663  0.00  0.00    +0.000 A 
ATOM      3  C   UNL     1      46.387   4.486  13.665  0.00  0.00    +0.000 A 
ATOM      4  C   UNL     1      45.432   4.217  12.687  0.00  0.00    +0.000 A 
ATOM      5  C   UNL     1      45.120   5.170  11.706  0.00  0.00    +0.000 A 
ATOM      6  C   UNL     1      45.799   6.394  11.718  0.00  0.00    +0.000 A 
ATOM      7  C   UNL     1      46.771   6.655  12.686  0.00  0.00    +0.000 A 
BRANCH   5   8
ATOM      8  C   UNL     1      44.098   4.864  10.637  0.00  0.00    +0.000 C 
BRANCH   8   9
ATOM      9  C   UNL     1      44.752   4.545   9.295  0.00  0.00    +0.000 C 
BRANCH   9  10
ATOM     10  C   UNL     1      45.125   3.083   9.165  0.00  0.00    +0.000 C 
ATOM     11  O   UNL     1      44.636   2.214   9.886  0.00  0.00    +0.000 OA
ATOM     12  N   UNL     1      46.025   2.782   8.164  0.00  0.00    +0.000 N 
ATOM     13  C   UNL     1      46.724   3.706   7.288  0.00  0.00    +0.000 C 
ATOM     14  C   UNL     1      46.965   2.882   6.038  0.00  0.00    +0.000 C 
ATOM     15  C   UNL     1      47.214   1.480   6.586  0.00  0.00    +0.000 C 
ATOM     16  C   UNL     1      46.370   1.408   7.856  0.00  0.00    +0.000 C 
ENDBRANCH   9  10
ENDBRANCH   8   9
ENDBRANCH   5   8
ENDBRANCH   1   2
BRANCH   1  17
ATOM     17  C   UNL     1      48.477   7.471  14.905  0.00  0.00    +0.000 C 
BRANCH  17  18
ATOM     18  C   UNL     1      49.951   7.767  14.734  0.00  0.00    +0.000 A 
ATOM     19  C   UNL     1      50.450   8.601  13.745  0.00  0.00    +0.000 A 
ATOM     20  S   UNL     1      52.157   8.679  13.727  0.00  0.00    +0.000 S 
ATOM     21  C   UNL     1      52.280   7.609  15.047  0.00  0.00    +0.000 A 
ATOM     22  N   UNL     1      53.488   7.206  15.521  0.00  0.00    +0.000 NA
ATOM     23  C   UNL     1      53.421   6.385  16.516  0.00  0.00    +0.000 A 
ATOM     24  N   UNL     1      52.255   5.949  17.098  0.00  0.00    +0.000 N 
ATOM     25  C   UNL     1      51.015   6.392  16.704  0.00  0.00    +0.000 A 
ATOM     26  O   UNL     1      50.003   6.097  17.334  0.00  0.00    +0.000 OA
ATOM     27  C   UNL     1      51.037   7.243  15.528  0.00  0.00    +0.000 A 
ATOM     28  H   UNL     1      52.275   5.343  17.903  0.00  0.00    +0.000 HD
ENDBRANCH  17  18
BRANCH  17  29
ATOM     29  N   UNL     1      48.058   7.992  16.203  0.00  0.00    +0.000 NA
ATOM     30  H   UNL     1      47.710   8.942  16.103  0.00  0.00    +0.000 HD
ATOM     31  H   UNL     1      48.870   8.027  16.825  0.00  0.00    +0.000 HD
ENDBRANCH  17  29
ENDBRANCH   1  17
TORSDOF 7
ENDMDL
