MODEL 1
REMARK VINA RESULT:    -8.746      0.000      0.000
REMARK INTER + INTRA:         -12.104
REMARK INTER:                 -11.303
REMARK INTRA:                  -0.802
REMARK UNBOUND:                -0.802
REMARK  Name = 
REMARK  5 active torsions:
REMARK  status: ('A' for Active; 'I' for Inactive)
REMARK    1  A    between atoms: C_2  and  C_4
REMARK    2  A    between atoms: C_7  and  N_8
REMARK    3  A    between atoms: N_8  and  C_9
REMARK    4  A    between atoms: C_9  and  C_10
REMARK    5  A    between atoms: C_14  and  C_15
REMARK                            x       y       z     vdW  Elec       q    Type
REMARK                         _______ _______ _______ _____ _____    ______ ____
ROOT
ATOM      1  C   UNL     1      43.592   4.389  11.243  0.00  0.00    +0.000 C 
ENDROOT
BRANCH   1   2
ATOM      2  C   UNL     1      44.808   4.801  12.051  0.00  0.00    +0.000 A 
ATOM      3  C   UNL     1      45.488   3.870  12.846  0.00  0.00    +0.000 A 
ATOM      4  C   UNL     1      46.636   4.240  13.542  0.00  0.00    +0.000 A 
ATOM      5  C   UNL     1      47.139   5.537  13.425  0.00  0.00    +0.000 A 
ATOM      6  C   UNL     1      46.520   6.493  12.598  0.00  0.00    +0.000 A 
ATOM      7  C   UNL     1      45.331   6.103  11.945  0.00  0.00    +0.000 A 
BRANCH   6   8
ATOM      8  C   UNL     1      47.145   7.814  12.333  0.00  0.00    +0.000 A 
ATOM      9  C   UNL     1      48.490   7.907  11.916  0.00  0.00    +0.000 A 
ATOM     10  C   UNL     1      49.067   9.127  11.544  0.00  0.00    +0.000 A 
ATOM     11  C   UNL     1      48.307  10.289  11.578  0.00  0.00    +0.000 A 
ATOM     12  C   UNL     1      46.990  10.222  12.011  0.00  0.00    +0.000 A 
ATOM     13  F   UNL     1      46.250  11.339  12.037  0.00  0.00    +0.000 F 
ATOM     14  C   UNL     1      46.414   9.012  12.397  0.00  0.00    +0.000 A 
ENDBRANCH   6   8
ENDBRANCH   1   2
BRANCH   1  15
ATOM     15  N   UNL     1      43.773   4.779   9.850  0.00  0.00    +0.000 N 
ATOM     16  H   UNL     1      44.039   5.757   9.774  0.00  0.00    +0.000 HD
BRANCH  15  20
ATOM     17  C   UNL     1      46.358   2.305   7.814  0.00  0.00    +0.000 A 
ATOM     18  C   UNL     1      46.387   3.675   7.607  0.00  0.00    +0.000 A 
ATOM     19  N   UNL     1      45.547   4.533   8.252  0.00  0.00    +0.000 NA
ATOM     20  C   UNL     1      44.664   3.983   9.114  0.00  0.00    +0.000 A 
ATOM     21  C   UNL     1      44.667   2.594   9.317  0.00  0.00    +0.000 A 
ATOM     22  N   UNL     1      45.490   1.720   8.681  0.00  0.00    +0.000 NA
BRANCH  17  24
ATOM     23  N   UNL     1      48.407   2.019   6.557  0.00  0.00    +0.000 N 
ATOM     24  C   UNL     1      47.296   1.414   7.069  0.00  0.00    +0.000 C 
ATOM     25  O   UNL     1      47.083   0.217   6.928  0.00  0.00    +0.000 OA
ATOM     26  H   UNL     1      49.086   1.466   6.046  0.00  0.00    +0.000 HD
ATOM     27  H   UNL     1      48.565   3.011   6.700  0.00  0.00    +0.000 HD
ENDBRANCH  17  24
ENDBRANCH  15  20
ENDBRANCH   1  15
TORSDOF 5
ENDMDL
MODEL 2
REMARK VINA RESULT:    -8.654      2.678      3.992
REMARK INTER + INTRA:         -11.985
REMARK INTER:                 -11.267
REMARK INTRA:                  -0.718
REMARK UNBOUND:                -0.802
REMARK  Name = 
REMARK  5 active torsions:
REMARK  status: ('A' for Active; 'I' for Inactive)
REMARK    1  A    between atoms: C_2  and  C_4
REMARK    2  A    between atoms: C_7  and  N_8
REMARK    3  A    between atoms: N_8  and  C_9
REMARK    4  A    between atoms: C_9  and  C_10
REMARK    5  A    between atoms: C_14  and  C_15
REMARK                            x       y       z     vdW  Elec       q    Type
REMARK                         _______ _______ _______ _____ _____    ______ ____
ROOT
ATOM      1  C   UNL     1      43.922   4.593  11.384  0.00  0.00    +0.000 C 
ENDROOT
BRANCH   1   2
ATOM      2  C   UNL     1      45.135   5.325  11.927  0.00  0.00    +0.000 A 
ATOM      3  C   UNL     1      45.549   6.539  11.365  0.00  0.00    +0.000 A 
ATOM      4  C   UNL     1      46.630   7.235  11.902  0.00  0.00    +0.000 A 
ATOM      5  C   UNL     1      47.289   6.742  13.031  0.00  0.00    +0.000 A 
ATOM      6  C   UNL     1      46.876   5.554  13.661  0.00  0.00    +0.000 A 
ATOM      7  C   UNL     1      45.812   4.846  13.065  0.00  0.00    +0.000 A 
BRANCH   6   8
ATOM      8  C   UNL     1      47.458   5.119  14.957  0.00  0.00    +0.000 A 
ATOM      9  C   UNL     1      48.419   5.911  15.621  0.00  0.00    +0.000 A 
ATOM     10  C   UNL     1      48.892   5.586  16.897  0.00  0.00    +0.000 A 
ATOM     11  C   UNL     1      48.410   4.456  17.546  0.00  0.00    +0.000 A 
ATOM     12  C   UNL     1      47.484   3.650  16.898  0.00  0.00    +0.000 A 
ATOM     13  F   UNL     1      47.009   2.564  17.523  0.00  0.00    +0.000 F 
ATOM     14  C   UNL     1      47.020   3.961  15.621  0.00  0.00    +0.000 A 
ENDBRANCH   6   8
ENDBRANCH   1   2
BRANCH   1  15
ATOM     15  N   UNL     1      43.839   4.781   9.941  0.00  0.00    +0.000 N 
ATOM     16  H   UNL     1      43.953   5.760   9.692  0.00  0.00    +0.000 HD
BRANCH  15  20
ATOM     17  C   UNL     1      46.381   2.322   7.836  0.00  0.00    +0.000 A 
ATOM     18  C   UNL     1      46.385   3.690   7.615  0.00  0.00    +0.000 A 
ATOM     19  N   UNL     1      45.557   4.543   8.282  0.00  0.00    +0.000 NA
ATOM     20  C   UNL     1      44.714   3.990   9.181  0.00  0.00    +0.000 A 
ATOM     21  C   UNL     1      44.742   2.603   9.397  0.00  0.00    +0.000 A 
ATOM     22  N   UNL     1      45.553   1.734   8.738  0.00  0.00    +0.000 NA
BRANCH  17  24
ATOM     23  N   UNL     1      48.363   2.057   6.470  0.00  0.00    +0.000 N 
ATOM     24  C   UNL     1      47.303   1.436   7.065  0.00  0.00    +0.000 C 
ATOM     25  O   UNL     1      47.122   0.229   6.974  0.00  0.00    +0.000 OA
ATOM     26  H   UNL     1      49.028   1.508   5.938  0.00  0.00    +0.000 HD
ATOM     27  H   UNL     1      48.496   3.057   6.573  0.00  0.00    +0.000 HD
ENDBRANCH  17  24
ENDBRANCH  15  20
ENDBRANCH   1  15
TORSDOF 5
ENDMDL
MODEL 3
REMARK VINA RESULT:    -8.401      2.331      3.810
REMARK INTER + INTRA:         -11.659
REMARK INTER:                 -10.929
REMARK INTRA:                  -0.730
REMARK UNBOUND:                -0.802
REMARK  Name = 
REMARK  5 active torsions:
REMARK  status: ('A' for Active; 'I' for Inactive)
REMARK    1  A    between atoms: C_2  and  C_4
REMARK    2  A    between atoms: C_7  and  N_8
REMARK    3  A    between atoms: N_8  and  C_9
REMARK    4  A    between atoms: C_9  and  C_10
REMARK    5  A    between atoms: C_14  and  C_15
REMARK                            x       y       z     vdW  Elec       q    Type
REMARK                         _______ _______ _______ _____ _____    ______ ____
ROOT
ATOM      1  C   UNL     1      43.900   4.641  11.338  0.00  0.00    +0.000 C 
ENDROOT
BRANCH   1   2
ATOM      2  C   UNL     1      45.119   5.353  11.895  0.00  0.00    +0.000 A 
ATOM      3  C   UNL     1      45.549   6.568  11.348  0.00  0.00    +0.000 A 
ATOM      4  C   UNL     1      46.634   7.246  11.899  0.00  0.00    +0.000 A 
ATOM      5  C   UNL     1      47.284   6.732  13.024  0.00  0.00    +0.000 A 
ATOM      6  C   UNL     1      46.855   5.541  13.638  0.00  0.00    +0.000 A 
ATOM      7  C   UNL     1      45.785   4.853  13.029  0.00  0.00    +0.000 A 
BRANCH   6   8
ATOM      8  C   UNL     1      47.426   5.085  14.931  0.00  0.00    +0.000 A 
ATOM      9  C   UNL     1      47.220   3.766  15.388  0.00  0.00    +0.000 A 
ATOM     10  C   UNL     1      47.846   3.275  16.539  0.00  0.00    +0.000 A 
ATOM     11  C   UNL     1      48.700   4.095  17.265  0.00  0.00    +0.000 A 
ATOM     12  C   UNL     1      48.895   5.404  16.846  0.00  0.00    +0.000 A 
ATOM     13  F   UNL     1      49.726   6.197  17.537  0.00  0.00    +0.000 F 
ATOM     14  C   UNL     1      48.264   5.904  15.707  0.00  0.00    +0.000 A 
ENDBRANCH   6   8
ENDBRANCH   1   2
BRANCH   1  15
ATOM     15  N   UNL     1      43.850   4.810   9.891  0.00  0.00    +0.000 N 
ATOM     16  H   UNL     1      44.000   5.780   9.630  0.00  0.00    +0.000 HD
BRANCH  15  20
ATOM     17  C   UNL     1      46.357   2.241   7.877  0.00  0.00    +0.000 A 
ATOM     18  C   UNL     1      46.349   3.594   7.577  0.00  0.00    +0.000 A 
ATOM     19  N   UNL     1      45.532   4.481   8.211  0.00  0.00    +0.000 NA
ATOM     20  C   UNL     1      44.712   3.978   9.159  0.00  0.00    +0.000 A 
ATOM     21  C   UNL     1      44.752   2.607   9.455  0.00  0.00    +0.000 A 
ATOM     22  N   UNL     1      45.552   1.704   8.831  0.00  0.00    +0.000 NA
BRANCH  17  24
ATOM     23  N   UNL     1      48.330   1.901   6.514  0.00  0.00    +0.000 N 
ATOM     24  C   UNL     1      47.267   1.315   7.139  0.00  0.00    +0.000 C 
ATOM     25  O   UNL     1      47.073   0.107   7.098  0.00  0.00    +0.000 OA
ATOM     26  H   UNL     1      48.987   1.324   6.002  0.00  0.00    +0.000 HD
ATOM     27  H   UNL     1      48.473   2.903   6.576  0.00  0.00    +0.000 HD
ENDBRANCH  17  24
ENDBRANCH  15  20
ENDBRANCH   1  15
TORSDOF 5
ENDMDL
MODEL 4
REMARK VINA RESULT:    -8.218      4.575      7.362
REMARK INTER + INTRA:         -11.421
REMARK INTER:                 -11.131
REMARK INTRA:                  -0.291
REMARK UNBOUND:                -0.802
REMARK  Name = 
REMARK  5 active torsions:
REMARK  status: ('A' for Active; 'I' for Inactive)
REMARK    1  A    between atoms: C_2  and  C_4
REMARK    2  A    between atoms: C_7  and  N_8
REMARK    3  A    between atoms: N_8  and  C_9
REMARK    4  A    between atoms: C_9  and  C_10
REMARK    5  A    between atoms: C_14  and  C_15
REMARK                            x       y       z     vdW  Elec       q    Type
REMARK                         _______ _______ _______ _____ _____    ______ ____
ROOT
ATOM      1  C   UNL     1      46.145   7.085  12.186  0.00  0.00    +0.000 C 
ENDROOT
BRANCH   1   2
ATOM      2  C   UNL     1      45.256   6.084  11.472  0.00  0.00    +0.000 A 
ATOM      3  C   UNL     1      43.867   6.111  11.645  0.00  0.00    +0.000 A 
ATOM      4  C   UNL     1      43.051   5.226  10.944  0.00  0.00    +0.000 A 
ATOM      5  C   UNL     1      43.611   4.325  10.035  0.00  0.00    +0.000 A 
ATOM      6  C   UNL     1      44.997   4.297   9.790  0.00  0.00    +0.000 A 
ATOM      7  C   UNL     1      45.802   5.171  10.551  0.00  0.00    +0.000 A 
BRANCH   6   8
ATOM      8  C   UNL     1      45.577   3.468   8.703  0.00  0.00    +0.000 A 
ATOM      9  C   UNL     1      46.154   4.069   7.564  0.00  0.00    +0.000 A 
ATOM     10  C   UNL     1      46.814   3.318   6.585  0.00  0.00    +0.000 A 
ATOM     11  C   UNL     1      46.915   1.939   6.723  0.00  0.00    +0.000 A 
ATOM     12  C   UNL     1      46.330   1.327   7.823  0.00  0.00    +0.000 A 
ATOM     13  F   UNL     1      46.432  -0.002   7.966  0.00  0.00    +0.000 F 
ATOM     14  C   UNL     1      45.659   2.068   8.795  0.00  0.00    +0.000 A 
ENDBRANCH   6   8
ENDBRANCH   1   2
BRANCH   1  15
ATOM     15  N   UNL     1      47.441   6.479  12.466  0.00  0.00    +0.000 N 
ATOM     16  H   UNL     1      48.183   7.175  12.448  0.00  0.00    +0.000 HD
BRANCH  15  20
ATOM     17  C   UNL     1      47.504   4.195  15.889  0.00  0.00    +0.000 A 
ATOM     18  C   UNL     1      48.173   5.407  15.842  0.00  0.00    +0.000 A 
ATOM     19  N   UNL     1      48.187   6.194  14.729  0.00  0.00    +0.000 NA
ATOM     20  C   UNL     1      47.513   5.734  13.653  0.00  0.00    +0.000 A 
ATOM     21  C   UNL     1      46.831   4.511  13.733  0.00  0.00    +0.000 A 
ATOM     22  N   UNL     1      46.809   3.706  14.828  0.00  0.00    +0.000 NA
BRANCH  17  24
ATOM     23  N   UNL     1      48.757   3.234  17.725  0.00  0.00    +0.000 N 
ATOM     24  C   UNL     1      47.535   3.369  17.133  0.00  0.00    +0.000 C 
ATOM     25  O   UNL     1      46.528   2.849  17.594  0.00  0.00    +0.000 OA
ATOM     26  H   UNL     1      48.842   2.691  18.576  0.00  0.00    +0.000 HD
ATOM     27  H   UNL     1      49.573   3.688  17.328  0.00  0.00    +0.000 HD
ENDBRANCH  17  24
ENDBRANCH  15  20
ENDBRANCH   1  15
TORSDOF 5
ENDMDL
MODEL 5
REMARK VINA RESULT:    -8.026      5.611      8.385
REMARK INTER + INTRA:         -11.174
REMARK INTER:                 -10.600
REMARK INTRA:                  -0.574
REMARK UNBOUND:                -0.802
REMARK  Name = 
REMARK  5 active torsions:
REMARK  status: ('A' for Active; 'I' for Inactive)
REMARK    1  A    between atoms: C_2  and  C_4
REMARK    2  A    between atoms: C_7  and  N_8
REMARK    3  A    between atoms: N_8  and  C_9
REMARK    4  A    between atoms: C_9  and  C_10
REMARK    5  A    between atoms: C_14  and  C_15
REMARK                            x       y       z     vdW  Elec       q    Type
REMARK                         _______ _______ _______ _____ _____    ______ ____
ROOT
ATOM      1  C   UNL     1      46.004   5.294  13.888  0.00  0.00    +0.000 C 
ENDROOT
BRANCH   1   2
ATOM      2  C   UNL     1      45.070   4.941  12.745  0.00  0.00    +0.000 A 
ATOM      3  C   UNL     1      43.748   5.401  12.734  0.00  0.00    +0.000 A 
ATOM      4  C   UNL     1      42.912   5.120  11.656  0.00  0.00    +0.000 A 
ATOM      5  C   UNL     1      43.398   4.405  10.559  0.00  0.00    +0.000 A 
ATOM      6  C   UNL     1      44.734   3.967  10.503  0.00  0.00    +0.000 A 
ATOM      7  C   UNL     1      45.542   4.223  11.630  0.00  0.00    +0.000 A 
BRANCH   6   8
ATOM      8  C   UNL     1      45.303   3.363   9.270  0.00  0.00    +0.000 A 
ATOM      9  C   UNL     1      45.761   4.175   8.211  0.00  0.00    +0.000 A 
ATOM     10  C   UNL     1      46.410   3.638   7.094  0.00  0.00    +0.000 A 
ATOM     11  C   UNL     1      46.621   2.267   7.010  0.00  0.00    +0.000 A 
ATOM     12  C   UNL     1      46.154   1.450   8.029  0.00  0.00    +0.000 A 
ATOM     13  F   UNL     1      46.363   0.128   7.958  0.00  0.00    +0.000 F 
ATOM     14  C   UNL     1      45.494   1.977   9.139  0.00  0.00    +0.000 A 
ENDBRANCH   6   8
ENDBRANCH   1   2
BRANCH   1  15
ATOM     15  N   UNL     1      46.584   4.077  14.443  0.00  0.00    +0.000 N 
ATOM     16  H   UNL     1      47.271   3.677  13.810  0.00  0.00    +0.000 HD
BRANCH  15  20
ATOM     17  C   UNL     1      48.336   4.556  18.137  0.00  0.00    +0.000 A 
ATOM     18  C   UNL     1      47.405   3.551  17.926  0.00  0.00    +0.000 A 
ATOM     19  N   UNL     1      46.793   3.359  16.724  0.00  0.00    +0.000 NA
ATOM     20  C   UNL     1      47.134   4.205  15.728  0.00  0.00    +0.000 A 
ATOM     21  C   UNL     1      48.092   5.203  15.964  0.00  0.00    +0.000 A 
ATOM     22  N   UNL     1      48.708   5.419  17.155  0.00  0.00    +0.000 NA
BRANCH  17  24
ATOM     23  N   UNL     1      48.613   3.801  20.421  0.00  0.00    +0.000 N 
ATOM     24  C   UNL     1      48.964   4.726  19.481  0.00  0.00    +0.000 C 
ATOM     25  O   UNL     1      49.746   5.635  19.724  0.00  0.00    +0.000 OA
ATOM     26  H   UNL     1      49.011   3.858  21.351  0.00  0.00    +0.000 HD
ATOM     27  H   UNL     1      47.972   3.049  20.188  0.00  0.00    +0.000 HD
ENDBRANCH  17  24
ENDBRANCH  15  20
ENDBRANCH   1  15
TORSDOF 5
ENDMDL
MODEL 6
REMARK VINA RESULT:    -8.016      1.784      2.081
REMARK INTER + INTRA:         -11.160
REMARK INTER:                 -10.416
REMARK INTRA:                  -0.744
REMARK UNBOUND:                -0.802
REMARK  Name = 
REMARK  5 active torsions:
REMARK  status: ('A' for Active; 'I' for Inactive)
REMARK    1  A    between atoms: C_2  and  C_4
REMARK    2  A    between atoms: C_7  and  N_8
REMARK    3  A    between atoms: N_8  and  C_9
REMARK    4  A    between atoms: C_9  and  C_10
REMARK    5  A    between atoms: C_14  and  C_15
REMARK                            x       y       z     vdW  Elec       q    Type
REMARK                         _______ _______ _______ _____ _____    ______ ____
ROOT
ATOM      1  C   UNL     1      44.283   5.869  10.621  0.00  0.00    +0.000 C 
ENDROOT
BRANCH   1   2
ATOM      2  C   UNL     1      45.288   5.648  11.736  0.00  0.00    +0.000 A 
ATOM      3  C   UNL     1      45.179   4.542  12.589  0.00  0.00    +0.000 A 
ATOM      4  C   UNL     1      46.136   4.313  13.575  0.00  0.00    +0.000 A 
ATOM      5  C   UNL     1      47.233   5.169  13.699  0.00  0.00    +0.000 A 
ATOM      6  C   UNL     1      47.412   6.262  12.832  0.00  0.00    +0.000 A 
ATOM      7  C   UNL     1      46.402   6.497  11.876  0.00  0.00    +0.000 A 
BRANCH   6   8
ATOM      8  C   UNL     1      48.660   7.068  12.845  0.00  0.00    +0.000 A 
ATOM      9  C   UNL     1      49.296   7.398  14.061  0.00  0.00    +0.000 A 
ATOM     10  C   UNL     1      50.534   8.050  14.097  0.00  0.00    +0.000 A 
ATOM     11  C   UNL     1      51.171   8.387  12.909  0.00  0.00    +0.000 A 
ATOM     12  C   UNL     1      50.549   8.095  11.703  0.00  0.00    +0.000 A 
ATOM     13  F   UNL     1      51.164   8.410  10.555  0.00  0.00    +0.000 F 
ATOM     14  C   UNL     1      49.309   7.458  11.662  0.00  0.00    +0.000 A 
ENDBRANCH   6   8
ENDBRANCH   1   2
BRANCH   1  15
ATOM     15  N   UNL     1      43.825   4.584  10.110  0.00  0.00    +0.000 N 
ATOM     16  H   UNL     1      42.922   4.672   9.652  0.00  0.00    +0.000 HD
BRANCH  15  20
ATOM     17  C   UNL     1      46.465   2.482   7.753  0.00  0.00    +0.000 A 
ATOM     18  C   UNL     1      46.322   3.852   7.598  0.00  0.00    +0.000 A 
ATOM     19  N   UNL     1      45.456   4.588   8.349  0.00  0.00    +0.000 NA
ATOM     20  C   UNL     1      44.726   3.916   9.266  0.00  0.00    +0.000 A 
ATOM     21  C   UNL     1      44.903   2.532   9.414  0.00  0.00    +0.000 A 
ATOM     22  N   UNL     1      45.754   1.777   8.672  0.00  0.00    +0.000 NA
BRANCH  17  24
ATOM     23  N   UNL     1      48.502   2.431   6.445  0.00  0.00    +0.000 N 
ATOM     24  C   UNL     1      47.422   1.726   6.892  0.00  0.00    +0.000 C 
ATOM     25  O   UNL     1      47.250   0.549   6.606  0.00  0.00    +0.000 OA
ATOM     26  H   UNL     1      49.191   1.971   5.862  0.00  0.00    +0.000 HD
ATOM     27  H   UNL     1      48.626   3.403   6.709  0.00  0.00    +0.000 HD
ENDBRANCH  17  24
ENDBRANCH  15  20
ENDBRANCH   1  15
TORSDOF 5
ENDMDL
MODEL 7
REMARK VINA RESULT:    -7.979      4.364      7.016
REMARK INTER + INTRA:         -11.112
REMARK INTER:                 -10.317
REMARK INTRA:                  -0.795
REMARK UNBOUND:                -0.802
REMARK  Name = 
REMARK  5 active torsions:
REMARK  status: ('A' for Active; 'I' for Inactive)
REMARK    1  A    between atoms: C_2  and  C_4
REMARK    2  A    between atoms: C_7  and  N_8
REMARK    3  A    between atoms: N_8  and  C_9
REMARK    4  A    between atoms: C_9  and  C_10
REMARK    5  A    between atoms: C_14  and  C_15
REMARK                            x       y       z     vdW  Elec       q    Type
REMARK                         _______ _______ _______ _____ _____    ______ ____
ROOT
ATOM      1  C   UNL     1      43.934   6.697  11.403  0.00  0.00    +0.000 C 
ENDROOT
BRANCH   1   2
ATOM      2  C   UNL     1      44.011   5.200  11.163  0.00  0.00    +0.000 A 
ATOM      3  C   UNL     1      43.209   4.317  11.896  0.00  0.00    +0.000 A 
ATOM      4  C   UNL     1      43.243   2.949  11.633  0.00  0.00    +0.000 A 
ATOM      5  C   UNL     1      44.055   2.451  10.611  0.00  0.00    +0.000 A 
ATOM      6  C   UNL     1      44.838   3.307   9.815  0.00  0.00    +0.000 A 
ATOM      7  C   UNL     1      44.821   4.680  10.137  0.00  0.00    +0.000 A 
BRANCH   6   8
ATOM      8  C   UNL     1      45.565   2.806   8.619  0.00  0.00    +0.000 A 
ATOM      9  C   UNL     1      46.017   3.697   7.623  0.00  0.00    +0.000 A 
ATOM     10  C   UNL     1      46.807   3.267   6.550  0.00  0.00    +0.000 A 
ATOM     11  C   UNL     1      47.167   1.930   6.449  0.00  0.00    +0.000 A 
ATOM     12  C   UNL     1      46.709   1.034   7.405  0.00  0.00    +0.000 A 
ATOM     13  F   UNL     1      47.061  -0.256   7.317  0.00  0.00    +0.000 F 
ATOM     14  C   UNL     1      45.910   1.453   8.469  0.00  0.00    +0.000 A 
ENDBRANCH   6   8
ENDBRANCH   1   2
BRANCH   1  15
ATOM     15  N   UNL     1      44.586   7.027  12.665  0.00  0.00    +0.000 N 
ATOM     16  H   UNL     1      44.423   6.304  13.361  0.00  0.00    +0.000 HD
BRANCH  15  20
ATOM     17  C   UNL     1      48.645   7.696  12.520  0.00  0.00    +0.000 A 
ATOM     18  C   UNL     1      47.755   8.695  12.156  0.00  0.00    +0.000 A 
ATOM     19  N   UNL     1      46.404   8.517  12.181  0.00  0.00    +0.000 NA
ATOM     20  C   UNL     1      45.959   7.305  12.577  0.00  0.00    +0.000 A 
ATOM     21  C   UNL     1      46.881   6.318  12.956  0.00  0.00    +0.000 A 
ATOM     22  N   UNL     1      48.231   6.469  12.933  0.00  0.00    +0.000 NA
BRANCH  17  24
ATOM     23  N   UNL     1      50.783   7.323  11.446  0.00  0.00    +0.000 N 
ATOM     24  C   UNL     1      50.116   7.945  12.462  0.00  0.00    +0.000 C 
ATOM     25  O   UNL     1      50.688   8.663  13.271  0.00  0.00    +0.000 OA
ATOM     26  H   UNL     1      51.782   7.458  11.348  0.00  0.00    +0.000 HD
ATOM     27  H   UNL     1      50.281   6.744  10.781  0.00  0.00    +0.000 HD
ENDBRANCH  17  24
ENDBRANCH  15  20
ENDBRANCH   1  15
TORSDOF 5
ENDMDL
MODEL 8
REMARK VINA RESULT:    -7.046      1.451      2.089
REMARK INTER + INTRA:          -9.906
REMARK INTER:                  -9.151
REMARK INTRA:                  -0.756
REMARK UNBOUND:                -0.802
REMARK  Name = 
REMARK  5 active torsions:
REMARK  status: ('A' for Active; 'I' for Inactive)
REMARK    1  A    between atoms: C_2  and  C_4
REMARK    2  A    between atoms: C_7  and  N_8
REMARK    3  A    between atoms: N_8  and  C_9
REMARK    4  A    between atoms: C_9  and  C_10
REMARK    5  A    between atoms: C_14  and  C_15
REMARK                            x       y       z     vdW  Elec       q    Type
REMARK                         _______ _______ _______ _____ _____    ______ ____
ROOT
ATOM      1  C   UNL     1      44.905   2.867  11.739  0.00  0.00    +0.000 C 
ENDROOT
BRANCH   1   2
ATOM      2  C   UNL     1      44.877   4.355  12.031  0.00  0.00    +0.000 A 
ATOM      3  C   UNL     1      43.718   4.964  12.530  0.00  0.00    +0.000 A 
ATOM      4  C   UNL     1      43.715   6.320  12.850  0.00  0.00    +0.000 A 
ATOM      5  C   UNL     1      44.879   7.078  12.705  0.00  0.00    +0.000 A 
ATOM      6  C   UNL     1      46.080   6.498  12.257  0.00  0.00    +0.000 A 
ATOM      7  C   UNL     1      46.040   5.135  11.894  0.00  0.00    +0.000 A 
BRANCH   6   8
ATOM      8  C   UNL     1      47.360   7.253  12.268  0.00  0.00    +0.000 A 
ATOM      9  C   UNL     1      48.570   6.620  12.620  0.00  0.00    +0.000 A 
ATOM     10  C   UNL     1      49.804   7.274  12.523  0.00  0.00    +0.000 A 
ATOM     11  C   UNL     1      49.856   8.585  12.066  0.00  0.00    +0.000 A 
ATOM     12  C   UNL     1      48.673   9.233  11.740  0.00  0.00    +0.000 A 
ATOM     13  F   UNL     1      48.719  10.495  11.290  0.00  0.00    +0.000 F 
ATOM     14  C   UNL     1      47.440   8.591  11.848  0.00  0.00    +0.000 A 
ENDBRANCH   6   8
ENDBRANCH   1   2
BRANCH   1  15
ATOM     15  N   UNL     1      44.217   2.599  10.482  0.00  0.00    +0.000 N 
ATOM     16  H   UNL     1      43.448   3.249  10.340  0.00  0.00    +0.000 HD
BRANCH  15  20
ATOM     17  C   UNL     1      46.533   2.671   7.080  0.00  0.00    +0.000 A 
ATOM     18  C   UNL     1      46.431   1.514   7.835  0.00  0.00    +0.000 A 
ATOM     19  N   UNL     1      45.683   1.444   8.973  0.00  0.00    +0.000 NA
ATOM     20  C   UNL     1      45.036   2.571   9.343  0.00  0.00    +0.000 A 
ATOM     21  C   UNL     1      45.143   3.724   8.550  0.00  0.00    +0.000 A 
ATOM     22  N   UNL     1      45.888   3.819   7.418  0.00  0.00    +0.000 NA
BRANCH  17  24
ATOM     23  N   UNL     1      48.712   2.478   6.042  0.00  0.00    +0.000 N 
ATOM     24  C   UNL     1      47.378   2.691   5.849  0.00  0.00    +0.000 C 
ATOM     25  O   UNL     1      46.904   2.883   4.737  0.00  0.00    +0.000 OA
ATOM     26  H   UNL     1      49.337   2.472   5.245  0.00  0.00    +0.000 HD
ATOM     27  H   UNL     1      49.075   2.307   6.974  0.00  0.00    +0.000 HD
ENDBRANCH  17  24
ENDBRANCH  15  20
ENDBRANCH   1  15
TORSDOF 5
ENDMDL
MODEL 9
REMARK VINA RESULT:    -6.800      5.756      7.922
REMARK INTER + INTRA:          -9.589
REMARK INTER:                  -8.823
REMARK INTRA:                  -0.765
REMARK UNBOUND:                -0.802
REMARK  Name = 
REMARK  5 active torsions:
REMARK  status: ('A' for Active; 'I' for Inactive)
REMARK    1  A    between atoms: C_2  and  C_4
REMARK    2  A    between atoms: C_7  and  N_8
REMARK    3  A    between atoms: N_8  and  C_9
REMARK    4  A    between atoms: C_9  and  C_10
REMARK    5  A    between atoms: C_14  and  C_15
REMARK                            x       y       z     vdW  Elec       q    Type
REMARK                         _______ _______ _______ _____ _____    ______ ____
ROOT
ATOM      1  C   UNL     1      48.657   6.584  15.846  0.00  0.00    +0.000 C 
ENDROOT
BRANCH   1   2
ATOM      2  C   UNL     1      48.267   6.797  14.395  0.00  0.00    +0.000 A 
ATOM      3  C   UNL     1      49.052   7.593  13.552  0.00  0.00    +0.000 A 
ATOM      4  C   UNL     1      48.720   7.739  12.207  0.00  0.00    +0.000 A 
ATOM      5  C   UNL     1      47.617   7.064  11.680  0.00  0.00    +0.000 A 
ATOM      6  C   UNL     1      46.828   6.214  12.477  0.00  0.00    +0.000 A 
ATOM      7  C   UNL     1      47.160   6.124  13.845  0.00  0.00    +0.000 A 
BRANCH   6   8
ATOM      8  C   UNL     1      45.765   5.361  11.886  0.00  0.00    +0.000 A 
ATOM      9  C   UNL     1      45.514   5.375  10.497  0.00  0.00    +0.000 A 
ATOM     10  C   UNL     1      44.604   4.495   9.900  0.00  0.00    +0.000 A 
ATOM     11  C   UNL     1      43.921   3.572  10.682  0.00  0.00    +0.000 A 
ATOM     12  C   UNL     1      44.134   3.561  12.053  0.00  0.00    +0.000 A 
ATOM     13  F   UNL     1      43.485   2.666  12.811  0.00  0.00    +0.000 F 
ATOM     14  C   UNL     1      45.030   4.444  12.656  0.00  0.00    +0.000 A 
ENDBRANCH   6   8
ENDBRANCH   1   2
BRANCH   1  15
ATOM     15  N   UNL     1      48.077   5.339  16.333  0.00  0.00    +0.000 N 
ATOM     16  H   UNL     1      47.404   4.964  15.671  0.00  0.00    +0.000 HD
BRANCH  15  20
ATOM     17  C   UNL     1      50.922   2.552  17.378  0.00  0.00    +0.000 A 
ATOM     18  C   UNL     1      49.700   2.149  16.862  0.00  0.00    +0.000 A 
ATOM     19  N   UNL     1      48.725   3.034  16.510  0.00  0.00    +0.000 NA
ATOM     20  C   UNL     1      49.001   4.344  16.690  0.00  0.00    +0.000 A 
ATOM     21  C   UNL     1      50.252   4.725  17.198  0.00  0.00    +0.000 A 
ATOM     22  N   UNL     1      51.236   3.861  17.564  0.00  0.00    +0.000 NA
BRANCH  17  24
ATOM     23  N   UNL     1      51.462   0.310  18.115  0.00  0.00    +0.000 N 
ATOM     24  C   UNL     1      51.946   1.536  17.759  0.00  0.00    +0.000 C 
ATOM     25  O   UNL     1      53.145   1.784  17.750  0.00  0.00    +0.000 OA
ATOM     26  H   UNL     1      52.109  -0.425  18.377  0.00  0.00    +0.000 HD
ATOM     27  H   UNL     1      50.465   0.128  18.100  0.00  0.00    +0.000 HD
ENDBRANCH  17  24
ENDBRANCH  15  20
ENDBRANCH   1  15
TORSDOF 5
ENDMDL
