MODEL 1
REMARK VINA RESULT:    -6.278      0.000      0.000
REMARK INTER + INTRA:          -9.216
REMARK INTER:                  -8.480
REMARK INTRA:                  -0.736
REMARK UNBOUND:                -0.736
REMARK  Name = 
REMARK  9 active torsions:
REMARK  status: ('A' for Active; 'I' for Inactive)
REMARK    1  A    between atoms: C_1  and  C_2
REMARK    2  A    between atoms: C_2  and  C_3
REMARK    3  A    between atoms: C_2  and  C_4
REMARK    4  A    between atoms: C_2  and  C_5
REMARK    5  A    between atoms: C_8  and  C_9
REMARK    6  A    between atoms: N_15  and  C_16
REMARK    7  A    between atoms: C_16  and  C_17
REMARK    8  A    between atoms: C_20  and  O_21
REMARK    9  A    between atoms: O_21  and  C_22
REMARK                            x       y       z     vdW  Elec       q    Type
REMARK                         _______ _______ _______ _____ _____    ______ ____
ROOT
ATOM      1  C   UNL     1      46.044   5.113  13.192  0.00  0.00    +0.000 A 
ATOM      2  N   UNL     1      46.141   4.256  14.218  0.00  0.00    +0.000 NA
ATOM      3  C   UNL     1      47.158   4.747  14.944  0.00  0.00    +0.000 A 
ATOM      4  C   UNL     1      47.721   4.591  16.217  0.00  0.00    +0.000 C 
ATOM      5  C   UNL     1      48.651   5.774  16.269  0.00  0.00    +0.000 C 
ATOM      6  N   UNL     1      48.602   6.553  15.211  0.00  0.00    +0.000 NA
ATOM      7  C   UNL     1      47.679   5.902  14.454  0.00  0.00    +0.000 A 
ATOM      8  N   UNL     1      46.931   6.203  13.360  0.00  0.00    +0.000 N 
ENDROOT
BRANCH   4   9
ATOM      9  C   UNL     1      47.116   3.982  17.397  0.00  0.00    +0.000 C 
ATOM     10  N   UNL     1      47.139   4.737  18.529  0.00  0.00    +0.000 N 
ATOM     11  O   UNL     1      46.655   2.850  17.378  0.00  0.00    +0.000 OA
ATOM     12  H   UNL     1      47.614   5.635  18.559  0.00  0.00    +0.000 HD
ATOM     13  H   UNL     1      46.854   4.306  19.397  0.00  0.00    +0.000 HD
ENDBRANCH   4   9
BRANCH   1  15
ATOM     14  C   UNL     1      44.767   3.442  11.799  0.00  0.00    +0.000 C 
ATOM     15  C   UNL     1      45.061   4.945  12.031  0.00  0.00    +0.000 C 
ATOM     16  C   UNL     1      45.671   5.479  10.720  0.00  0.00    +0.000 C 
ATOM     17  C   UNL     1      43.709   5.611  12.339  0.00  0.00    +0.000 C 
ENDBRANCH   1  15
BRANCH   8  18
ATOM     18  C   UNL     1      46.845   7.499  12.705  0.00  0.00    +0.000 C 
BRANCH  18  19
ATOM     19  C   UNL     1      48.153   8.060  12.219  0.00  0.00    +0.000 A 
ATOM     20  C   UNL     1      48.418   9.430  12.308  0.00  0.00    +0.000 A 
ATOM     21  C   UNL     1      49.637   9.951  11.858  0.00  0.00    +0.000 A 
ATOM     22  C   UNL     1      50.612   9.094  11.352  0.00  0.00    +0.000 A 
ATOM     23  C   UNL     1      50.338   7.731  11.233  0.00  0.00    +0.000 A 
ATOM     24  C   UNL     1      49.120   7.209  11.670  0.00  0.00    +0.000 A 
BRANCH  22  25
ATOM     25  O   UNL     1      51.846   9.453  10.906  0.00  0.00    +0.000 OA
BRANCH  25  26
ATOM     26  C   UNL     1      52.974   9.283  11.750  0.00  0.00    +0.000 C 
ATOM     27  F   UNL     1      52.675   9.187  13.062  0.00  0.00    +0.000 F 
ATOM     28  F   UNL     1      53.600   8.138  11.392  0.00  0.00    +0.000 F 
ATOM     29  F   UNL     1      53.835  10.307  11.568  0.00  0.00    +0.000 F 
ENDBRANCH  25  26
ENDBRANCH  22  25
ENDBRANCH  18  19
ENDBRANCH   8  18
TORSDOF 6
ENDMDL
MODEL 2
REMARK VINA RESULT:    -6.136      3.887      5.905
REMARK INTER + INTRA:          -9.024
REMARK INTER:                  -8.831
REMARK INTRA:                  -0.193
REMARK UNBOUND:                -0.736
REMARK  Name = 
REMARK  9 active torsions:
REMARK  status: ('A' for Active; 'I' for Inactive)
REMARK    1  A    between atoms: C_1  and  C_2
REMARK    2  A    between atoms: C_2  and  C_3
REMARK    3  A    between atoms: C_2  and  C_4
REMARK    4  A    between atoms: C_2  and  C_5
REMARK    5  A    between atoms: C_8  and  C_9
REMARK    6  A    between atoms: N_15  and  C_16
REMARK    7  A    between atoms: C_16  and  C_17
REMARK    8  A    between atoms: C_20  and  O_21
REMARK    9  A    between atoms: O_21  and  C_22
REMARK                            x       y       z     vdW  Elec       q    Type
REMARK                         _______ _______ _______ _____ _____    ______ ____
ROOT
ATOM      1  C   UNL     1      44.491   3.526  10.567  0.00  0.00    +0.000 A 
ATOM      2  N   UNL     1      44.886   2.466   9.847  0.00  0.00    +0.000 NA
ATOM      3  C   UNL     1      45.443   3.016   8.757  0.00  0.00    +0.000 A 
ATOM      4  C   UNL     1      46.259   2.639   7.681  0.00  0.00    +0.000 C 
ATOM      5  C   UNL     1      46.626   3.984   7.112  0.00  0.00    +0.000 C 
ATOM      6  N   UNL     1      46.153   5.010   7.786  0.00  0.00    +0.000 NA
ATOM      7  C   UNL     1      45.465   4.374   8.772  0.00  0.00    +0.000 A 
ATOM      8  N   UNL     1      44.920   4.733   9.965  0.00  0.00    +0.000 N 
ENDROOT
BRANCH   4   9
ATOM      9  C   UNL     1      47.099   1.453   7.565  0.00  0.00    +0.000 C 
ATOM     10  N   UNL     1      48.281   1.626   6.913  0.00  0.00    +0.000 N 
ATOM     11  O   UNL     1      46.744   0.363   7.991  0.00  0.00    +0.000 OA
ATOM     12  H   UNL     1      48.520   2.512   6.475  0.00  0.00    +0.000 HD
ATOM     13  H   UNL     1      48.830   0.808   6.693  0.00  0.00    +0.000 HD
ENDBRANCH   4   9
BRANCH   1  15
ATOM     14  C   UNL     1      44.709   3.528  13.080  0.00  0.00    +0.000 C 
ATOM     15  C   UNL     1      43.726   3.422  11.888  0.00  0.00    +0.000 C 
ATOM     16  C   UNL     1      43.035   2.050  12.010  0.00  0.00    +0.000 C 
ATOM     17  C   UNL     1      42.722   4.578  12.048  0.00  0.00    +0.000 C 
ENDBRANCH   1  15
BRANCH   8  18
ATOM     18  C   UNL     1      45.045   6.029  10.613  0.00  0.00    +0.000 C 
BRANCH  18  19
ATOM     19  C   UNL     1      46.314   6.237  11.393  0.00  0.00    +0.000 A 
ATOM     20  C   UNL     1      47.345   7.030  10.879  0.00  0.00    +0.000 A 
ATOM     21  C   UNL     1      48.524   7.226  11.607  0.00  0.00    +0.000 A 
ATOM     22  C   UNL     1      48.658   6.660  12.873  0.00  0.00    +0.000 A 
ATOM     23  C   UNL     1      47.645   5.843  13.375  0.00  0.00    +0.000 A 
ATOM     24  C   UNL     1      46.472   5.636  12.648  0.00  0.00    +0.000 A 
BRANCH  22  25
ATOM     25  O   UNL     1      49.730   6.787  13.702  0.00  0.00    +0.000 OA
BRANCH  25  26
ATOM     26  C   UNL     1      49.636   7.620  14.847  0.00  0.00    +0.000 C 
ATOM     27  F   UNL     1      49.195   6.990  15.956  0.00  0.00    +0.000 F 
ATOM     28  F   UNL     1      50.870   8.104  15.120  0.00  0.00    +0.000 F 
ATOM     29  F   UNL     1      48.824   8.666  14.582  0.00  0.00    +0.000 F 
ENDBRANCH  25  26
ENDBRANCH  22  25
ENDBRANCH  18  19
ENDBRANCH   8  18
TORSDOF 6
ENDMDL
MODEL 3
REMARK VINA RESULT:    -5.953      4.703      6.543
REMARK INTER + INTRA:          -8.777
REMARK INTER:                  -7.824
REMARK INTRA:                  -0.953
REMARK UNBOUND:                -0.736
REMARK  Name = 
REMARK  9 active torsions:
REMARK  status: ('A' for Active; 'I' for Inactive)
REMARK    1  A    between atoms: C_1  and  C_2
REMARK    2  A    between atoms: C_2  and  C_3
REMARK    3  A    between atoms: C_2  and  C_4
REMARK    4  A    between atoms: C_2  and  C_5
REMARK    5  A    between atoms: C_8  and  C_9
REMARK    6  A    between atoms: N_15  and  C_16
REMARK    7  A    between atoms: C_16  and  C_17
REMARK    8  A    between atoms: C_20  and  O_21
REMARK    9  A    between atoms: O_21  and  C_22
REMARK                            x       y       z     vdW  Elec       q    Type
REMARK                         _______ _______ _______ _____ _____    ______ ____
ROOT
ATOM      1  C   UNL     1      49.228   7.645  16.349  0.00  0.00    +0.000 A 
ATOM      2  N   UNL     1      49.315   7.205  17.613  0.00  0.00    +0.000 NA
ATOM      3  C   UNL     1      48.635   6.048  17.591  0.00  0.00    +0.000 A 
ATOM      4  C   UNL     1      48.454   4.912  18.392  0.00  0.00    +0.000 C 
ATOM      5  C   UNL     1      47.757   3.988  17.429  0.00  0.00    +0.000 C 
ATOM      6  N   UNL     1      47.603   4.476  16.218  0.00  0.00    +0.000 NA
ATOM      7  C   UNL     1      48.163   5.707  16.364  0.00  0.00    +0.000 A 
ATOM      8  N   UNL     1      48.592   6.687  15.525  0.00  0.00    +0.000 N 
ENDROOT
BRANCH   4   9
ATOM      9  C   UNL     1      49.285   4.453  19.499  0.00  0.00    +0.000 C 
ATOM     10  N   UNL     1      48.616   3.968  20.580  0.00  0.00    +0.000 N 
ATOM     11  O   UNL     1      50.505   4.536  19.472  0.00  0.00    +0.000 OA
ATOM     12  H   UNL     1      47.601   3.997  20.633  0.00  0.00    +0.000 HD
ATOM     13  H   UNL     1      49.143   3.765  21.417  0.00  0.00    +0.000 HD
ENDBRANCH   4   9
BRANCH   1  15
ATOM     14  C   UNL     1      50.283   9.815  17.084  0.00  0.00    +0.000 C 
ATOM     15  C   UNL     1      49.794   8.984  15.872  0.00  0.00    +0.000 C 
ATOM     16  C   UNL     1      48.700   9.821  15.180  0.00  0.00    +0.000 C 
ATOM     17  C   UNL     1      51.016   8.784  14.960  0.00  0.00    +0.000 C 
ENDBRANCH   1  15
BRANCH   8  18
ATOM     18  C   UNL     1      48.664   6.607  14.074  0.00  0.00    +0.000 C 
BRANCH  18  19
ATOM     19  C   UNL     1      47.339   6.498  13.370  0.00  0.00    +0.000 A 
ATOM     20  C   UNL     1      46.536   7.627  13.183  0.00  0.00    +0.000 A 
ATOM     21  C   UNL     1      45.305   7.525  12.525  0.00  0.00    +0.000 A 
ATOM     22  C   UNL     1      44.893   6.295  12.015  0.00  0.00    +0.000 A 
ATOM     23  C   UNL     1      45.677   5.162  12.227  0.00  0.00    +0.000 A 
ATOM     24  C   UNL     1      46.900   5.257  12.893  0.00  0.00    +0.000 A 
BRANCH  22  25
ATOM     25  O   UNL     1      43.740   6.054  11.333  0.00  0.00    +0.000 OA
BRANCH  25  26
ATOM     26  C   UNL     1      42.686   5.345  11.967  0.00  0.00    +0.000 C 
ATOM     27  F   UNL     1      42.796   5.273  13.310  0.00  0.00    +0.000 F 
ATOM     28  F   UNL     1      41.524   5.981  11.690  0.00  0.00    +0.000 F 
ATOM     29  F   UNL     1      42.612   4.095  11.463  0.00  0.00    +0.000 F 
ENDBRANCH  25  26
ENDBRANCH  22  25
ENDBRANCH  18  19
ENDBRANCH   8  18
TORSDOF 6
ENDMDL
MODEL 4
REMARK VINA RESULT:    -5.748      4.010      6.050
REMARK INTER + INTRA:          -8.500
REMARK INTER:                  -7.392
REMARK INTRA:                  -1.108
REMARK UNBOUND:                -0.736
REMARK  Name = 
REMARK  9 active torsions:
REMARK  status: ('A' for Active; 'I' for Inactive)
REMARK    1  A    between atoms: C_1  and  C_2
REMARK    2  A    between atoms: C_2  and  C_3
REMARK    3  A    between atoms: C_2  and  C_4
REMARK    4  A    between atoms: C_2  and  C_5
REMARK    5  A    between atoms: C_8  and  C_9
REMARK    6  A    between atoms: N_15  and  C_16
REMARK    7  A    between atoms: C_16  and  C_17
REMARK    8  A    between atoms: C_20  and  O_21
REMARK    9  A    between atoms: O_21  and  C_22
REMARK                            x       y       z     vdW  Elec       q    Type
REMARK                         _______ _______ _______ _____ _____    ______ ____
ROOT
ATOM      1  C   UNL     1      51.581   6.321  16.816  0.00  0.00    +0.000 A 
ATOM      2  N   UNL     1      51.656   5.002  17.044  0.00  0.00    +0.000 NA
ATOM      3  C   UNL     1      50.390   4.659  17.327  0.00  0.00    +0.000 A 
ATOM      4  C   UNL     1      49.609   3.501  17.446  0.00  0.00    +0.000 C 
ATOM      5  C   UNL     1      48.224   4.090  17.490  0.00  0.00    +0.000 C 
ATOM      6  N   UNL     1      48.182   5.397  17.353  0.00  0.00    +0.000 NA
ATOM      7  C   UNL     1      49.506   5.687  17.241  0.00  0.00    +0.000 A 
ATOM      8  N   UNL     1      50.237   6.762  16.842  0.00  0.00    +0.000 N 
ENDROOT
BRANCH   4   9
ATOM      9  C   UNL     1      49.906   2.163  16.946  0.00  0.00    +0.000 C 
ATOM     10  N   UNL     1      50.872   1.481  17.621  0.00  0.00    +0.000 N 
ATOM     11  O   UNL     1      49.350   1.701  15.960  0.00  0.00    +0.000 OA
ATOM     12  H   UNL     1      51.397   1.913  18.376  0.00  0.00    +0.000 HD
ATOM     13  H   UNL     1      51.202   0.610  17.231  0.00  0.00    +0.000 HD
ENDBRANCH   4   9
BRANCH   1  15
ATOM     14  C   UNL     1      54.098   6.380  16.653  0.00  0.00    +0.000 C 
ATOM     15  C   UNL     1      52.794   7.205  16.518  0.00  0.00    +0.000 C 
ATOM     16  C   UNL     1      52.895   8.354  17.540  0.00  0.00    +0.000 C 
ATOM     17  C   UNL     1      52.762   7.734  15.073  0.00  0.00    +0.000 C 
ENDBRANCH   1  15
BRANCH   8  18
ATOM     18  C   UNL     1      49.715   7.990  16.264  0.00  0.00    +0.000 C 
BRANCH  18  19
ATOM     19  C   UNL     1      48.945   7.820  14.982  0.00  0.00    +0.000 A 
ATOM     20  C   UNL     1      47.743   8.504  14.777  0.00  0.00    +0.000 A 
ATOM     21  C   UNL     1      47.030   8.347  13.583  0.00  0.00    +0.000 A 
ATOM     22  C   UNL     1      47.539   7.535  12.573  0.00  0.00    +0.000 A 
ATOM     23  C   UNL     1      48.722   6.827  12.787  0.00  0.00    +0.000 A 
ATOM     24  C   UNL     1      49.431   6.970  13.981  0.00  0.00    +0.000 A 
BRANCH  22  25
ATOM     25  O   UNL     1      46.972   7.311  11.357  0.00  0.00    +0.000 OA
BRANCH  25  26
ATOM     26  C   UNL     1      45.962   6.322  11.225  0.00  0.00    +0.000 C 
ATOM     27  F   UNL     1      45.956   5.402  12.212  0.00  0.00    +0.000 F 
ATOM     28  F   UNL     1      44.759   6.942  11.241  0.00  0.00    +0.000 F 
ATOM     29  F   UNL     1      46.095   5.694  10.038  0.00  0.00    +0.000 F 
ENDBRANCH  25  26
ENDBRANCH  22  25
ENDBRANCH  18  19
ENDBRANCH   8  18
TORSDOF 6
ENDMDL
MODEL 5
REMARK VINA RESULT:    -5.688      4.427      6.737
REMARK INTER + INTRA:          -8.419
REMARK INTER:                  -7.184
REMARK INTRA:                  -1.235
REMARK UNBOUND:                -0.736
REMARK  Name = 
REMARK  9 active torsions:
REMARK  status: ('A' for Active; 'I' for Inactive)
REMARK    1  A    between atoms: C_1  and  C_2
REMARK    2  A    between atoms: C_2  and  C_3
REMARK    3  A    between atoms: C_2  and  C_4
REMARK    4  A    between atoms: C_2  and  C_5
REMARK    5  A    between atoms: C_8  and  C_9
REMARK    6  A    between atoms: N_15  and  C_16
REMARK    7  A    between atoms: C_16  and  C_17
REMARK    8  A    between atoms: C_20  and  O_21
REMARK    9  A    between atoms: O_21  and  C_22
REMARK                            x       y       z     vdW  Elec       q    Type
REMARK                         _______ _______ _______ _____ _____    ______ ____
ROOT
ATOM      1  C   UNL     1      48.370   8.535  12.448  0.00  0.00    +0.000 A 
ATOM      2  N   UNL     1      47.144   8.224  12.004  0.00  0.00    +0.000 NA
ATOM      3  C   UNL     1      46.984   6.948  12.391  0.00  0.00    +0.000 A 
ATOM      4  C   UNL     1      45.957   6.003  12.520  0.00  0.00    +0.000 C 
ATOM      5  C   UNL     1      46.651   4.931  13.320  0.00  0.00    +0.000 C 
ATOM      6  N   UNL     1      47.885   5.223  13.669  0.00  0.00    +0.000 NA
ATOM      7  C   UNL     1      48.029   6.450  13.101  0.00  0.00    +0.000 A 
ATOM      8  N   UNL     1      48.912   7.478  13.216  0.00  0.00    +0.000 N 
ENDROOT
BRANCH   4   9
ATOM      9  C   UNL     1      44.519   6.240  12.558  0.00  0.00    +0.000 C 
ATOM     10  N   UNL     1      44.084   7.345  11.893  0.00  0.00    +0.000 N 
ATOM     11  O   UNL     1      43.758   5.514  13.181  0.00  0.00    +0.000 OA
ATOM     12  H   UNL     1      44.735   7.997  11.464  0.00  0.00    +0.000 HD
ATOM     13  H   UNL     1      43.119   7.621  12.005  0.00  0.00    +0.000 HD
ENDBRANCH   4   9
BRANCH   1  15
ATOM     14  C   UNL     1      49.147  10.688  13.510  0.00  0.00    +0.000 C 
ATOM     15  C   UNL     1      49.053   9.880  12.192  0.00  0.00    +0.000 C 
ATOM     16  C   UNL     1      48.223  10.734  11.213  0.00  0.00    +0.000 C 
ATOM     17  C   UNL     1      50.497   9.691  11.694  0.00  0.00    +0.000 C 
ENDBRANCH   1  15
BRANCH   8  18
ATOM     18  C   UNL     1      50.002   7.572  14.175  0.00  0.00    +0.000 C 
BRANCH  18  19
ATOM     19  C   UNL     1      49.611   7.368  15.614  0.00  0.00    +0.000 A 
ATOM     20  C   UNL     1      50.110   6.283  16.340  0.00  0.00    +0.000 A 
ATOM     21  C   UNL     1      49.748   6.095  17.679  0.00  0.00    +0.000 A 
ATOM     22  C   UNL     1      48.917   7.020  18.308  0.00  0.00    +0.000 A 
ATOM     23  C   UNL     1      48.394   8.086  17.577  0.00  0.00    +0.000 A 
ATOM     24  C   UNL     1      48.742   8.270  16.238  0.00  0.00    +0.000 A 
BRANCH  22  25
ATOM     25  O   UNL     1      48.506   6.981  19.605  0.00  0.00    +0.000 OA
BRANCH  25  26
ATOM     26  C   UNL     1      47.676   5.918  20.046  0.00  0.00    +0.000 C 
ATOM     27  F   UNL     1      48.345   4.799  20.393  0.00  0.00    +0.000 F 
ATOM     28  F   UNL     1      46.995   6.339  21.138  0.00  0.00    +0.000 F 
ATOM     29  F   UNL     1      46.779   5.614  19.084  0.00  0.00    +0.000 F 
ENDBRANCH  25  26
ENDBRANCH  22  25
ENDBRANCH  18  19
ENDBRANCH   8  18
TORSDOF 6
ENDMDL
MODEL 6
REMARK VINA RESULT:    -5.577      4.650      6.472
REMARK INTER + INTRA:          -8.269
REMARK INTER:                  -7.246
REMARK INTRA:                  -1.023
REMARK UNBOUND:                -0.736
REMARK  Name = 
REMARK  9 active torsions:
REMARK  status: ('A' for Active; 'I' for Inactive)
REMARK    1  A    between atoms: C_1  and  C_2
REMARK    2  A    between atoms: C_2  and  C_3
REMARK    3  A    between atoms: C_2  and  C_4
REMARK    4  A    between atoms: C_2  and  C_5
REMARK    5  A    between atoms: C_8  and  C_9
REMARK    6  A    between atoms: N_15  and  C_16
REMARK    7  A    between atoms: C_16  and  C_17
REMARK    8  A    between atoms: C_20  and  O_21
REMARK    9  A    between atoms: O_21  and  C_22
REMARK                            x       y       z     vdW  Elec       q    Type
REMARK                         _______ _______ _______ _____ _____    ______ ____
ROOT
ATOM      1  C   UNL     1      49.920   8.254  13.593  0.00  0.00    +0.000 A 
ATOM      2  N   UNL     1      50.849   7.620  14.322  0.00  0.00    +0.000 NA
ATOM      3  C   UNL     1      50.292   7.538  15.541  0.00  0.00    +0.000 A 
ATOM      4  C   UNL     1      50.488   6.858  16.750  0.00  0.00    +0.000 C 
ATOM      5  C   UNL     1      49.196   7.160  17.464  0.00  0.00    +0.000 C 
ATOM      6  N   UNL     1      48.334   7.861  16.760  0.00  0.00    +0.000 NA
ATOM      7  C   UNL     1      49.033   8.046  15.608  0.00  0.00    +0.000 A 
ATOM      8  N   UNL     1      48.738   8.453  14.345  0.00  0.00    +0.000 N 
ENDROOT
BRANCH   4   9
ATOM      9  C   UNL     1      51.284   5.659  16.987  0.00  0.00    +0.000 C 
ATOM     10  N   UNL     1      52.629   5.848  17.063  0.00  0.00    +0.000 N 
ATOM     11  O   UNL     1      50.776   4.550  17.071  0.00  0.00    +0.000 OA
ATOM     12  H   UNL     1      53.048   6.759  16.892  0.00  0.00    +0.000 HD
ATOM     13  H   UNL     1      53.226   5.034  17.091  0.00  0.00    +0.000 HD
ENDBRANCH   4   9
BRANCH   1  15
ATOM     14  C   UNL     1      51.623   8.701  11.786  0.00  0.00    +0.000 C 
ATOM     15  C   UNL     1      50.113   8.655  12.129  0.00  0.00    +0.000 C 
ATOM     16  C   UNL     1      49.564  10.073  11.876  0.00  0.00    +0.000 C 
ATOM     17  C   UNL     1      49.481   7.625  11.177  0.00  0.00    +0.000 C 
ENDBRANCH   1  15
BRANCH   8  18
ATOM     18  C   UNL     1      47.410   8.726  13.818  0.00  0.00    +0.000 C 
BRANCH  18  19
ATOM     19  C   UNL     1      46.676   7.529  13.277  0.00  0.00    +0.000 A 
ATOM     20  C   UNL     1      45.587   7.691  12.415  0.00  0.00    +0.000 A 
ATOM     21  C   UNL     1      44.906   6.577  11.911  0.00  0.00    +0.000 A 
ATOM     22  C   UNL     1      45.340   5.294  12.237  0.00  0.00    +0.000 A 
ATOM     23  C   UNL     1      46.406   5.130  13.121  0.00  0.00    +0.000 A 
ATOM     24  C   UNL     1      47.080   6.238  13.636  0.00  0.00    +0.000 A 
BRANCH  22  25
ATOM     25  O   UNL     1      44.795   4.125  11.801  0.00  0.00    +0.000 OA
BRANCH  25  26
ATOM     26  C   UNL     1      43.488   3.763  12.219  0.00  0.00    +0.000 C 
ATOM     27  F   UNL     1      43.115   4.297  13.400  0.00  0.00    +0.000 F 
ATOM     28  F   UNL     1      42.611   4.195  11.283  0.00  0.00    +0.000 F 
ATOM     29  F   UNL     1      43.393   2.418  12.294  0.00  0.00    +0.000 F 
ENDBRANCH  25  26
ENDBRANCH  22  25
ENDBRANCH  18  19
ENDBRANCH   8  18
TORSDOF 6
ENDMDL
MODEL 7
REMARK VINA RESULT:    -5.230      4.162      6.526
REMARK INTER + INTRA:          -7.800
REMARK INTER:                  -7.376
REMARK INTRA:                  -0.424
REMARK UNBOUND:                -0.736
REMARK  Name = 
REMARK  9 active torsions:
REMARK  status: ('A' for Active; 'I' for Inactive)
REMARK    1  A    between atoms: C_1  and  C_2
REMARK    2  A    between atoms: C_2  and  C_3
REMARK    3  A    between atoms: C_2  and  C_4
REMARK    4  A    between atoms: C_2  and  C_5
REMARK    5  A    between atoms: C_8  and  C_9
REMARK    6  A    between atoms: N_15  and  C_16
REMARK    7  A    between atoms: C_16  and  C_17
REMARK    8  A    between atoms: C_20  and  O_21
REMARK    9  A    between atoms: O_21  and  C_22
REMARK                            x       y       z     vdW  Elec       q    Type
REMARK                         _______ _______ _______ _____ _____    ______ ____
ROOT
ATOM      1  C   UNL     1      46.885   7.787  12.356  0.00  0.00    +0.000 A 
ATOM      2  N   UNL     1      45.609   7.623  11.978  0.00  0.00    +0.000 NA
ATOM      3  C   UNL     1      45.451   6.290  11.971  0.00  0.00    +0.000 A 
ATOM      4  C   UNL     1      44.415   5.348  11.919  0.00  0.00    +0.000 C 
ATOM      5  C   UNL     1      45.156   4.084  12.268  0.00  0.00    +0.000 C 
ATOM      6  N   UNL     1      46.429   4.258  12.549  0.00  0.00    +0.000 NA
ATOM      7  C   UNL     1      46.551   5.601  12.373  0.00  0.00    +0.000 A 
ATOM      8  N   UNL     1      47.473   6.546  12.697  0.00  0.00    +0.000 N 
ENDROOT
BRANCH   4   9
ATOM      9  C   UNL     1      42.997   5.558  12.189  0.00  0.00    +0.000 C 
ATOM     10  N   UNL     1      42.411   6.582  11.510  0.00  0.00    +0.000 N 
ATOM     11  O   UNL     1      42.385   4.881  13.002  0.00  0.00    +0.000 OA
ATOM     12  H   UNL     1      42.953   7.201  10.912  0.00  0.00    +0.000 HD
ATOM     13  H   UNL     1      41.470   6.847  11.764  0.00  0.00    +0.000 HD
ENDBRANCH   4   9
BRANCH   1  15
ATOM     14  C   UNL     1      48.896   9.127  11.634  0.00  0.00    +0.000 C 
ATOM     15  C   UNL     1      47.579   9.147  12.449  0.00  0.00    +0.000 C 
ATOM     16  C   UNL     1      47.970   9.460  13.906  0.00  0.00    +0.000 C 
ATOM     17  C   UNL     1      46.710  10.263  11.843  0.00  0.00    +0.000 C 
ENDBRANCH   1  15
BRANCH   8  18
ATOM     18  C   UNL     1      48.662   6.344  13.510  0.00  0.00    +0.000 C 
BRANCH  18  19
ATOM     19  C   UNL     1      48.404   6.033  14.960  0.00  0.00    +0.000 A 
ATOM     20  C   UNL     1      47.649   4.915  15.326  0.00  0.00    +0.000 A 
ATOM     21  C   UNL     1      47.412   4.625  16.674  0.00  0.00    +0.000 A 
ATOM     22  C   UNL     1      47.966   5.434  17.664  0.00  0.00    +0.000 A 
ATOM     23  C   UNL     1      48.693   6.568  17.301  0.00  0.00    +0.000 A 
ATOM     24  C   UNL     1      48.922   6.868  15.958  0.00  0.00    +0.000 A 
BRANCH  22  25
ATOM     25  O   UNL     1      47.844   5.260  19.008  0.00  0.00    +0.000 OA
BRANCH  25  26
ATOM     26  C   UNL     1      48.946   4.768  19.754  0.00  0.00    +0.000 C 
ATOM     27  F   UNL     1      48.602   4.087  20.868  0.00  0.00    +0.000 F 
ATOM     28  F   UNL     1      49.649   3.924  18.964  0.00  0.00    +0.000 F 
ATOM     29  F   UNL     1      49.755   5.793  20.097  0.00  0.00    +0.000 F 
ENDBRANCH  25  26
ENDBRANCH  22  25
ENDBRANCH  18  19
ENDBRANCH   8  18
TORSDOF 6
ENDMDL
MODEL 8
REMARK VINA RESULT:    -5.062      2.976      4.538
REMARK INTER + INTRA:          -7.573
REMARK INTER:                  -6.665
REMARK INTRA:                  -0.908
REMARK UNBOUND:                -0.736
REMARK  Name = 
REMARK  9 active torsions:
REMARK  status: ('A' for Active; 'I' for Inactive)
REMARK    1  A    between atoms: C_1  and  C_2
REMARK    2  A    between atoms: C_2  and  C_3
REMARK    3  A    between atoms: C_2  and  C_4
REMARK    4  A    between atoms: C_2  and  C_5
REMARK    5  A    between atoms: C_8  and  C_9
REMARK    6  A    between atoms: N_15  and  C_16
REMARK    7  A    between atoms: C_16  and  C_17
REMARK    8  A    between atoms: C_20  and  O_21
REMARK    9  A    between atoms: O_21  and  C_22
REMARK                            x       y       z     vdW  Elec       q    Type
REMARK                         _______ _______ _______ _____ _____    ______ ____
ROOT
ATOM      1  C   UNL     1      44.554   8.884  11.213  0.00  0.00    +0.000 A 
ATOM      2  N   UNL     1      43.774   7.868  10.818  0.00  0.00    +0.000 NA
ATOM      3  C   UNL     1      44.470   6.778  11.179  0.00  0.00    +0.000 A 
ATOM      4  C   UNL     1      44.272   5.399  11.331  0.00  0.00    +0.000 C 
ATOM      5  C   UNL     1      45.524   5.007  12.070  0.00  0.00    +0.000 C 
ATOM      6  N   UNL     1      46.319   6.012  12.369  0.00  0.00    +0.000 NA
ATOM      7  C   UNL     1      45.632   7.053  11.828  0.00  0.00    +0.000 A 
ATOM      8  N   UNL     1      45.679   8.408  11.928  0.00  0.00    +0.000 N 
ENDROOT
BRANCH   4   9
ATOM      9  C   UNL     1      43.007   4.681  11.441  0.00  0.00    +0.000 C 
ATOM     10  N   UNL     1      41.913   5.447  11.701  0.00  0.00    +0.000 N 
ATOM     11  O   UNL     1      42.942   3.464  11.344  0.00  0.00    +0.000 OA
ATOM     12  H   UNL     1      41.994   6.445  11.879  0.00  0.00    +0.000 HD
ATOM     13  H   UNL     1      41.043   4.981  11.917  0.00  0.00    +0.000 HD
ENDBRANCH   4   9
BRANCH   1  15
ATOM     14  C   UNL     1      43.441  10.506   9.635  0.00  0.00    +0.000 C 
ATOM     15  C   UNL     1      44.228  10.358  10.960  0.00  0.00    +0.000 C 
ATOM     16  C   UNL     1      45.521  11.181  10.797  0.00  0.00    +0.000 C 
ATOM     17  C   UNL     1      43.327  10.931  12.068  0.00  0.00    +0.000 C 
ENDBRANCH   1  15
BRANCH   8  18
ATOM     18  C   UNL     1      46.516   9.174  12.838  0.00  0.00    +0.000 C 
BRANCH  18  19
ATOM     19  C   UNL     1      47.994   9.094  12.572  0.00  0.00    +0.000 A 
ATOM     20  C   UNL     1      48.806   8.228  13.312  0.00  0.00    +0.000 A 
ATOM     21  C   UNL     1      50.181   8.152  13.062  0.00  0.00    +0.000 A 
ATOM     22  C   UNL     1      50.742   8.916  12.040  0.00  0.00    +0.000 A 
ATOM     23  C   UNL     1      49.940   9.803  11.322  0.00  0.00    +0.000 A 
ATOM     24  C   UNL     1      48.571   9.891  11.576  0.00  0.00    +0.000 A 
BRANCH  22  25
ATOM     25  O   UNL     1      52.051   8.924  11.668  0.00  0.00    +0.000 OA
BRANCH  25  26
ATOM     26  C   UNL     1      52.510   7.996  10.698  0.00  0.00    +0.000 C 
ATOM     27  F   UNL     1      51.563   7.141  10.257  0.00  0.00    +0.000 F 
ATOM     28  F   UNL     1      52.958   8.691   9.627  0.00  0.00    +0.000 F 
ATOM     29  F   UNL     1      53.543   7.287  11.201  0.00  0.00    +0.000 F 
ENDBRANCH  25  26
ENDBRANCH  22  25
ENDBRANCH  18  19
ENDBRANCH   8  18
TORSDOF 6
ENDMDL
MODEL 9
REMARK VINA RESULT:    -4.845     12.814     14.583
REMARK INTER + INTRA:          -7.280
REMARK INTER:                  -6.201
REMARK INTRA:                  -1.079
REMARK UNBOUND:                -0.736
REMARK  Name = 
REMARK  9 active torsions:
REMARK  status: ('A' for Active; 'I' for Inactive)
REMARK    1  A    between atoms: C_1  and  C_2
REMARK    2  A    between atoms: C_2  and  C_3
REMARK    3  A    between atoms: C_2  and  C_4
REMARK    4  A    between atoms: C_2  and  C_5
REMARK    5  A    between atoms: C_8  and  C_9
REMARK    6  A    between atoms: N_15  and  C_16
REMARK    7  A    between atoms: C_16  and  C_17
REMARK    8  A    between atoms: C_20  and  O_21
REMARK    9  A    between atoms: O_21  and  C_22
REMARK                            x       y       z     vdW  Elec       q    Type
REMARK                         _______ _______ _______ _____ _____    ______ ____
ROOT
ATOM      1  C   UNL     1      38.063  -2.969   9.454  0.00  0.00    +0.000 A 
ATOM      2  N   UNL     1      37.056  -2.246   8.944  0.00  0.00    +0.000 NA
ATOM      3  C   UNL     1      37.086  -1.113   9.664  0.00  0.00    +0.000 A 
ATOM      4  C   UNL     1      36.554   0.183   9.620  0.00  0.00    +0.000 C 
ATOM      5  C   UNL     1      37.372   0.868  10.682  0.00  0.00    +0.000 C 
ATOM      6  N   UNL     1      38.297   0.111  11.231  0.00  0.00    +0.000 NA
ATOM      7  C   UNL     1      38.094  -1.062  10.573  0.00  0.00    +0.000 A 
ATOM      8  N   UNL     1      38.787  -2.220  10.411  0.00  0.00    +0.000 N 
ENDROOT
BRANCH   4   9
ATOM      9  C   UNL     1      35.967   0.874   8.477  0.00  0.00    +0.000 C 
ATOM     10  N   UNL     1      35.984   0.189   7.301  0.00  0.00    +0.000 N 
ATOM     11  O   UNL     1      35.525   2.010   8.563  0.00  0.00    +0.000 OA
ATOM     12  H   UNL     1      36.443  -0.713   7.218  0.00  0.00    +0.000 HD
ATOM     13  H   UNL     1      35.712   0.678   6.459  0.00  0.00    +0.000 HD
ENDBRANCH   4   9
BRANCH   1  15
ATOM     14  C   UNL     1      37.262  -4.953   8.118  0.00  0.00    +0.000 C 
ATOM     15  C   UNL     1      38.399  -4.394   9.009  0.00  0.00    +0.000 C 
ATOM     16  C   UNL     1      38.503  -5.334  10.226  0.00  0.00    +0.000 C 
ATOM     17  C   UNL     1      39.679  -4.428   8.155  0.00  0.00    +0.000 C 
ENDBRANCH   1  15
BRANCH   8  18
ATOM     18  C   UNL     1      40.139  -2.485  10.877  0.00  0.00    +0.000 C 
BRANCH  18  19
ATOM     19  C   UNL     1      40.250  -2.925  12.311  0.00  0.00    +0.000 A 
ATOM     20  C   UNL     1      41.456  -3.421  12.814  0.00  0.00    +0.000 A 
ATOM     21  C   UNL     1      41.559  -3.827  14.149  0.00  0.00    +0.000 A 
ATOM     22  C   UNL     1      40.462  -3.698  14.999  0.00  0.00    +0.000 A 
ATOM     23  C   UNL     1      39.249  -3.232  14.492  0.00  0.00    +0.000 A 
ATOM     24  C   UNL     1      39.138  -2.838  13.158  0.00  0.00    +0.000 A 
BRANCH  22  25
ATOM     25  O   UNL     1      40.424  -4.024  16.319  0.00  0.00    +0.000 OA
BRANCH  25  26
ATOM     26  C   UNL     1      41.205  -3.286  17.246  0.00  0.00    +0.000 C 
ATOM     27  F   UNL     1      40.771  -3.364  18.522  0.00  0.00    +0.000 F 
ATOM     28  F   UNL     1      42.468  -3.771  17.217  0.00  0.00    +0.000 F 
ATOM     29  F   UNL     1      41.245  -1.989  16.873  0.00  0.00    +0.000 F 
ENDBRANCH  25  26
ENDBRANCH  22  25
ENDBRANCH  18  19
ENDBRANCH   8  18
TORSDOF 6
ENDMDL
