MODEL 1
REMARK VINA RESULT:    -7.099      0.000      0.000
REMARK INTER + INTRA:         -11.464
REMARK INTER:                 -10.003
REMARK INTRA:                  -1.461
REMARK UNBOUND:                -1.461
REMARK  Name = 
REMARK  8 active torsions:
REMARK  status: ('A' for Active; 'I' for Inactive)
REMARK    1  A    between atoms: C_1  and  C_2
REMARK    2  A    between atoms: C_2  and  C_3
REMARK    3  A    between atoms: C_3  and  N_4
REMARK    4  A    between atoms: C_3  and  C_17
REMARK    5  A    between atoms: C_5  and  C_7
REMARK    6  A    between atoms: C_20  and  C_21
REMARK    7  A    between atoms: C_21  and  N_22
REMARK    8  A    between atoms: C_23  and  C_25
REMARK                            x       y       z     vdW  Elec       q    Type
REMARK                         _______ _______ _______ _____ _____    ______ ____
ROOT
ATOM      1  C   UNL     1      48.010   4.739  15.926  0.00  0.00    +0.000 C 
ENDROOT
BRANCH   1   2
ATOM      2  C   UNL     1      47.371   5.174  14.620  0.00  0.00    +0.000 A 
ATOM      3  C   UNL     1      46.280   4.476  14.090  0.00  0.00    +0.000 A 
ATOM      4  C   UNL     1      45.632   4.939  12.939  0.00  0.00    +0.000 A 
ATOM      5  C   UNL     1      46.080   6.098  12.281  0.00  0.00    +0.000 A 
ATOM      6  C   UNL     1      47.182   6.778  12.802  0.00  0.00    +0.000 A 
ATOM      7  C   UNL     1      47.827   6.312  13.942  0.00  0.00    +0.000 A 
BRANCH   5   8
ATOM      8  C   UNL     1      45.421   6.629  11.034  0.00  0.00    +0.000 C 
BRANCH   8   9
ATOM      9  N   UNL     1      44.731   5.615  10.272  0.00  0.00    +0.000 N 
ATOM     10  C   UNL     1      45.314   5.096   9.136  0.00  0.00    +0.000 C 
ATOM     11  O   UNL     1      46.410   5.466   8.714  0.00  0.00    +0.000 OA
ATOM     12  H   UNL     1      44.058   5.029  10.748  0.00  0.00    +0.000 HD
BRANCH  10  13
ATOM     13  C   UNL     1      44.468   3.992   8.453  0.00  0.00    +0.000 C 
ATOM     14  C   UNL     1      45.292   3.145   7.500  0.00  0.00    +0.000 C 
ATOM     15  C   UNL     1      46.000   2.177   8.430  0.00  0.00    +0.000 C 
ATOM     16  C   UNL     1      45.072   2.044   9.632  0.00  0.00    +0.000 C 
ATOM     17  N   UNL     1      43.983   3.006   9.436  0.00  0.00    +0.000 NA
ATOM     18  H   UNL     1      43.791   3.486  10.320  0.00  0.00    +0.000 HD
ENDBRANCH  10  13
ENDBRANCH   8   9
ENDBRANCH   5   8
ENDBRANCH   1   2
BRANCH   1  19
ATOM     19  N   UNL     1      47.761   5.724  16.957  0.00  0.00    +0.000 N 
ATOM     20  C   UNL     1      48.727   6.176  17.805  0.00  0.00    +0.000 C 
ATOM     21  O   UNL     1      49.908   5.801  17.754  0.00  0.00    +0.000 OA
ATOM     22  H   UNL     1      46.787   5.951  17.153  0.00  0.00    +0.000 HD
BRANCH  20  23
ATOM     23  C   UNL     1      48.313   7.179  18.767  0.00  0.00    +0.000 A 
ATOM     24  C   UNL     1      48.098   6.856  20.096  0.00  0.00    +0.000 A 
ATOM     25  S   UNL     1      47.598   8.191  21.036  0.00  0.00    +0.000 S 
ATOM     26  C   UNL     1      47.626   9.224  19.681  0.00  0.00    +0.000 A 
ATOM     27  N   UNL     1      47.255  10.529  19.774  0.00  0.00    +0.000 NA
ATOM     28  C   UNL     1      47.285  11.170  18.652  0.00  0.00    +0.000 A 
ATOM     29  N   UNL     1      47.662  10.639  17.450  0.00  0.00    +0.000 N 
ATOM     30  C   UNL     1      48.095   9.338  17.311  0.00  0.00    +0.000 A 
ATOM     31  O   UNL     1      48.508   8.921  16.241  0.00  0.00    +0.000 OA
ATOM     32  C   UNL     1      48.040   8.569  18.541  0.00  0.00    +0.000 A 
ATOM     33  H   UNL     1      47.685  11.196  16.612  0.00  0.00    +0.000 HD
ENDBRANCH  20  23
ENDBRANCH   1  19
BRANCH   1  35
ATOM     34  C   UNL     1      48.618   2.513  17.002  0.00  0.00    +0.000 C 
ATOM     35  C   UNL     1      47.537   3.322  16.331  0.00  0.00    +0.000 C 
ENDBRANCH   1  35
TORSDOF 7
ENDMDL
MODEL 2
REMARK VINA RESULT:    -6.611      3.005      4.530
REMARK INTER + INTRA:         -10.777
REMARK INTER:                  -8.985
REMARK INTRA:                  -1.792
REMARK UNBOUND:                -1.461
REMARK  Name = 
REMARK  8 active torsions:
REMARK  status: ('A' for Active; 'I' for Inactive)
REMARK    1  A    between atoms: C_1  and  C_2
REMARK    2  A    between atoms: C_2  and  C_3
REMARK    3  A    between atoms: C_3  and  N_4
REMARK    4  A    between atoms: C_3  and  C_17
REMARK    5  A    between atoms: C_5  and  C_7
REMARK    6  A    between atoms: C_20  and  C_21
REMARK    7  A    between atoms: C_21  and  N_22
REMARK    8  A    between atoms: C_23  and  C_25
REMARK                            x       y       z     vdW  Elec       q    Type
REMARK                         _______ _______ _______ _____ _____    ______ ____
ROOT
ATOM      1  C   UNL     1      49.537   8.280  13.588  0.00  0.00    +0.000 C 
ENDROOT
BRANCH   1   2
ATOM      2  C   UNL     1      48.168   8.142  12.948  0.00  0.00    +0.000 A 
ATOM      3  C   UNL     1      47.875   7.059  12.112  0.00  0.00    +0.000 A 
ATOM      4  C   UNL     1      46.582   6.883  11.603  0.00  0.00    +0.000 A 
ATOM      5  C   UNL     1      45.562   7.803  11.903  0.00  0.00    +0.000 A 
ATOM      6  C   UNL     1      45.865   8.893  12.721  0.00  0.00    +0.000 A 
ATOM      7  C   UNL     1      47.151   9.068  13.219  0.00  0.00    +0.000 A 
BRANCH   5   8
ATOM      8  C   UNL     1      44.160   7.661  11.373  0.00  0.00    +0.000 C 
BRANCH   8   9
ATOM      9  N   UNL     1      43.801   6.299  11.052  0.00  0.00    +0.000 N 
ATOM     10  C   UNL     1      43.469   5.421  12.062  0.00  0.00    +0.000 C 
ATOM     11  O   UNL     1      43.474   5.735  13.253  0.00  0.00    +0.000 OA
ATOM     12  H   UNL     1      43.424   6.103  10.135  0.00  0.00    +0.000 HD
BRANCH  10  13
ATOM     13  C   UNL     1      43.073   4.012  11.554  0.00  0.00    +0.000 C 
ATOM     14  C   UNL     1      43.780   3.649  10.261  0.00  0.00    +0.000 C 
ATOM     15  C   UNL     1      45.154   3.211  10.736  0.00  0.00    +0.000 C 
ATOM     16  C   UNL     1      44.928   2.686  12.148  0.00  0.00    +0.000 C 
ATOM     17  N   UNL     1      43.527   2.962  12.485  0.00  0.00    +0.000 NA
ATOM     18  H   UNL     1      43.473   3.322  13.442  0.00  0.00    +0.000 HD
ENDBRANCH  10  13
ENDBRANCH   8   9
ENDBRANCH   5   8
ENDBRANCH   1   2
BRANCH   1  19
ATOM     19  N   UNL     1      49.697   7.300  14.641  0.00  0.00    +0.000 N 
ATOM     20  C   UNL     1      49.325   7.526  15.932  0.00  0.00    +0.000 C 
ATOM     21  O   UNL     1      48.796   8.580  16.314  0.00  0.00    +0.000 OA
ATOM     22  H   UNL     1      50.266   6.481  14.428  0.00  0.00    +0.000 HD
BRANCH  20  23
ATOM     23  C   UNL     1      49.537   6.430  16.858  0.00  0.00    +0.000 A 
ATOM     24  C   UNL     1      50.493   6.507  17.857  0.00  0.00    +0.000 A 
ATOM     25  S   UNL     1      50.577   5.093  18.811  0.00  0.00    +0.000 S 
ATOM     26  C   UNL     1      49.360   4.335  17.891  0.00  0.00    +0.000 A 
ATOM     27  N   UNL     1      48.966   3.059  18.147  0.00  0.00    +0.000 NA
ATOM     28  C   UNL     1      48.067   2.607  17.335  0.00  0.00    +0.000 A 
ATOM     29  N   UNL     1      47.514   3.311  16.301  0.00  0.00    +0.000 N 
ATOM     30  C   UNL     1      47.842   4.623  16.030  0.00  0.00    +0.000 A 
ATOM     31  O   UNL     1      47.266   5.249  15.156  0.00  0.00    +0.000 OA
ATOM     32  C   UNL     1      48.877   5.157  16.895  0.00  0.00    +0.000 A 
ATOM     33  H   UNL     1      46.801   2.912  15.714  0.00  0.00    +0.000 HD
ENDBRANCH  20  23
ENDBRANCH   1  19
BRANCH   1  35
ATOM     34  C   UNL     1      50.719   9.421  11.643  0.00  0.00    +0.000 C 
ATOM     35  C   UNL     1      50.657   8.198  12.524  0.00  0.00    +0.000 C 
ENDBRANCH   1  35
TORSDOF 7
ENDMDL
MODEL 3
REMARK VINA RESULT:    -6.456      3.224      4.564
REMARK INTER + INTRA:         -10.558
REMARK INTER:                  -9.236
REMARK INTRA:                  -1.322
REMARK UNBOUND:                -1.461
REMARK  Name = 
REMARK  8 active torsions:
REMARK  status: ('A' for Active; 'I' for Inactive)
REMARK    1  A    between atoms: C_1  and  C_2
REMARK    2  A    between atoms: C_2  and  C_3
REMARK    3  A    between atoms: C_3  and  N_4
REMARK    4  A    between atoms: C_3  and  C_17
REMARK    5  A    between atoms: C_5  and  C_7
REMARK    6  A    between atoms: C_20  and  C_21
REMARK    7  A    between atoms: C_21  and  N_22
REMARK    8  A    between atoms: C_23  and  C_25
REMARK                            x       y       z     vdW  Elec       q    Type
REMARK                         _______ _______ _______ _____ _____    ______ ____
ROOT
ATOM      1  C   UNL     1      49.466   8.025  12.801  0.00  0.00    +0.000 C 
ENDROOT
BRANCH   1   2
ATOM      2  C   UNL     1      48.145   7.285  12.704  0.00  0.00    +0.000 A 
ATOM      3  C   UNL     1      47.876   6.188  13.529  0.00  0.00    +0.000 A 
ATOM      4  C   UNL     1      46.620   5.570  13.505  0.00  0.00    +0.000 A 
ATOM      5  C   UNL     1      45.615   6.024  12.634  0.00  0.00    +0.000 A 
ATOM      6  C   UNL     1      45.895   7.106  11.798  0.00  0.00    +0.000 A 
ATOM      7  C   UNL     1      47.145   7.714  11.820  0.00  0.00    +0.000 A 
BRANCH   5   8
ATOM      8  C   UNL     1      44.252   5.387  12.565  0.00  0.00    +0.000 C 
BRANCH   8   9
ATOM      9  N   UNL     1      43.958   4.797  11.280  0.00  0.00    +0.000 N 
ATOM     10  C   UNL     1      44.455   3.550  10.968  0.00  0.00    +0.000 C 
ATOM     11  O   UNL     1      45.165   2.899  11.734  0.00  0.00    +0.000 OA
ATOM     12  H   UNL     1      43.118   5.088  10.797  0.00  0.00    +0.000 HD
BRANCH  10  13
ATOM     13  C   UNL     1      44.020   3.041   9.570  0.00  0.00    +0.000 C 
ATOM     14  C   UNL     1      44.415   4.001   8.462  0.00  0.00    +0.000 C 
ATOM     15  C   UNL     1      45.882   3.681   8.242  0.00  0.00    +0.000 C 
ATOM     16  C   UNL     1      46.028   2.220   8.649  0.00  0.00    +0.000 C 
ATOM     17  N   UNL     1      44.736   1.804   9.206  0.00  0.00    +0.000 NA
ATOM     18  H   UNL     1      44.894   1.251  10.053  0.00  0.00    +0.000 HD
ENDBRANCH  10  13
ENDBRANCH   8   9
ENDBRANCH   5   8
ENDBRANCH   1   2
BRANCH   1  19
ATOM     19  N   UNL     1      50.338   7.367  13.752  0.00  0.00    +0.000 N 
ATOM     20  C   UNL     1      50.614   7.875  14.985  0.00  0.00    +0.000 C 
ATOM     21  O   UNL     1      50.126   8.931  15.413  0.00  0.00    +0.000 OA
ATOM     22  H   UNL     1      50.892   6.584  13.405  0.00  0.00    +0.000 HD
BRANCH  20  23
ATOM     23  C   UNL     1      51.492   7.078  15.820  0.00  0.00    +0.000 A 
ATOM     24  C   UNL     1      52.869   7.208  15.747  0.00  0.00    +0.000 A 
ATOM     25  S   UNL     1      53.697   6.156  16.807  0.00  0.00    +0.000 S 
ATOM     26  C   UNL     1      52.236   5.480  17.364  0.00  0.00    +0.000 A 
ATOM     27  N   UNL     1      52.222   4.468  18.272  0.00  0.00    +0.000 NA
ATOM     28  C   UNL     1      51.040   4.030  18.560  0.00  0.00    +0.000 A 
ATOM     29  N   UNL     1      49.872   4.515  18.042  0.00  0.00    +0.000 N 
ATOM     30  C   UNL     1      49.828   5.572  17.158  0.00  0.00    +0.000 A 
ATOM     31  O   UNL     1      48.764   6.036  16.781  0.00  0.00    +0.000 OA
ATOM     32  C   UNL     1      51.137   6.068  16.776  0.00  0.00    +0.000 A 
ATOM     33  H   UNL     1      48.978   4.146  18.322  0.00  0.00    +0.000 HD
ENDBRANCH  20  23
ENDBRANCH   1  19
BRANCH   1  35
ATOM     34  C   UNL     1      51.613   8.365  11.478  0.00  0.00    +0.000 C 
ATOM     35  C   UNL     1      50.117   8.184  11.407  0.00  0.00    +0.000 C 
ENDBRANCH   1  35
TORSDOF 7
ENDMDL
MODEL 4
REMARK VINA RESULT:    -6.400      6.083      8.248
REMARK INTER + INTRA:         -10.480
REMARK INTER:                  -9.421
REMARK INTRA:                  -1.059
REMARK UNBOUND:                -1.461
REMARK  Name = 
REMARK  8 active torsions:
REMARK  status: ('A' for Active; 'I' for Inactive)
REMARK    1  A    between atoms: C_1  and  C_2
REMARK    2  A    between atoms: C_2  and  C_3
REMARK    3  A    between atoms: C_3  and  N_4
REMARK    4  A    between atoms: C_3  and  C_17
REMARK    5  A    between atoms: C_5  and  C_7
REMARK    6  A    between atoms: C_20  and  C_21
REMARK    7  A    between atoms: C_21  and  N_22
REMARK    8  A    between atoms: C_23  and  C_25
REMARK                            x       y       z     vdW  Elec       q    Type
REMARK                         _______ _______ _______ _____ _____    ______ ____
ROOT
ATOM      1  C   UNL     1      50.680   8.174  12.035  0.00  0.00    +0.000 C 
ENDROOT
BRANCH   1   2
ATOM      2  C   UNL     1      49.352   7.534  12.394  0.00  0.00    +0.000 A 
ATOM      3  C   UNL     1      48.341   7.398  11.436  0.00  0.00    +0.000 A 
ATOM      4  C   UNL     1      47.156   6.719  11.744  0.00  0.00    +0.000 A 
ATOM      5  C   UNL     1      46.949   6.185  13.027  0.00  0.00    +0.000 A 
ATOM      6  C   UNL     1      47.952   6.343  13.986  0.00  0.00    +0.000 A 
ATOM      7  C   UNL     1      49.125   7.022  13.678  0.00  0.00    +0.000 A 
BRANCH   5   8
ATOM      8  C   UNL     1      45.688   5.456  13.409  0.00  0.00    +0.000 C 
BRANCH   8   9
ATOM      9  N   UNL     1      44.881   5.070  12.275  0.00  0.00    +0.000 N 
ATOM     10  C   UNL     1      44.721   3.735  11.969  0.00  0.00    +0.000 C 
ATOM     11  O   UNL     1      45.251   2.831  12.613  0.00  0.00    +0.000 OA
ATOM     12  H   UNL     1      44.153   5.700  11.965  0.00  0.00    +0.000 HD
BRANCH  10  13
ATOM     13  C   UNL     1      43.799   3.485  10.749  0.00  0.00    +0.000 C 
ATOM     14  C   UNL     1      44.064   4.463   9.619  0.00  0.00    +0.000 C 
ATOM     15  C   UNL     1      45.293   3.880   8.946  0.00  0.00    +0.000 C 
ATOM     16  C   UNL     1      45.214   2.383   9.222  0.00  0.00    +0.000 C 
ATOM     17  N   UNL     1      44.079   2.177  10.127  0.00  0.00    +0.000 NA
ATOM     18  H   UNL     1      44.344   1.513  10.859  0.00  0.00    +0.000 HD
ENDBRANCH  10  13
ENDBRANCH   8   9
ENDBRANCH   5   8
ENDBRANCH   1   2
BRANCH   1  19
ATOM     19  N   UNL     1      51.277   7.487  10.909  0.00  0.00    +0.000 N 
ATOM     20  C   UNL     1      52.607   7.545  10.621  0.00  0.00    +0.000 C 
ATOM     21  O   UNL     1      53.427   8.171  11.309  0.00  0.00    +0.000 OA
ATOM     22  H   UNL     1      50.640   7.090  10.219  0.00  0.00    +0.000 HD
BRANCH  20  23
ATOM     23  C   UNL     1      53.044   6.781   9.467  0.00  0.00    +0.000 A 
ATOM     24  C   UNL     1      52.492   6.992   8.215  0.00  0.00    +0.000 A 
ATOM     25  S   UNL     1      53.146   5.965   7.016  0.00  0.00    +0.000 S 
ATOM     26  C   UNL     1      54.157   5.195   8.151  0.00  0.00    +0.000 A 
ATOM     27  N   UNL     1      54.969   4.164   7.795  0.00  0.00    +0.000 NA
ATOM     28  C   UNL     1      55.640   3.654   8.775  0.00  0.00    +0.000 A 
ATOM     29  N   UNL     1      55.589   4.082  10.072  0.00  0.00    +0.000 N 
ATOM     30  C   UNL     1      54.822   5.155  10.476  0.00  0.00    +0.000 A 
ATOM     31  O   UNL     1      54.866   5.566  11.624  0.00  0.00    +0.000 OA
ATOM     32  C   UNL     1      54.021   5.733   9.413  0.00  0.00    +0.000 A 
ATOM     33  H   UNL     1      56.153   3.658  10.790  0.00  0.00    +0.000 HD
ENDBRANCH  20  23
ENDBRANCH   1  19
BRANCH   1  35
ATOM     34  C   UNL     1      50.483  10.494  13.064  0.00  0.00    +0.000 C 
ATOM     35  C   UNL     1      50.516   9.692  11.786  0.00  0.00    +0.000 C 
ENDBRANCH   1  35
TORSDOF 7
ENDMDL
MODEL 5
REMARK VINA RESULT:    -6.369      5.949      8.215
REMARK INTER + INTRA:         -10.435
REMARK INTER:                  -9.034
REMARK INTRA:                  -1.401
REMARK UNBOUND:                -1.461
REMARK  Name = 
REMARK  8 active torsions:
REMARK  status: ('A' for Active; 'I' for Inactive)
REMARK    1  A    between atoms: C_1  and  C_2
REMARK    2  A    between atoms: C_2  and  C_3
REMARK    3  A    between atoms: C_3  and  N_4
REMARK    4  A    between atoms: C_3  and  C_17
REMARK    5  A    between atoms: C_5  and  C_7
REMARK    6  A    between atoms: C_20  and  C_21
REMARK    7  A    between atoms: C_21  and  N_22
REMARK    8  A    between atoms: C_23  and  C_25
REMARK                            x       y       z     vdW  Elec       q    Type
REMARK                         _______ _______ _______ _____ _____    ______ ____
ROOT
ATOM      1  C   UNL     1      50.666   8.232  12.085  0.00  0.00    +0.000 C 
ENDROOT
BRANCH   1   2
ATOM      2  C   UNL     1      49.336   7.578  12.412  0.00  0.00    +0.000 A 
ATOM      3  C   UNL     1      48.357   7.414  11.426  0.00  0.00    +0.000 A 
ATOM      4  C   UNL     1      47.173   6.722  11.707  0.00  0.00    +0.000 A 
ATOM      5  C   UNL     1      46.935   6.202  12.991  0.00  0.00    +0.000 A 
ATOM      6  C   UNL     1      47.905   6.387  13.977  0.00  0.00    +0.000 A 
ATOM      7  C   UNL     1      49.078   7.079  13.696  0.00  0.00    +0.000 A 
BRANCH   5   8
ATOM      8  C   UNL     1      45.673   5.460  13.345  0.00  0.00    +0.000 C 
BRANCH   8   9
ATOM      9  N   UNL     1      44.885   5.085  12.194  0.00  0.00    +0.000 N 
ATOM     10  C   UNL     1      44.788   3.758  11.832  0.00  0.00    +0.000 C 
ATOM     11  O   UNL     1      45.360   2.853  12.439  0.00  0.00    +0.000 OA
ATOM     12  H   UNL     1      44.128   5.692  11.910  0.00  0.00    +0.000 HD
BRANCH  10  13
ATOM     13  C   UNL     1      43.878   3.515  10.602  0.00  0.00    +0.000 C 
ATOM     14  C   UNL     1      44.255   4.400   9.427  0.00  0.00    +0.000 C 
ATOM     15  C   UNL     1      45.446   3.676   8.825  0.00  0.00    +0.000 C 
ATOM     16  C   UNL     1      45.232   2.210   9.181  0.00  0.00    +0.000 C 
ATOM     17  N   UNL     1      44.061   2.155  10.063  0.00  0.00    +0.000 NA
ATOM     18  H   UNL     1      44.250   1.514  10.838  0.00  0.00    +0.000 HD
ENDBRANCH  10  13
ENDBRANCH   8   9
ENDBRANCH   5   8
ENDBRANCH   1   2
BRANCH   1  19
ATOM     19  N   UNL     1      51.179   7.720  10.831  0.00  0.00    +0.000 N 
ATOM     20  C   UNL     1      52.507   7.552  10.582  0.00  0.00    +0.000 C 
ATOM     21  O   UNL     1      53.393   7.799  11.414  0.00  0.00    +0.000 OA
ATOM     22  H   UNL     1      50.520   7.650  10.056  0.00  0.00    +0.000 HD
BRANCH  20  23
ATOM     23  C   UNL     1      52.849   7.010   9.281  0.00  0.00    +0.000 A 
ATOM     24  C   UNL     1      53.164   5.671   9.120  0.00  0.00    +0.000 A 
ATOM     25  S   UNL     1      53.552   5.265   7.507  0.00  0.00    +0.000 S 
ATOM     26  C   UNL     1      53.340   6.875   6.994  0.00  0.00    +0.000 A 
ATOM     27  N   UNL     1      53.562   7.246   5.705  0.00  0.00    +0.000 NA
ATOM     28  C   UNL     1      53.404   8.509   5.481  0.00  0.00    +0.000 A 
ATOM     29  N   UNL     1      53.033   9.435   6.416  0.00  0.00    +0.000 N 
ATOM     30  C   UNL     1      52.746   9.104   7.723  0.00  0.00    +0.000 A 
ATOM     31  O   UNL     1      52.333   9.940   8.510  0.00  0.00    +0.000 OA
ATOM     32  C   UNL     1      52.949   7.700   8.028  0.00  0.00    +0.000 A 
ATOM     33  H   UNL     1      52.905  10.405   6.175  0.00  0.00    +0.000 HD
ENDBRANCH  20  23
ENDBRANCH   1  19
BRANCH   1  35
ATOM     34  C   UNL     1      50.863  10.381  13.434  0.00  0.00    +0.000 C 
ATOM     35  C   UNL     1      50.542   9.774  12.091  0.00  0.00    +0.000 C 
ENDBRANCH   1  35
TORSDOF 7
ENDMDL
MODEL 6
REMARK VINA RESULT:    -5.955      2.302      3.779
REMARK INTER + INTRA:          -9.853
REMARK INTER:                  -8.285
REMARK INTRA:                  -1.568
REMARK UNBOUND:                -1.461
REMARK  Name = 
REMARK  8 active torsions:
REMARK  status: ('A' for Active; 'I' for Inactive)
REMARK    1  A    between atoms: C_1  and  C_2
REMARK    2  A    between atoms: C_2  and  C_3
REMARK    3  A    between atoms: C_3  and  N_4
REMARK    4  A    between atoms: C_3  and  C_17
REMARK    5  A    between atoms: C_5  and  C_7
REMARK    6  A    between atoms: C_20  and  C_21
REMARK    7  A    between atoms: C_21  and  N_22
REMARK    8  A    between atoms: C_23  and  C_25
REMARK                            x       y       z     vdW  Elec       q    Type
REMARK                         _______ _______ _______ _____ _____    ______ ____
ROOT
ATOM      1  C   UNL     1      48.996   8.444  14.974  0.00  0.00    +0.000 C 
ENDROOT
BRANCH   1   2
ATOM      2  C   UNL     1      47.829   8.249  14.024  0.00  0.00    +0.000 A 
ATOM      3  C   UNL     1      47.175   9.349  13.457  0.00  0.00    +0.000 A 
ATOM      4  C   UNL     1      46.165   9.163  12.506  0.00  0.00    +0.000 A 
ATOM      5  C   UNL     1      45.771   7.870  12.122  0.00  0.00    +0.000 A 
ATOM      6  C   UNL     1      46.412   6.776  12.706  0.00  0.00    +0.000 A 
ATOM      7  C   UNL     1      47.411   6.964  13.654  0.00  0.00    +0.000 A 
BRANCH   5   8
ATOM      8  C   UNL     1      44.684   7.619  11.110  0.00  0.00    +0.000 C 
BRANCH   8   9
ATOM      9  N   UNL     1      44.583   6.237  10.706  0.00  0.00    +0.000 N 
ATOM     10  C   UNL     1      43.449   5.514  11.011  0.00  0.00    +0.000 C 
ATOM     11  O   UNL     1      42.500   5.985  11.638  0.00  0.00    +0.000 OA
ATOM     12  H   UNL     1      45.118   5.928   9.906  0.00  0.00    +0.000 HD
BRANCH  10  13
ATOM     13  C   UNL     1      43.478   4.060  10.477  0.00  0.00    +0.000 C 
ATOM     14  C   UNL     1      44.886   3.494  10.428  0.00  0.00    +0.000 C 
ATOM     15  C   UNL     1      45.137   3.085  11.868  0.00  0.00    +0.000 C 
ATOM     16  C   UNL     1      43.756   2.773  12.431  0.00  0.00    +0.000 C 
ATOM     17  N   UNL     1      42.783   3.139  11.396  0.00  0.00    +0.000 NA
ATOM     18  H   UNL     1      41.997   3.633  11.828  0.00  0.00    +0.000 HD
ENDBRANCH  10  13
ENDBRANCH   8   9
ENDBRANCH   5   8
ENDBRANCH   1   2
BRANCH   1  19
ATOM     19  N   UNL     1      48.645   7.977  16.299  0.00  0.00    +0.000 N 
ATOM     20  C   UNL     1      49.114   8.553  17.440  0.00  0.00    +0.000 C 
ATOM     21  O   UNL     1      49.862   9.542  17.448  0.00  0.00    +0.000 OA
ATOM     22  H   UNL     1      48.166   7.079  16.361  0.00  0.00    +0.000 HD
BRANCH  20  23
ATOM     23  C   UNL     1      48.647   7.973  18.686  0.00  0.00    +0.000 A 
ATOM     24  C   UNL     1      47.966   8.733  19.622  0.00  0.00    +0.000 A 
ATOM     25  S   UNL     1      47.534   7.845  21.015  0.00  0.00    +0.000 S 
ATOM     26  C   UNL     1      48.275   6.435  20.413  0.00  0.00    +0.000 A 
ATOM     27  N   UNL     1      48.313   5.286  21.139  0.00  0.00    +0.000 NA
ATOM     28  C   UNL     1      48.950   4.317  20.567  0.00  0.00    +0.000 A 
ATOM     29  N   UNL     1      49.540   4.380  19.335  0.00  0.00    +0.000 N 
ATOM     30  C   UNL     1      49.487   5.504  18.538  0.00  0.00    +0.000 A 
ATOM     31  O   UNL     1      49.948   5.498  17.408  0.00  0.00    +0.000 OA
ATOM     32  C   UNL     1      48.814   6.629  19.159  0.00  0.00    +0.000 A 
ATOM     33  H   UNL     1      50.005   3.584  18.932  0.00  0.00    +0.000 HD
ENDBRANCH  20  23
ENDBRANCH   1  19
BRANCH   1  35
ATOM     34  C   UNL     1      50.779   8.414  13.158  0.00  0.00    +0.000 C 
ATOM     35  C   UNL     1      50.276   7.770  14.426  0.00  0.00    +0.000 C 
ENDBRANCH   1  35
TORSDOF 7
ENDMDL
MODEL 7
REMARK VINA RESULT:    -5.954      4.214      9.037
REMARK INTER + INTRA:          -9.852
REMARK INTER:                  -8.698
REMARK INTRA:                  -1.154
REMARK UNBOUND:                -1.461
REMARK  Name = 
REMARK  8 active torsions:
REMARK  status: ('A' for Active; 'I' for Inactive)
REMARK    1  A    between atoms: C_1  and  C_2
REMARK    2  A    between atoms: C_2  and  C_3
REMARK    3  A    between atoms: C_3  and  N_4
REMARK    4  A    between atoms: C_3  and  C_17
REMARK    5  A    between atoms: C_5  and  C_7
REMARK    6  A    between atoms: C_20  and  C_21
REMARK    7  A    between atoms: C_21  and  N_22
REMARK    8  A    between atoms: C_23  and  C_25
REMARK                            x       y       z     vdW  Elec       q    Type
REMARK                         _______ _______ _______ _____ _____    ______ ____
ROOT
ATOM      1  C   UNL     1      48.816   7.786  15.405  0.00  0.00    +0.000 C 
ENDROOT
BRANCH   1   2
ATOM      2  C   UNL     1      49.305   6.603  16.219  0.00  0.00    +0.000 A 
ATOM      3  C   UNL     1      48.402   5.665  16.732  0.00  0.00    +0.000 A 
ATOM      4  C   UNL     1      48.864   4.523  17.397  0.00  0.00    +0.000 A 
ATOM      5  C   UNL     1      50.241   4.310  17.583  0.00  0.00    +0.000 A 
ATOM      6  C   UNL     1      51.137   5.259  17.087  0.00  0.00    +0.000 A 
ATOM      7  C   UNL     1      50.674   6.395  16.432  0.00  0.00    +0.000 A 
BRANCH   5   8
ATOM      8  C   UNL     1      50.786   3.102  18.300  0.00  0.00    +0.000 C 
BRANCH   8   9
ATOM      9  N   UNL     1      52.177   3.232  18.667  0.00  0.00    +0.000 N 
ATOM     10  C   UNL     1      53.074   2.247  18.312  0.00  0.00    +0.000 C 
ATOM     11  O   UNL     1      52.748   1.231  17.698  0.00  0.00    +0.000 OA
ATOM     12  H   UNL     1      52.552   4.159  18.815  0.00  0.00    +0.000 HD
BRANCH  10  13
ATOM     13  C   UNL     1      54.531   2.549  18.745  0.00  0.00    +0.000 C 
ATOM     14  C   UNL     1      55.549   1.917  17.813  0.00  0.00    +0.000 C 
ATOM     15  C   UNL     1      55.582   2.881  16.641  0.00  0.00    +0.000 C 
ATOM     16  C   UNL     1      55.201   4.231  17.236  0.00  0.00    +0.000 C 
ATOM     17  N   UNL     1      54.832   3.989  18.635  0.00  0.00    +0.000 NA
ATOM     18  H   UNL     1      53.988   4.522  18.860  0.00  0.00    +0.000 HD
ENDBRANCH  10  13
ENDBRANCH   8   9
ENDBRANCH   5   8
ENDBRANCH   1   2
BRANCH   1  19
ATOM     19  N   UNL     1      47.721   7.384  14.546  0.00  0.00    +0.000 N 
ATOM     20  C   UNL     1      47.902   6.743  13.359  0.00  0.00    +0.000 C 
ATOM     21  O   UNL     1      49.017   6.426  12.918  0.00  0.00    +0.000 OA
ATOM     22  H   UNL     1      46.798   7.753  14.771  0.00  0.00    +0.000 HD
BRANCH  20  23
ATOM     23  C   UNL     1      46.696   6.393  12.632  0.00  0.00    +0.000 A 
ATOM     24  C   UNL     1      45.968   7.349  11.944  0.00  0.00    +0.000 A 
ATOM     25  S   UNL     1      44.579   6.711  11.182  0.00  0.00    +0.000 S 
ATOM     26  C   UNL     1      44.902   5.150  11.782  0.00  0.00    +0.000 A 
ATOM     27  N   UNL     1      44.064   4.107  11.538  0.00  0.00    +0.000 NA
ATOM     28  C   UNL     1      44.420   2.997  12.098  0.00  0.00    +0.000 A 
ATOM     29  N   UNL     1      45.539   2.825  12.865  0.00  0.00    +0.000 N 
ATOM     30  C   UNL     1      46.447   3.835  13.100  0.00  0.00    +0.000 A 
ATOM     31  O   UNL     1      47.479   3.625  13.716  0.00  0.00    +0.000 OA
ATOM     32  C   UNL     1      46.065   5.110  12.522  0.00  0.00    +0.000 A 
ATOM     33  H   UNL     1      45.775   1.928  13.258  0.00  0.00    +0.000 HD
ENDBRANCH  20  23
ENDBRANCH   1  19
BRANCH   1  35
ATOM     34  C   UNL     1      49.536   9.318  17.306  0.00  0.00    +0.000 C 
ATOM     35  C   UNL     1      48.445   8.976  16.322  0.00  0.00    +0.000 C 
ENDBRANCH   1  35
TORSDOF 7
ENDMDL
MODEL 8
REMARK VINA RESULT:    -5.942      3.782      6.089
REMARK INTER + INTRA:          -9.834
REMARK INTER:                  -8.221
REMARK INTRA:                  -1.613
REMARK UNBOUND:                -1.461
REMARK  Name = 
REMARK  8 active torsions:
REMARK  status: ('A' for Active; 'I' for Inactive)
REMARK    1  A    between atoms: C_1  and  C_2
REMARK    2  A    between atoms: C_2  and  C_3
REMARK    3  A    between atoms: C_3  and  N_4
REMARK    4  A    between atoms: C_3  and  C_17
REMARK    5  A    between atoms: C_5  and  C_7
REMARK    6  A    between atoms: C_20  and  C_21
REMARK    7  A    between atoms: C_21  and  N_22
REMARK    8  A    between atoms: C_23  and  C_25
REMARK                            x       y       z     vdW  Elec       q    Type
REMARK                         _______ _______ _______ _____ _____    ______ ____
ROOT
ATOM      1  C   UNL     1      46.195   5.351  13.317  0.00  0.00    +0.000 C 
ENDROOT
BRANCH   1   2
ATOM      2  C   UNL     1      46.570   6.718  12.777  0.00  0.00    +0.000 A 
ATOM      3  C   UNL     1      45.675   7.791  12.861  0.00  0.00    +0.000 A 
ATOM      4  C   UNL     1      46.062   9.073  12.451  0.00  0.00    +0.000 A 
ATOM      5  C   UNL     1      47.346   9.301  11.927  0.00  0.00    +0.000 A 
ATOM      6  C   UNL     1      48.227   8.224  11.827  0.00  0.00    +0.000 A 
ATOM      7  C   UNL     1      47.839   6.951  12.228  0.00  0.00    +0.000 A 
BRANCH   5   8
ATOM      8  C   UNL     1      47.804  10.660  11.465  0.00  0.00    +0.000 C 
BRANCH   8   9
ATOM      9  N   UNL     1      49.190  10.692  11.060  0.00  0.00    +0.000 N 
ATOM     10  C   UNL     1      50.158  11.091  11.957  0.00  0.00    +0.000 C 
ATOM     11  O   UNL     1      49.902  11.445  13.108  0.00  0.00    +0.000 OA
ATOM     12  H   UNL     1      49.487  10.082  10.310  0.00  0.00    +0.000 HD
BRANCH  10  13
ATOM     13  C   UNL     1      51.596  11.034  11.384  0.00  0.00    +0.000 C 
ATOM     14  C   UNL     1      52.612  10.602  12.426  0.00  0.00    +0.000 C 
ATOM     15  C   UNL     1      52.448   9.093  12.456  0.00  0.00    +0.000 C 
ATOM     16  C   UNL     1      51.956   8.728  11.061  0.00  0.00    +0.000 C 
ATOM     17  N   UNL     1      51.718   9.989  10.350  0.00  0.00    +0.000 NA
ATOM     18  H   UNL     1      50.836   9.928   9.836  0.00  0.00    +0.000 HD
ENDBRANCH  10  13
ENDBRANCH   8   9
ENDBRANCH   5   8
ENDBRANCH   1   2
BRANCH   1  19
ATOM     19  N   UNL     1      46.736   5.174  14.649  0.00  0.00    +0.000 N 
ATOM     20  C   UNL     1      47.320   4.018  15.069  0.00  0.00    +0.000 C 
ATOM     21  O   UNL     1      47.463   3.024  14.342  0.00  0.00    +0.000 OA
ATOM     22  H   UNL     1      46.509   5.890  15.338  0.00  0.00    +0.000 HD
BRANCH  20  23
ATOM     23  C   UNL     1      47.828   4.016  16.427  0.00  0.00    +0.000 A 
ATOM     24  C   UNL     1      47.378   3.098  17.362  0.00  0.00    +0.000 A 
ATOM     25  S   UNL     1      48.100   3.299  18.897  0.00  0.00    +0.000 S 
ATOM     26  C   UNL     1      49.004   4.638  18.356  0.00  0.00    +0.000 A 
ATOM     27  N   UNL     1      49.819   5.331  19.195  0.00  0.00    +0.000 NA
ATOM     28  C   UNL     1      50.401   6.348  18.649  0.00  0.00    +0.000 A 
ATOM     29  N   UNL     1      50.261   6.731  17.344  0.00  0.00    +0.000 N 
ATOM     30  C   UNL     1      49.488   6.033  16.440  0.00  0.00    +0.000 A 
ATOM     31  O   UNL     1      49.453   6.351  15.262  0.00  0.00    +0.000 OA
ATOM     32  C   UNL     1      48.784   4.906  17.021  0.00  0.00    +0.000 A 
ATOM     33  H   UNL     1      50.759   7.522  16.970  0.00  0.00    +0.000 HD
ENDBRANCH  20  23
ENDBRANCH   1  19
BRANCH   1  35
ATOM     34  C   UNL     1      44.270   3.960  12.401  0.00  0.00    +0.000 C 
ATOM     35  C   UNL     1      44.664   5.133  13.263  0.00  0.00    +0.000 C 
ENDBRANCH   1  35
TORSDOF 7
ENDMDL
