MODEL 1
REMARK VINA RESULT:    -6.830      0.000      0.000
REMARK INTER + INTRA:         -11.976
REMARK INTER:                  -9.825
REMARK INTRA:                  -2.152
REMARK UNBOUND:                -2.152
REMARK  Name = 
REMARK  8 active torsions:
REMARK  status: ('A' for Active; 'I' for Inactive)
REMARK    1  A    between atoms: C_2  and  C_24
REMARK    2  A    between atoms: N_3  and  C_4
REMARK    3  A    between atoms: C_4  and  N_5
REMARK    4  A    between atoms: C_8  and  C_9
REMARK    5  A    between atoms: C_9  and  N_10
REMARK    6  A    between atoms: C_11  and  C_13
REMARK    7  A    between atoms: CA_16  and  C_17
REMARK    8  A    between atoms: C_17  and  O_18
REMARK                            x       y       z     vdW  Elec       q    Type
REMARK                         _______ _______ _______ _____ _____    ______ ____
ROOT
ATOM      1  N   UNL     1      51.069   9.142  13.598  0.00  0.00    +0.000 NA
ATOM      2  C   UNL     1      50.347   8.213  12.709  0.00  0.00    +0.000 C 
ATOM      3  C   UNL     1      49.243   8.919  11.918  0.00  0.00    +0.000 C 
ATOM      4  C   UNL     1      48.240   9.630  12.836  0.00  0.00    +0.000 C 
ATOM      5  C   UNL     1      49.024  10.578  13.752  0.00  0.00    +0.000 C 
ATOM      6  C   UNL     1      50.151   9.860  14.500  0.00  0.00    +0.000 C 
ENDROOT
BRANCH   1   7
ATOM      7  C   UNL     1      52.047   8.427  14.420  0.00  0.00    +0.000 C 
BRANCH   7  10
ATOM      8  O   UNL     1      52.988   6.350  16.043  0.00  0.00    +0.000 OA
ATOM      9  C   UNL     1      51.856   6.789  16.227  0.00  0.00    +0.000 C 
ATOM     10  N   UNL     1      51.339   7.823  15.499  0.00  0.00    +0.000 N 
ATOM     11  H   UNL     1      50.357   8.058  15.547  0.00  0.00    +0.000 HD
BRANCH   9  12
ATOM     12  C   UNL     1      51.002   6.269  17.299  0.00  0.00    +0.000 A 
ATOM     13  C   UNL     1      51.491   6.190  18.596  0.00  0.00    +0.000 A 
ATOM     14  S   UNL     1      50.354   5.589  19.715  0.00  0.00    +0.000 S 
ATOM     15  C   UNL     1      49.181   5.393  18.502  0.00  0.00    +0.000 A 
ATOM     16  N   UNL     1      47.949   4.890  18.792  0.00  0.00    +0.000 NA
ATOM     17  C   UNL     1      47.164   4.774  17.773  0.00  0.00    +0.000 A 
ATOM     18  N   UNL     1      47.499   5.110  16.486  0.00  0.00    +0.000 N 
ATOM     19  C   UNL     1      48.721   5.640  16.148  0.00  0.00    +0.000 A 
ATOM     20  O   UNL     1      48.965   5.974  14.993  0.00  0.00    +0.000 OA
ATOM     21  C   UNL     1      49.642   5.784  17.256  0.00  0.00    +0.000 A 
ATOM     22  H   UNL     1      46.836   5.009  15.733  0.00  0.00    +0.000 HD
ENDBRANCH   9  12
ENDBRANCH   7  10
ENDBRANCH   1   7
BRANCH   4  23
ATOM     23  C   UNL     1      47.383   8.653  13.660  0.00  0.00    +0.000 C 
BRANCH  23  24
ATOM     24  N   UNL     1      47.228   7.375  13.002  0.00  0.00    +0.000 N 
ATOM     25  C   UNL     1      45.983   6.857  12.711  0.00  0.00    +0.000 C 
ATOM     26  O   UNL     1      44.944   7.485  12.889  0.00  0.00    +0.000 OA
ATOM     27  H   UNL     1      48.058   6.859  12.725  0.00  0.00    +0.000 HD
BRANCH  25  28
ATOM     28  C   UNL     1      46.018   5.442  12.148  0.00  0.00    +0.000 C 
ATOM     29  C   UNL     1      45.263   5.324  10.817  0.00  0.00    +0.000 C 
ATOM     30  C   UNL     1      43.748   5.284  11.020  0.00  0.00    +0.000 C 
ATOM     31  CA  UNL     1      43.349   4.193  12.014  0.00  0.00    +0.000 C 
ATOM     32  N   UNL     1      44.149   4.270  13.231  0.00  0.00    +0.000 N 
ATOM     33  C   UNL     1      45.502   4.467  13.188  0.00  0.00    +0.000 C 
ATOM     34  O   UNL     1      46.230   3.970  14.045  0.00  0.00    +0.000 OA
ATOM     35  H   UNL     1      43.835   3.706  14.011  0.00  0.00    +0.000 HD
BRANCH  31  36
ATOM     36  C   UNL     1      43.470   2.783  11.407  0.00  0.00    +0.000 C 
BRANCH  36  37
ATOM     37  O   UNL     1      43.460   1.804  12.447  0.00  0.00    +0.000 OA
ATOM     38  H   UNL     1      44.105   1.119  12.195  0.00  0.00    +0.000 HD
ENDBRANCH  36  37
ENDBRANCH  31  36
ENDBRANCH  25  28
ENDBRANCH  23  24
ENDBRANCH   4  23
TORSDOF 8
ENDMDL
MODEL 2
REMARK VINA RESULT:    -6.825      3.240      8.041
REMARK INTER + INTRA:         -11.969
REMARK INTER:                 -10.412
REMARK INTRA:                  -1.557
REMARK UNBOUND:                -2.152
REMARK  Name = 
REMARK  8 active torsions:
REMARK  status: ('A' for Active; 'I' for Inactive)
REMARK    1  A    between atoms: C_2  and  C_24
REMARK    2  A    between atoms: N_3  and  C_4
REMARK    3  A    between atoms: C_4  and  N_5
REMARK    4  A    between atoms: C_8  and  C_9
REMARK    5  A    between atoms: C_9  and  N_10
REMARK    6  A    between atoms: C_11  and  C_13
REMARK    7  A    between atoms: CA_16  and  C_17
REMARK    8  A    between atoms: C_17  and  O_18
REMARK                            x       y       z     vdW  Elec       q    Type
REMARK                         _______ _______ _______ _____ _____    ______ ____
ROOT
ATOM      1  N   UNL     1      48.882   3.879  16.588  0.00  0.00    +0.000 NA
ATOM      2  C   UNL     1      49.143   5.274  16.989  0.00  0.00    +0.000 C 
ATOM      3  C   UNL     1      50.640   5.561  17.125  0.00  0.00    +0.000 C 
ATOM      4  C   UNL     1      51.322   4.610  18.117  0.00  0.00    +0.000 C 
ATOM      5  C   UNL     1      51.023   3.171  17.678  0.00  0.00    +0.000 C 
ATOM      6  C   UNL     1      49.522   2.919  17.505  0.00  0.00    +0.000 C 
ENDROOT
BRANCH   1   7
ATOM      7  C   UNL     1      47.445   3.598  16.567  0.00  0.00    +0.000 C 
BRANCH   7  10
ATOM      8  O   UNL     1      47.191   3.187  13.811  0.00  0.00    +0.000 OA
ATOM      9  C   UNL     1      46.790   4.239  14.300  0.00  0.00    +0.000 C 
ATOM     10  N   UNL     1      46.848   4.499  15.639  0.00  0.00    +0.000 N 
ATOM     11  H   UNL     1      46.671   5.427  16.001  0.00  0.00    +0.000 HD
BRANCH   9  12
ATOM     12  C   UNL     1      46.151   5.268  13.474  0.00  0.00    +0.000 A 
ATOM     13  C   UNL     1      46.801   6.475  13.247  0.00  0.00    +0.000 A 
ATOM     14  S   UNL     1      45.925   7.541  12.245  0.00  0.00    +0.000 S 
ATOM     15  C   UNL     1      44.642   6.437  12.099  0.00  0.00    +0.000 A 
ATOM     16  N   UNL     1      43.534   6.742  11.368  0.00  0.00    +0.000 NA
ATOM     17  C   UNL     1      42.627   5.822  11.362  0.00  0.00    +0.000 A 
ATOM     18  N   UNL     1      42.723   4.625  12.022  0.00  0.00    +0.000 N 
ATOM     19  C   UNL     1      43.828   4.264  12.755  0.00  0.00    +0.000 A 
ATOM     20  O   UNL     1      43.897   3.162  13.290  0.00  0.00    +0.000 OA
ATOM     21  C   UNL     1      44.873   5.265  12.801  0.00  0.00    +0.000 A 
ATOM     22  H   UNL     1      41.985   3.939  11.966  0.00  0.00    +0.000 HD
ENDBRANCH   9  12
ENDBRANCH   7  10
ENDBRANCH   1   7
BRANCH   4  23
ATOM     23  C   UNL     1      50.880   4.843  19.573  0.00  0.00    +0.000 C 
BRANCH  23  24
ATOM     24  N   UNL     1      50.606   6.236  19.843  0.00  0.00    +0.000 N 
ATOM     25  C   UNL     1      49.407   6.646  20.388  0.00  0.00    +0.000 C 
ATOM     26  O   UNL     1      48.551   5.858  20.777  0.00  0.00    +0.000 OA
ATOM     27  H   UNL     1      51.324   6.928  19.648  0.00  0.00    +0.000 HD
BRANCH  25  28
ATOM     28  C   UNL     1      49.247   8.159  20.467  0.00  0.00    +0.000 C 
ATOM     29  C   UNL     1      47.776   8.589  20.507  0.00  0.00    +0.000 C 
ATOM     30  C   UNL     1      47.119   8.519  19.128  0.00  0.00    +0.000 C 
ATOM     31  CA  UNL     1      47.925   9.298  18.088  0.00  0.00    +0.000 C 
ATOM     32  N   UNL     1      49.337   8.939  18.137  0.00  0.00    +0.000 N 
ATOM     33  C   UNL     1      50.004   8.811  19.326  0.00  0.00    +0.000 C 
ATOM     34  O   UNL     1      51.197   9.095  19.402  0.00  0.00    +0.000 OA
ATOM     35  H   UNL     1      49.912   9.269  17.372  0.00  0.00    +0.000 HD
BRANCH  31  36
ATOM     36  C   UNL     1      47.775  10.821  18.263  0.00  0.00    +0.000 C 
BRANCH  36  37
ATOM     37  O   UNL     1      47.885  11.468  16.994  0.00  0.00    +0.000 OA
ATOM     38  H   UNL     1      48.151  10.785  16.352  0.00  0.00    +0.000 HD
ENDBRANCH  36  37
ENDBRANCH  31  36
ENDBRANCH  25  28
ENDBRANCH  23  24
ENDBRANCH   4  23
TORSDOF 8
ENDMDL
MODEL 3
REMARK VINA RESULT:    -6.727      2.400      6.894
REMARK INTER + INTRA:         -11.829
REMARK INTER:                  -9.990
REMARK INTRA:                  -1.839
REMARK UNBOUND:                -2.152
REMARK  Name = 
REMARK  8 active torsions:
REMARK  status: ('A' for Active; 'I' for Inactive)
REMARK    1  A    between atoms: C_2  and  C_24
REMARK    2  A    between atoms: N_3  and  C_4
REMARK    3  A    between atoms: C_4  and  N_5
REMARK    4  A    between atoms: C_8  and  C_9
REMARK    5  A    between atoms: C_9  and  N_10
REMARK    6  A    between atoms: C_11  and  C_13
REMARK    7  A    between atoms: CA_16  and  C_17
REMARK    8  A    between atoms: C_17  and  O_18
REMARK                            x       y       z     vdW  Elec       q    Type
REMARK                         _______ _______ _______ _____ _____    ______ ____
ROOT
ATOM      1  N   UNL     1      48.152   4.300  17.571  0.00  0.00    +0.000 NA
ATOM      2  C   UNL     1      49.252   5.113  17.019  0.00  0.00    +0.000 C 
ATOM      3  C   UNL     1      49.877   6.025  18.077  0.00  0.00    +0.000 C 
ATOM      4  C   UNL     1      48.840   6.946  18.732  0.00  0.00    +0.000 C 
ATOM      5  C   UNL     1      47.708   6.070  19.285  0.00  0.00    +0.000 C 
ATOM      6  C   UNL     1      47.127   5.135  18.220  0.00  0.00    +0.000 C 
ENDROOT
BRANCH   1   7
ATOM      7  C   UNL     1      47.501   3.515  16.520  0.00  0.00    +0.000 C 
BRANCH   7  10
ATOM      8  O   UNL     1      47.178   3.164  13.763  0.00  0.00    +0.000 OA
ATOM      9  C   UNL     1      46.782   4.202  14.286  0.00  0.00    +0.000 C 
ATOM     10  N   UNL     1      46.874   4.432  15.629  0.00  0.00    +0.000 N 
ATOM     11  H   UNL     1      46.700   5.350  16.017  0.00  0.00    +0.000 HD
BRANCH   9  12
ATOM     12  C   UNL     1      46.114   5.245  13.501  0.00  0.00    +0.000 A 
ATOM     13  C   UNL     1      46.716   6.487  13.348  0.00  0.00    +0.000 A 
ATOM     14  S   UNL     1      45.814   7.566  12.384  0.00  0.00    +0.000 S 
ATOM     15  C   UNL     1      44.580   6.419  12.160  0.00  0.00    +0.000 A 
ATOM     16  N   UNL     1      43.472   6.715  11.425  0.00  0.00    +0.000 NA
ATOM     17  C   UNL     1      42.605   5.760  11.355  0.00  0.00    +0.000 A 
ATOM     18  N   UNL     1      42.740   4.536  11.957  0.00  0.00    +0.000 N 
ATOM     19  C   UNL     1      43.848   4.184  12.690  0.00  0.00    +0.000 A 
ATOM     20  O   UNL     1      43.953   3.060  13.171  0.00  0.00    +0.000 OA
ATOM     21  C   UNL     1      44.849   5.223  12.806  0.00  0.00    +0.000 A 
ATOM     22  H   UNL     1      42.033   3.824  11.853  0.00  0.00    +0.000 HD
ENDBRANCH   9  12
ENDBRANCH   7  10
ENDBRANCH   1   7
BRANCH   4  23
ATOM     23  C   UNL     1      48.288   8.011  17.767  0.00  0.00    +0.000 C 
BRANCH  23  24
ATOM     24  N   UNL     1      49.294   8.480  16.841  0.00  0.00    +0.000 N 
ATOM     25  C   UNL     1      48.955   9.049  15.631  0.00  0.00    +0.000 C 
ATOM     26  O   UNL     1      47.795   9.292  15.313  0.00  0.00    +0.000 OA
ATOM     27  H   UNL     1      50.274   8.411  17.100  0.00  0.00    +0.000 HD
BRANCH  25  28
ATOM     28  C   UNL     1      50.148   9.350  14.733  0.00  0.00    +0.000 C 
ATOM     29  C   UNL     1      49.754  10.155  13.488  0.00  0.00    +0.000 C 
ATOM     30  C   UNL     1      49.085   9.279  12.428  0.00  0.00    +0.000 C 
ATOM     31  CA  UNL     1      49.947   8.063  12.086  0.00  0.00    +0.000 C 
ATOM     32  N   UNL     1      50.388   7.373  13.292  0.00  0.00    +0.000 N 
ATOM     33  C   UNL     1      50.859   8.058  14.379  0.00  0.00    +0.000 C 
ATOM     34  O   UNL     1      51.728   7.566  15.095  0.00  0.00    +0.000 OA
ATOM     35  H   UNL     1      50.809   6.462  13.161  0.00  0.00    +0.000 HD
BRANCH  31  36
ATOM     36  C   UNL     1      51.172   8.444  11.234  0.00  0.00    +0.000 C 
BRANCH  36  37
ATOM     37  O   UNL     1      52.073   7.338  11.159  0.00  0.00    +0.000 OA
ATOM     38  H   UNL     1      52.321   7.239  10.222  0.00  0.00    +0.000 HD
ENDBRANCH  36  37
ENDBRANCH  31  36
ENDBRANCH  25  28
ENDBRANCH  23  24
ENDBRANCH   4  23
TORSDOF 8
ENDMDL
MODEL 4
REMARK VINA RESULT:    -6.646      1.913      2.466
REMARK INTER + INTRA:         -11.712
REMARK INTER:                  -9.928
REMARK INTRA:                  -1.784
REMARK UNBOUND:                -2.152
REMARK  Name = 
REMARK  8 active torsions:
REMARK  status: ('A' for Active; 'I' for Inactive)
REMARK    1  A    between atoms: C_2  and  C_24
REMARK    2  A    between atoms: N_3  and  C_4
REMARK    3  A    between atoms: C_4  and  N_5
REMARK    4  A    between atoms: C_8  and  C_9
REMARK    5  A    between atoms: C_9  and  N_10
REMARK    6  A    between atoms: C_11  and  C_13
REMARK    7  A    between atoms: CA_16  and  C_17
REMARK    8  A    between atoms: C_17  and  O_18
REMARK                            x       y       z     vdW  Elec       q    Type
REMARK                         _______ _______ _______ _____ _____    ______ ____
ROOT
ATOM      1  N   UNL     1      49.947   9.153  14.727  0.00  0.00    +0.000 NA
ATOM      2  C   UNL     1      49.661   7.957  13.913  0.00  0.00    +0.000 C 
ATOM      3  C   UNL     1      49.657   8.270  12.415  0.00  0.00    +0.000 C 
ATOM      4  C   UNL     1      48.658   9.379  12.060  0.00  0.00    +0.000 C 
ATOM      5  C   UNL     1      48.977  10.602  12.930  0.00  0.00    +0.000 C 
ATOM      6  C   UNL     1      49.019  10.256  14.422  0.00  0.00    +0.000 C 
ENDROOT
BRANCH   1   7
ATOM      7  C   UNL     1      49.842   8.853  16.156  0.00  0.00    +0.000 C 
BRANCH   7  10
ATOM      8  O   UNL     1      48.444   7.589  18.224  0.00  0.00    +0.000 OA
ATOM      9  C   UNL     1      48.957   6.906  17.342  0.00  0.00    +0.000 C 
ATOM     10  N   UNL     1      49.626   7.451  16.284  0.00  0.00    +0.000 N 
ATOM     11  H   UNL     1      50.182   6.877  15.664  0.00  0.00    +0.000 HD
BRANCH   9  12
ATOM     12  C   UNL     1      48.824   5.446  17.334  0.00  0.00    +0.000 A 
ATOM     13  C   UNL     1      47.563   4.867  17.279  0.00  0.00    +0.000 A 
ATOM     14  S   UNL     1      47.599   3.163  17.250  0.00  0.00    +0.000 S 
ATOM     15  C   UNL     1      49.296   3.142  17.334  0.00  0.00    +0.000 A 
ATOM     16  N   UNL     1      49.983   1.966  17.364  0.00  0.00    +0.000 NA
ATOM     17  C   UNL     1      51.264   2.097  17.451  0.00  0.00    +0.000 A 
ATOM     18  N   UNL     1      51.925   3.296  17.517  0.00  0.00    +0.000 N 
ATOM     19  C   UNL     1      51.278   4.508  17.470  0.00  0.00    +0.000 A 
ATOM     20  O   UNL     1      51.909   5.560  17.482  0.00  0.00    +0.000 OA
ATOM     21  C   UNL     1      49.836   4.417  17.379  0.00  0.00    +0.000 A 
ATOM     22  H   UNL     1      52.932   3.334  17.570  0.00  0.00    +0.000 HD
ENDBRANCH   9  12
ENDBRANCH   7  10
ENDBRANCH   1   7
BRANCH   4  23
ATOM     23  C   UNL     1      47.192   8.947  12.238  0.00  0.00    +0.000 C 
BRANCH  23  24
ATOM     24  N   UNL     1      46.971   7.582  11.816  0.00  0.00    +0.000 N 
ATOM     25  C   UNL     1      45.935   6.825  12.322  0.00  0.00    +0.000 C 
ATOM     26  O   UNL     1      45.079   7.287  13.070  0.00  0.00    +0.000 OA
ATOM     27  H   UNL     1      47.580   7.179  11.109  0.00  0.00    +0.000 HD
BRANCH  25  28
ATOM     28  C   UNL     1      45.949   5.372  11.866  0.00  0.00    +0.000 C 
ATOM     29  C   UNL     1      45.141   5.155  10.581  0.00  0.00    +0.000 C 
ATOM     30  C   UNL     1      43.635   5.133  10.848  0.00  0.00    +0.000 C 
ATOM     31  CA  UNL     1      43.278   4.121  11.937  0.00  0.00    +0.000 C 
ATOM     32  N   UNL     1      44.127   4.287  13.110  0.00  0.00    +0.000 N 
ATOM     33  C   UNL     1      45.478   4.478  12.997  0.00  0.00    +0.000 C 
ATOM     34  O   UNL     1      46.240   4.047  13.859  0.00  0.00    +0.000 OA
ATOM     35  H   UNL     1      43.847   3.784  13.943  0.00  0.00    +0.000 HD
BRANCH  31  36
ATOM     36  C   UNL     1      43.377   2.669  11.432  0.00  0.00    +0.000 C 
BRANCH  36  37
ATOM     37  O   UNL     1      43.393   1.770  12.542  0.00  0.00    +0.000 OA
ATOM     38  H   UNL     1      44.080   1.104  12.356  0.00  0.00    +0.000 HD
ENDBRANCH  36  37
ENDBRANCH  31  36
ENDBRANCH  25  28
ENDBRANCH  23  24
ENDBRANCH   4  23
TORSDOF 8
ENDMDL
MODEL 5
REMARK VINA RESULT:    -6.562      3.121      7.310
REMARK INTER + INTRA:         -11.591
REMARK INTER:                 -10.134
REMARK INTRA:                  -1.456
REMARK UNBOUND:                -2.152
REMARK  Name = 
REMARK  8 active torsions:
REMARK  status: ('A' for Active; 'I' for Inactive)
REMARK    1  A    between atoms: C_2  and  C_24
REMARK    2  A    between atoms: N_3  and  C_4
REMARK    3  A    between atoms: C_4  and  N_5
REMARK    4  A    between atoms: C_8  and  C_9
REMARK    5  A    between atoms: C_9  and  N_10
REMARK    6  A    between atoms: C_11  and  C_13
REMARK    7  A    between atoms: CA_16  and  C_17
REMARK    8  A    between atoms: C_17  and  O_18
REMARK                            x       y       z     vdW  Elec       q    Type
REMARK                         _______ _______ _______ _____ _____    ______ ____
ROOT
ATOM      1  N   UNL     1      47.763   8.081  12.578  0.00  0.00    +0.000 NA
ATOM      2  C   UNL     1      48.230   9.411  13.013  0.00  0.00    +0.000 C 
ATOM      3  C   UNL     1      49.635   9.357  13.616  0.00  0.00    +0.000 C 
ATOM      4  C   UNL     1      49.719   8.377  14.794  0.00  0.00    +0.000 C 
ATOM      5  C   UNL     1      49.218   7.010  14.311  0.00  0.00    +0.000 C 
ATOM      6  C   UNL     1      47.830   7.095  13.671  0.00  0.00    +0.000 C 
ENDROOT
BRANCH   1   7
ATOM      7  C   UNL     1      46.380   8.140  12.102  0.00  0.00    +0.000 C 
BRANCH   7  10
ATOM      8  O   UNL     1      43.806   7.341  11.350  0.00  0.00    +0.000 OA
ATOM      9  C   UNL     1      44.681   6.491  11.488  0.00  0.00    +0.000 C 
ATOM     10  N   UNL     1      45.968   6.806  11.819  0.00  0.00    +0.000 N 
ATOM     11  H   UNL     1      46.629   6.090  12.091  0.00  0.00    +0.000 HD
BRANCH   9  12
ATOM     12  C   UNL     1      44.413   5.072  11.234  0.00  0.00    +0.000 A 
ATOM     13  C   UNL     1      43.647   4.342  12.133  0.00  0.00    +0.000 A 
ATOM     14  S   UNL     1      43.415   2.718  11.667  0.00  0.00    +0.000 S 
ATOM     15  C   UNL     1      44.348   2.931  10.262  0.00  0.00    +0.000 A 
ATOM     16  N   UNL     1      44.567   1.898   9.402  0.00  0.00    +0.000 NA
ATOM     17  C   UNL     1      45.311   2.194   8.389  0.00  0.00    +0.000 A 
ATOM     18  N   UNL     1      45.863   3.428   8.157  0.00  0.00    +0.000 N 
ATOM     19  C   UNL     1      45.654   4.505   8.985  0.00  0.00    +0.000 A 
ATOM     20  O   UNL     1      46.124   5.606   8.716  0.00  0.00    +0.000 OA
ATOM     21  C   UNL     1      44.830   4.225  10.142  0.00  0.00    +0.000 A 
ATOM     22  H   UNL     1      46.425   3.601   7.338  0.00  0.00    +0.000 HD
ENDBRANCH   9  12
ENDBRANCH   7  10
ENDBRANCH   1   7
BRANCH   4  23
ATOM     23  C   UNL     1      48.926   8.848  16.026  0.00  0.00    +0.000 C 
BRANCH  23  24
ATOM     24  N   UNL     1      48.625   7.760  16.929  0.00  0.00    +0.000 N 
ATOM     25  C   UNL     1      49.457   7.441  17.982  0.00  0.00    +0.000 C 
ATOM     26  O   UNL     1      50.435   8.118  18.284  0.00  0.00    +0.000 OA
ATOM     27  H   UNL     1      47.766   7.234  16.798  0.00  0.00    +0.000 HD
BRANCH  25  28
ATOM     28  C   UNL     1      49.049   6.181  18.734  0.00  0.00    +0.000 C 
ATOM     29  C   UNL     1      49.978   4.997  18.436  0.00  0.00    +0.000 C 
ATOM     30  C   UNL     1      49.686   4.367  17.074  0.00  0.00    +0.000 C 
ATOM     31  CA  UNL     1      48.209   3.996  16.938  0.00  0.00    +0.000 C 
ATOM     32  N   UNL     1      47.348   5.108  17.320  0.00  0.00    +0.000 N 
ATOM     33  C   UNL     1      47.597   5.858  18.437  0.00  0.00    +0.000 C 
ATOM     34  O   UNL     1      46.669   6.346  19.077  0.00  0.00    +0.000 OA
ATOM     35  H   UNL     1      46.366   5.015  17.092  0.00  0.00    +0.000 HD
BRANCH  31  36
ATOM     36  C   UNL     1      47.846   2.754  17.774  0.00  0.00    +0.000 C 
BRANCH  36  37
ATOM     37  O   UNL     1      46.427   2.588  17.804  0.00  0.00    +0.000 OA
ATOM     38  H   UNL     1      46.176   2.161  16.966  0.00  0.00    +0.000 HD
ENDBRANCH  36  37
ENDBRANCH  31  36
ENDBRANCH  25  28
ENDBRANCH  23  24
ENDBRANCH   4  23
TORSDOF 8
ENDMDL
MODEL 6
REMARK VINA RESULT:    -6.550      2.599      3.011
REMARK INTER + INTRA:         -11.574
REMARK INTER:                 -11.023
REMARK INTRA:                  -0.551
REMARK UNBOUND:                -2.152
REMARK  Name = 
REMARK  8 active torsions:
REMARK  status: ('A' for Active; 'I' for Inactive)
REMARK    1  A    between atoms: C_2  and  C_24
REMARK    2  A    between atoms: N_3  and  C_4
REMARK    3  A    between atoms: C_4  and  N_5
REMARK    4  A    between atoms: C_8  and  C_9
REMARK    5  A    between atoms: C_9  and  N_10
REMARK    6  A    between atoms: C_11  and  C_13
REMARK    7  A    between atoms: CA_16  and  C_17
REMARK    8  A    between atoms: C_17  and  O_18
REMARK                            x       y       z     vdW  Elec       q    Type
REMARK                         _______ _______ _______ _____ _____    ______ ____
ROOT
ATOM      1  N   UNL     1      49.185   7.802  15.521  0.00  0.00    +0.000 NA
ATOM      2  C   UNL     1      49.103   7.027  14.269  0.00  0.00    +0.000 C 
ATOM      3  C   UNL     1      49.517   7.858  13.052  0.00  0.00    +0.000 C 
ATOM      4  C   UNL     1      48.681   9.138  12.917  0.00  0.00    +0.000 C 
ATOM      5  C   UNL     1      48.780   9.913  14.237  0.00  0.00    +0.000 C 
ATOM      6  C   UNL     1      48.404   9.049  15.445  0.00  0.00    +0.000 C 
ENDROOT
BRANCH   1   7
ATOM      7  C   UNL     1      48.686   7.021  16.655  0.00  0.00    +0.000 C 
BRANCH   7  10
ATOM      8  O   UNL     1      48.868   4.236  16.846  0.00  0.00    +0.000 OA
ATOM      9  C   UNL     1      49.787   4.928  17.276  0.00  0.00    +0.000 C 
ATOM     10  N   UNL     1      49.786   6.291  17.189  0.00  0.00    +0.000 N 
ATOM     11  H   UNL     1      50.462   6.849  17.693  0.00  0.00    +0.000 HD
BRANCH   9  12
ATOM     12  C   UNL     1      50.990   4.323  17.857  0.00  0.00    +0.000 A 
ATOM     13  C   UNL     1      51.844   5.093  18.636  0.00  0.00    +0.000 A 
ATOM     14  S   UNL     1      53.175   4.222  19.249  0.00  0.00    +0.000 S 
ATOM     15  C   UNL     1      52.667   2.796  18.478  0.00  0.00    +0.000 A 
ATOM     16  N   UNL     1      53.389   1.646  18.584  0.00  0.00    +0.000 NA
ATOM     17  C   UNL     1      52.901   0.646  17.929  0.00  0.00    +0.000 A 
ATOM     18  N   UNL     1      51.759   0.688  17.171  0.00  0.00    +0.000 N 
ATOM     19  C   UNL     1      50.987   1.819  17.051  0.00  0.00    +0.000 A 
ATOM     20  O   UNL     1      49.944   1.804  16.404  0.00  0.00    +0.000 OA
ATOM     21  C   UNL     1      51.494   2.974  17.762  0.00  0.00    +0.000 A 
ATOM     22  H   UNL     1      51.420  -0.133  16.694  0.00  0.00    +0.000 HD
ENDBRANCH   9  12
ENDBRANCH   7  10
ENDBRANCH   1   7
BRANCH   4  23
ATOM     23  C   UNL     1      47.212   8.860  12.552  0.00  0.00    +0.000 C 
BRANCH  23  24
ATOM     24  N   UNL     1      47.032   7.546  11.977  0.00  0.00    +0.000 N 
ATOM     25  C   UNL     1      45.944   6.759  12.291  0.00  0.00    +0.000 C 
ATOM     26  O   UNL     1      45.014   7.160  12.985  0.00  0.00    +0.000 OA
ATOM     27  H   UNL     1      47.713   7.205  11.304  0.00  0.00    +0.000 HD
BRANCH  25  28
ATOM     28  C   UNL     1      46.001   5.357  11.699  0.00  0.00    +0.000 C 
ATOM     29  C   UNL     1      45.125   5.216  10.448  0.00  0.00    +0.000 C 
ATOM     30  C   UNL     1      43.642   5.086  10.798  0.00  0.00    +0.000 C 
ATOM     31  CA  UNL     1      43.405   3.960  11.805  0.00  0.00    +0.000 C 
ATOM     32  N   UNL     1      44.317   4.064  12.937  0.00  0.00    +0.000 N 
ATOM     33  C   UNL     1      45.646   4.339  12.765  0.00  0.00    +0.000 C 
ATOM     34  O   UNL     1      46.482   3.873  13.536  0.00  0.00    +0.000 OA
ATOM     35  H   UNL     1      44.115   3.472  13.734  0.00  0.00    +0.000 HD
BRANCH  31  36
ATOM     36  C   UNL     1      43.543   2.568  11.160  0.00  0.00    +0.000 C 
BRANCH  36  37
ATOM     37  O   UNL     1      43.117   1.562  12.081  0.00  0.00    +0.000 OA
ATOM     38  H   UNL     1      42.215   1.800  12.359  0.00  0.00    +0.000 HD
ENDBRANCH  36  37
ENDBRANCH  31  36
ENDBRANCH  25  28
ENDBRANCH  23  24
ENDBRANCH   4  23
TORSDOF 8
ENDMDL
MODEL 7
REMARK VINA RESULT:    -6.456      1.517      2.067
REMARK INTER + INTRA:         -11.439
REMARK INTER:                  -9.277
REMARK INTRA:                  -2.162
REMARK UNBOUND:                -2.152
REMARK  Name = 
REMARK  8 active torsions:
REMARK  status: ('A' for Active; 'I' for Inactive)
REMARK    1  A    between atoms: C_2  and  C_24
REMARK    2  A    between atoms: N_3  and  C_4
REMARK    3  A    between atoms: C_4  and  N_5
REMARK    4  A    between atoms: C_8  and  C_9
REMARK    5  A    between atoms: C_9  and  N_10
REMARK    6  A    between atoms: C_11  and  C_13
REMARK    7  A    between atoms: CA_16  and  C_17
REMARK    8  A    between atoms: C_17  and  O_18
REMARK                            x       y       z     vdW  Elec       q    Type
REMARK                         _______ _______ _______ _____ _____    ______ ____
ROOT
ATOM      1  N   UNL     1      51.254   9.546  14.351  0.00  0.00    +0.000 NA
ATOM      2  C   UNL     1      51.852   8.689  13.311  0.00  0.00    +0.000 C 
ATOM      3  C   UNL     1      51.237   8.946  11.933  0.00  0.00    +0.000 C 
ATOM      4  C   UNL     1      49.714   8.756  11.937  0.00  0.00    +0.000 C 
ATOM      5  C   UNL     1      49.127   9.652  13.034  0.00  0.00    +0.000 C 
ATOM      6  C   UNL     1      49.787   9.409  14.395  0.00  0.00    +0.000 C 
ENDROOT
BRANCH   1   7
ATOM      7  C   UNL     1      51.781   9.210  15.675  0.00  0.00    +0.000 C 
BRANCH   7  10
ATOM      8  O   UNL     1      52.380   7.793  18.012  0.00  0.00    +0.000 OA
ATOM      9  C   UNL     1      51.741   7.239  17.122  0.00  0.00    +0.000 C 
ATOM     10  N   UNL     1      51.382   7.875  15.968  0.00  0.00    +0.000 N 
ATOM     11  H   UNL     1      51.007   7.361  15.182  0.00  0.00    +0.000 HD
BRANCH   9  12
ATOM     12  C   UNL     1      51.258   5.863  17.274  0.00  0.00    +0.000 A 
ATOM     13  C   UNL     1      52.154   4.845  17.575  0.00  0.00    +0.000 A 
ATOM     14  S   UNL     1      51.416   3.317  17.740  0.00  0.00    +0.000 S 
ATOM     15  C   UNL     1      49.881   3.960  17.392  0.00  0.00    +0.000 A 
ATOM     16  N   UNL     1      48.778   3.161  17.354  0.00  0.00    +0.000 NA
ATOM     17  C   UNL     1      47.683   3.776  17.055  0.00  0.00    +0.000 A 
ATOM     18  N   UNL     1      47.587   5.117  16.786  0.00  0.00    +0.000 N 
ATOM     19  C   UNL     1      48.667   5.966  16.832  0.00  0.00    +0.000 A 
ATOM     20  O   UNL     1      48.531   7.169  16.634  0.00  0.00    +0.000 OA
ATOM     21  C   UNL     1      49.923   5.324  17.156  0.00  0.00    +0.000 A 
ATOM     22  H   UNL     1      46.698   5.543  16.573  0.00  0.00    +0.000 HD
ENDBRANCH   9  12
ENDBRANCH   7  10
ENDBRANCH   1   7
BRANCH   4  23
ATOM     23  C   UNL     1      49.292   7.290  12.139  0.00  0.00    +0.000 C 
BRANCH  23  24
ATOM     24  N   UNL     1      47.865   7.155  12.324  0.00  0.00    +0.000 N 
ATOM     25  C   UNL     1      47.321   6.095  13.018  0.00  0.00    +0.000 C 
ATOM     26  O   UNL     1      48.007   5.267  13.611  0.00  0.00    +0.000 OA
ATOM     27  H   UNL     1      47.249   7.874  11.954  0.00  0.00    +0.000 HD
BRANCH  25  28
ATOM     28  C   UNL     1      45.799   6.048  12.985  0.00  0.00    +0.000 C 
ATOM     29  C   UNL     1      45.250   4.658  13.331  0.00  0.00    +0.000 C 
ATOM     30  C   UNL     1      45.377   3.683  12.160  0.00  0.00    +0.000 C 
ATOM     31  CA  UNL     1      44.751   4.257  10.889  0.00  0.00    +0.000 C 
ATOM     32  N   UNL     1      45.217   5.615  10.637  0.00  0.00    +0.000 N 
ATOM     33  C   UNL     1      45.303   6.541  11.640  0.00  0.00    +0.000 C 
ATOM     34  O   UNL     1      45.111   7.732  11.404  0.00  0.00    +0.000 OA
ATOM     35  H   UNL     1      44.997   6.004   9.728  0.00  0.00    +0.000 HD
BRANCH  31  36
ATOM     36  C   UNL     1      43.212   4.243  10.945  0.00  0.00    +0.000 C 
BRANCH  36  37
ATOM     37  O   UNL     1      42.756   2.988  11.451  0.00  0.00    +0.000 OA
ATOM     38  H   UNL     1      42.476   3.140  12.371  0.00  0.00    +0.000 HD
ENDBRANCH  36  37
ENDBRANCH  31  36
ENDBRANCH  25  28
ENDBRANCH  23  24
ENDBRANCH   4  23
TORSDOF 8
ENDMDL
MODEL 8
REMARK VINA RESULT:    -6.284      2.857      6.101
REMARK INTER + INTRA:         -11.191
REMARK INTER:                  -8.863
REMARK INTRA:                  -2.329
REMARK UNBOUND:                -2.152
REMARK  Name = 
REMARK  8 active torsions:
REMARK  status: ('A' for Active; 'I' for Inactive)
REMARK    1  A    between atoms: C_2  and  C_24
REMARK    2  A    between atoms: N_3  and  C_4
REMARK    3  A    between atoms: C_4  and  N_5
REMARK    4  A    between atoms: C_8  and  C_9
REMARK    5  A    between atoms: C_9  and  N_10
REMARK    6  A    between atoms: C_11  and  C_13
REMARK    7  A    between atoms: CA_16  and  C_17
REMARK    8  A    between atoms: C_17  and  O_18
REMARK                            x       y       z     vdW  Elec       q    Type
REMARK                         _______ _______ _______ _____ _____    ______ ____
ROOT
ATOM      1  N   UNL     1      50.597   9.093  15.368  0.00  0.00    +0.000 NA
ATOM      2  C   UNL     1      49.637  10.085  15.889  0.00  0.00    +0.000 C 
ATOM      3  C   UNL     1      49.675  10.173  17.416  0.00  0.00    +0.000 C 
ATOM      4  C   UNL     1      49.414   8.814  18.079  0.00  0.00    +0.000 C 
ATOM      5  C   UNL     1      50.421   7.807  17.509  0.00  0.00    +0.000 C 
ATOM      6  C   UNL     1      50.397   7.767  15.978  0.00  0.00    +0.000 C 
ENDROOT
BRANCH   1   7
ATOM      7  C   UNL     1      50.469   8.951  13.916  0.00  0.00    +0.000 C 
BRANCH   7  10
ATOM      8  O   UNL     1      49.553   6.985  12.149  0.00  0.00    +0.000 OA
ATOM      9  C   UNL     1      48.737   7.693  12.733  0.00  0.00    +0.000 C 
ATOM     10  N   UNL     1      49.106   8.650  13.635  0.00  0.00    +0.000 N 
ATOM     11  H   UNL     1      48.441   9.332  13.977  0.00  0.00    +0.000 HD
BRANCH   9  12
ATOM     12  C   UNL     1      47.295   7.508  12.548  0.00  0.00    +0.000 A 
ATOM     13  C   UNL     1      46.541   8.505  11.942  0.00  0.00    +0.000 A 
ATOM     14  S   UNL     1      44.891   8.109  11.786  0.00  0.00    +0.000 S 
ATOM     15  C   UNL     1      45.123   6.605  12.540  0.00  0.00    +0.000 A 
ATOM     16  N   UNL     1      44.080   5.752  12.742  0.00  0.00    +0.000 NA
ATOM     17  C   UNL     1      44.395   4.655  13.346  0.00  0.00    +0.000 A 
ATOM     18  N   UNL     1      45.657   4.332  13.774  0.00  0.00    +0.000 N 
ATOM     19  C   UNL     1      46.743   5.149  13.575  0.00  0.00    +0.000 A 
ATOM     20  O   UNL     1      47.866   4.802  13.928  0.00  0.00    +0.000 OA
ATOM     21  C   UNL     1      46.443   6.398  12.907  0.00  0.00    +0.000 A 
ATOM     22  H   UNL     1      45.843   3.451  14.228  0.00  0.00    +0.000 HD
ENDBRANCH   9  12
ENDBRANCH   7  10
ENDBRANCH   1   7
BRANCH   4  23
ATOM     23  C   UNL     1      47.970   8.318  17.884  0.00  0.00    +0.000 C 
BRANCH  23  24
ATOM     24  N   UNL     1      47.881   6.875  17.917  0.00  0.00    +0.000 N 
ATOM     25  C   UNL     1      47.582   6.195  19.080  0.00  0.00    +0.000 C 
ATOM     26  O   UNL     1      47.268   6.764  20.120  0.00  0.00    +0.000 OA
ATOM     27  H   UNL     1      48.018   6.352  17.058  0.00  0.00    +0.000 HD
BRANCH  25  28
ATOM     28  C   UNL     1      47.673   4.680  18.951  0.00  0.00    +0.000 C 
ATOM     29  C   UNL     1      48.925   4.110  19.629  0.00  0.00    +0.000 C 
ATOM     30  C   UNL     1      50.183   4.330  18.787  0.00  0.00    +0.000 C 
ATOM     31  CA  UNL     1      50.000   3.800  17.365  0.00  0.00    +0.000 C 
ATOM     32  N   UNL     1      48.754   4.280  16.780  0.00  0.00    +0.000 N 
ATOM     33  C   UNL     1      47.584   4.286  17.489  0.00  0.00    +0.000 C 
ATOM     34  O   UNL     1      46.510   4.109  16.918  0.00  0.00    +0.000 OA
ATOM     35  H   UNL     1      48.636   4.129  15.785  0.00  0.00    +0.000 HD
BRANCH  31  36
ATOM     36  C   UNL     1      50.034   2.262  17.311  0.00  0.00    +0.000 C 
BRANCH  36  37
ATOM     37  O   UNL     1      49.656   1.813  16.009  0.00  0.00    +0.000 OA
ATOM     38  H   UNL     1      50.340   1.183  15.719  0.00  0.00    +0.000 HD
ENDBRANCH  36  37
ENDBRANCH  31  36
ENDBRANCH  25  28
ENDBRANCH  23  24
ENDBRANCH   4  23
TORSDOF 8
ENDMDL
MODEL 9
REMARK VINA RESULT:    -6.193      2.596      6.531
REMARK INTER + INTRA:         -11.060
REMARK INTER:                  -9.870
REMARK INTRA:                  -1.189
REMARK UNBOUND:                -2.152
REMARK  Name = 
REMARK  8 active torsions:
REMARK  status: ('A' for Active; 'I' for Inactive)
REMARK    1  A    between atoms: C_2  and  C_24
REMARK    2  A    between atoms: N_3  and  C_4
REMARK    3  A    between atoms: C_4  and  N_5
REMARK    4  A    between atoms: C_8  and  C_9
REMARK    5  A    between atoms: C_9  and  N_10
REMARK    6  A    between atoms: C_11  and  C_13
REMARK    7  A    between atoms: CA_16  and  C_17
REMARK    8  A    between atoms: C_17  and  O_18
REMARK                            x       y       z     vdW  Elec       q    Type
REMARK                         _______ _______ _______ _____ _____    ______ ____
ROOT
ATOM      1  N   UNL     1      49.413   8.577  14.126  0.00  0.00    +0.000 NA
ATOM      2  C   UNL     1      48.778   8.249  15.417  0.00  0.00    +0.000 C 
ATOM      3  C   UNL     1      48.771   9.444  16.372  0.00  0.00    +0.000 C 
ATOM      4  C   UNL     1      50.183   9.992  16.621  0.00  0.00    +0.000 C 
ATOM      5  C   UNL     1      50.816  10.312  15.261  0.00  0.00    +0.000 C 
ATOM      6  C   UNL     1      50.772   9.115  14.306  0.00  0.00    +0.000 C 
ENDROOT
BRANCH   1   7
ATOM      7  C   UNL     1      49.502   7.392  13.270  0.00  0.00    +0.000 C 
BRANCH   7  10
ATOM      8  O   UNL     1      47.805   5.341  14.129  0.00  0.00    +0.000 OA
ATOM      9  C   UNL     1      47.438   6.082  13.222  0.00  0.00    +0.000 C 
ATOM     10  N   UNL     1      48.195   7.125  12.771  0.00  0.00    +0.000 N 
ATOM     11  H   UNL     1      47.956   7.617  11.920  0.00  0.00    +0.000 HD
BRANCH   9  12
ATOM     12  C   UNL     1      46.117   5.934  12.604  0.00  0.00    +0.000 A 
ATOM     13  C   UNL     1      45.456   7.051  12.109  0.00  0.00    +0.000 A 
ATOM     14  S   UNL     1      43.947   6.690  11.403  0.00  0.00    +0.000 S 
ATOM     15  C   UNL     1      44.116   5.036  11.754  0.00  0.00    +0.000 A 
ATOM     16  N   UNL     1      43.141   4.145  11.421  0.00  0.00    +0.000 NA
ATOM     17  C   UNL     1      43.390   2.926  11.767  0.00  0.00    +0.000 A 
ATOM     18  N   UNL     1      44.522   2.514  12.421  0.00  0.00    +0.000 N 
ATOM     19  C   UNL     1      45.542   3.372  12.759  0.00  0.00    +0.000 A 
ATOM     20  O   UNL     1      46.562   2.956  13.299  0.00  0.00    +0.000 OA
ATOM     21  C   UNL     1      45.309   4.755  12.399  0.00  0.00    +0.000 A 
ATOM     22  H   UNL     1      44.666   1.543  12.652  0.00  0.00    +0.000 HD
ENDBRANCH   9  12
ENDBRANCH   7  10
ENDBRANCH   1   7
BRANCH   4  23
ATOM     23  C   UNL     1      51.069   9.024  17.425  0.00  0.00    +0.000 C 
BRANCH  23  24
ATOM     24  N   UNL     1      50.290   8.037  18.139  0.00  0.00    +0.000 N 
ATOM     25  C   UNL     1      50.808   6.801  18.463  0.00  0.00    +0.000 C 
ATOM     26  O   UNL     1      51.982   6.501  18.268  0.00  0.00    +0.000 OA
ATOM     27  H   UNL     1      49.345   8.271  18.431  0.00  0.00    +0.000 HD
BRANCH  25  28
ATOM     28  C   UNL     1      49.795   5.849  19.086  0.00  0.00    +0.000 C 
ATOM     29  C   UNL     1      50.293   4.398  19.105  0.00  0.00    +0.000 C 
ATOM     30  C   UNL     1      50.180   3.735  17.732  0.00  0.00    +0.000 C 
ATOM     31  CA  UNL     1      48.764   3.857  17.170  0.00  0.00    +0.000 C 
ATOM     32  N   UNL     1      48.280   5.229  17.253  0.00  0.00    +0.000 N 
ATOM     33  C   UNL     1      48.462   5.988  18.377  0.00  0.00    +0.000 C 
ATOM     34  O   UNL     1      47.628   6.830  18.700  0.00  0.00    +0.000 OA
ATOM     35  H   UNL     1      47.429   5.437  16.744  0.00  0.00    +0.000 HD
BRANCH  31  36
ATOM     36  C   UNL     1      47.774   2.918  17.886  0.00  0.00    +0.000 C 
BRANCH  36  37
ATOM     37  O   UNL     1      46.444   3.185  17.440  0.00  0.00    +0.000 OA
ATOM     38  H   UNL     1      45.987   2.326  17.386  0.00  0.00    +0.000 HD
ENDBRANCH  36  37
ENDBRANCH  31  36
ENDBRANCH  25  28
ENDBRANCH  23  24
ENDBRANCH   4  23
TORSDOF 8
ENDMDL
