MODEL 1
REMARK VINA RESULT:    -8.903      0.000      0.000
REMARK INTER + INTRA:         -14.079
REMARK INTER:                 -12.806
REMARK INTRA:                  -1.273
REMARK UNBOUND:                -1.273
REMARK  Name = 
REMARK  8 active torsions:
REMARK  status: ('A' for Active; 'I' for Inactive)
REMARK    1  A    between atoms: N_1  and  C_2
REMARK    2  A    between atoms: C_2  and  C_3
REMARK    3  A    between atoms: C_2  and  C_17
REMARK    4  A    between atoms: C_3  and  N_4
REMARK    5  A    between atoms: C_5  and  C_7
REMARK    6  A    between atoms: C_20  and  C_21
REMARK    7  A    between atoms: C_21  and  N_22
REMARK    8  A    between atoms: C_23  and  C_25
REMARK                            x       y       z     vdW  Elec       q    Type
REMARK                         _______ _______ _______ _____ _____    ______ ____
ROOT
ATOM      1  C   UNL     1      46.798   4.267  14.933  0.00  0.00    +0.000 C 
ENDROOT
BRANCH   1   2
ATOM      2  C   UNL     1      45.967   4.455  13.666  0.00  0.00    +0.000 A 
ATOM      3  C   UNL     1      45.557   3.324  12.933  0.00  0.00    +0.000 A 
ATOM      4  C   UNL     1      44.849   3.442  11.742  0.00  0.00    +0.000 A 
ATOM      5  C   UNL     1      44.507   4.702  11.244  0.00  0.00    +0.000 A 
ATOM      6  C   UNL     1      44.827   5.832  12.007  0.00  0.00    +0.000 A 
ATOM      7  C   UNL     1      45.549   5.711  13.201  0.00  0.00    +0.000 A 
BRANCH   5   8
ATOM      8  C   UNL     1      43.826   4.843   9.913  0.00  0.00    +0.000 C 
BRANCH   8   9
ATOM      9  N   UNL     1      44.329   3.909   8.939  0.00  0.00    +0.000 N 
ATOM     10  C   UNL     1      45.507   4.163   8.273  0.00  0.00    +0.000 C 
ATOM     11  O   UNL     1      46.176   5.174   8.475  0.00  0.00    +0.000 OA
ATOM     12  H   UNL     1      43.860   3.020   8.837  0.00  0.00    +0.000 HD
BRANCH  10  13
ATOM     13  C   UNL     1      45.924   3.063   7.300  0.00  0.00    +0.000 C 
ATOM     14  C   UNL     1      46.414   1.815   8.048  0.00  0.00    +0.000 C 
ATOM     15  C   UNL     1      46.989   0.785   7.087  0.00  0.00    +0.000 C 
ATOM     16  O   UNL     1      48.014   1.359   6.278  0.00  0.00    +0.000 OA
ATOM     17  C   UNL     1      47.527   2.427   5.471  0.00  0.00    +0.000 C 
ATOM     18  C   UNL     1      47.010   3.562   6.341  0.00  0.00    +0.000 C 
ENDBRANCH  10  13
ENDBRANCH   8   9
ENDBRANCH   5   8
ENDBRANCH   1   2
BRANCH   1  19
ATOM     19  N   UNL     1      47.536   2.986  14.877  0.00  0.00    +0.000 NA
ATOM     20  H   UNL     1      48.526   3.172  15.026  0.00  0.00    +0.000 HD
ATOM     21  H   UNL     1      47.497   2.648  13.912  0.00  0.00    +0.000 HD
ENDBRANCH   1  19
BRANCH   1  22
ATOM     22  C   UNL     1      47.772   5.439  15.244  0.00  0.00    +0.000 C 
BRANCH  22  23
ATOM     23  N   UNL     1      48.960   5.006  15.962  0.00  0.00    +0.000 N 
ATOM     24  C   UNL     1      49.013   4.944  17.328  0.00  0.00    +0.000 C 
ATOM     25  O   UNL     1      48.047   5.223  18.033  0.00  0.00    +0.000 OA
ATOM     26  H   UNL     1      49.824   4.967  15.429  0.00  0.00    +0.000 HD
BRANCH  24  27
ATOM     27  C   UNL     1      50.284   4.518  17.911  0.00  0.00    +0.000 A 
ATOM     28  C   UNL     1      51.008   5.405  18.693  0.00  0.00    +0.000 A 
ATOM     29  S   UNL     1      52.478   4.760  19.264  0.00  0.00    +0.000 S 
ATOM     30  C   UNL     1      52.213   3.289  18.450  0.00  0.00    +0.000 A 
ATOM     31  N   UNL     1      53.139   2.294  18.482  0.00  0.00    +0.000 NA
ATOM     32  C   UNL     1      52.825   1.250  17.791  0.00  0.00    +0.000 A 
ATOM     33  N   UNL     1      51.657   1.099  17.088  0.00  0.00    +0.000 N 
ATOM     34  C   UNL     1      50.664   2.050  17.083  0.00  0.00    +0.000 A 
ATOM     35  O   UNL     1      49.578   1.840  16.548  0.00  0.00    +0.000 OA
ATOM     36  C   UNL     1      50.996   3.270  17.793  0.00  0.00    +0.000 A 
ATOM     37  H   UNL     1      51.457   0.239  16.601  0.00  0.00    +0.000 HD
ENDBRANCH  24  27
ENDBRANCH  22  23
ENDBRANCH   1  22
TORSDOF 8
ENDMDL
MODEL 2
REMARK VINA RESULT:    -8.088      3.595      4.377
REMARK INTER + INTRA:         -12.907
REMARK INTER:                 -12.135
REMARK INTRA:                  -0.772
REMARK UNBOUND:                -1.273
REMARK  Name = 
REMARK  8 active torsions:
REMARK  status: ('A' for Active; 'I' for Inactive)
REMARK    1  A    between atoms: N_1  and  C_2
REMARK    2  A    between atoms: C_2  and  C_3
REMARK    3  A    between atoms: C_2  and  C_17
REMARK    4  A    between atoms: C_3  and  N_4
REMARK    5  A    between atoms: C_5  and  C_7
REMARK    6  A    between atoms: C_20  and  C_21
REMARK    7  A    between atoms: C_21  and  N_22
REMARK    8  A    between atoms: C_23  and  C_25
REMARK                            x       y       z     vdW  Elec       q    Type
REMARK                         _______ _______ _______ _____ _____    ______ ____
ROOT
ATOM      1  C   UNL     1      48.041   6.908  13.647  0.00  0.00    +0.000 C 
ENDROOT
BRANCH   1   2
ATOM      2  C   UNL     1      46.880   6.354  12.825  0.00  0.00    +0.000 A 
ATOM      3  C   UNL     1      46.564   4.984  12.909  0.00  0.00    +0.000 A 
ATOM      4  C   UNL     1      45.555   4.417  12.137  0.00  0.00    +0.000 A 
ATOM      5  C   UNL     1      44.808   5.207  11.260  0.00  0.00    +0.000 A 
ATOM      6  C   UNL     1      45.048   6.586  11.232  0.00  0.00    +0.000 A 
ATOM      7  C   UNL     1      46.072   7.153  12.002  0.00  0.00    +0.000 A 
BRANCH   5   8
ATOM      8  C   UNL     1      43.781   4.589  10.355  0.00  0.00    +0.000 C 
BRANCH   8   9
ATOM      9  N   UNL     1      44.359   3.640   9.439  0.00  0.00    +0.000 N 
ATOM     10  C   UNL     1      45.280   4.048   8.501  0.00  0.00    +0.000 C 
ATOM     11  O   UNL     1      45.651   5.216   8.403  0.00  0.00    +0.000 OA
ATOM     12  H   UNL     1      44.158   2.658   9.573  0.00  0.00    +0.000 HD
BRANCH  10  13
ATOM     13  C   UNL     1      45.826   2.920   7.630  0.00  0.00    +0.000 C 
ATOM     14  C   UNL     1      46.067   1.647   8.453  0.00  0.00    +0.000 C 
ATOM     15  C   UNL     1      46.769   0.579   7.626  0.00  0.00    +0.000 C 
ATOM     16  O   UNL     1      47.976   1.085   7.059  0.00  0.00    +0.000 OA
ATOM     17  C   UNL     1      47.739   2.177   6.177  0.00  0.00    +0.000 C 
ATOM     18  C   UNL     1      47.119   3.346   6.927  0.00  0.00    +0.000 C 
ENDBRANCH  10  13
ENDBRANCH   8   9
ENDBRANCH   5   8
ENDBRANCH   1   2
BRANCH   1  19
ATOM     19  N   UNL     1      49.326   6.645  12.963  0.00  0.00    +0.000 NA
ATOM     20  H   UNL     1      49.357   7.190  12.103  0.00  0.00    +0.000 HD
ATOM     21  H   UNL     1      49.308   5.677  12.632  0.00  0.00    +0.000 HD
ENDBRANCH   1  19
BRANCH   1  22
ATOM     22  C   UNL     1      47.916   8.417  14.002  0.00  0.00    +0.000 C 
BRANCH  22  23
ATOM     23  N   UNL     1      47.595   8.639  15.403  0.00  0.00    +0.000 N 
ATOM     24  C   UNL     1      48.384   9.394  16.229  0.00  0.00    +0.000 C 
ATOM     25  O   UNL     1      49.399   9.955  15.829  0.00  0.00    +0.000 OA
ATOM     26  H   UNL     1      46.888   8.032  15.809  0.00  0.00    +0.000 HD
BRANCH  24  27
ATOM     27  C   UNL     1      47.949   9.505  17.620  0.00  0.00    +0.000 A 
ATOM     28  C   UNL     1      47.602  10.746  18.131  0.00  0.00    +0.000 A 
ATOM     29  S   UNL     1      47.153  10.701  19.773  0.00  0.00    +0.000 S 
ATOM     30  C   UNL     1      47.446   9.027  19.866  0.00  0.00    +0.000 A 
ATOM     31  N   UNL     1      47.302   8.354  21.038  0.00  0.00    +0.000 NA
ATOM     32  C   UNL     1      47.594   7.099  20.972  0.00  0.00    +0.000 A 
ATOM     33  N   UNL     1      47.995   6.447  19.834  0.00  0.00    +0.000 N 
ATOM     34  C   UNL     1      48.089   7.072  18.613  0.00  0.00    +0.000 A 
ATOM     35  O   UNL     1      48.331   6.443  17.587  0.00  0.00    +0.000 OA
ATOM     36  C   UNL     1      47.834   8.499  18.647  0.00  0.00    +0.000 A 
ATOM     37  H   UNL     1      48.169   5.453  19.843  0.00  0.00    +0.000 HD
ENDBRANCH  24  27
ENDBRANCH  22  23
ENDBRANCH   1  22
TORSDOF 8
ENDMDL
MODEL 3
REMARK VINA RESULT:    -7.749      2.601      3.483
REMARK INTER + INTRA:         -12.420
REMARK INTER:                 -11.096
REMARK INTRA:                  -1.325
REMARK UNBOUND:                -1.273
REMARK  Name = 
REMARK  8 active torsions:
REMARK  status: ('A' for Active; 'I' for Inactive)
REMARK    1  A    between atoms: N_1  and  C_2
REMARK    2  A    between atoms: C_2  and  C_3
REMARK    3  A    between atoms: C_2  and  C_17
REMARK    4  A    between atoms: C_3  and  N_4
REMARK    5  A    between atoms: C_5  and  C_7
REMARK    6  A    between atoms: C_20  and  C_21
REMARK    7  A    between atoms: C_21  and  N_22
REMARK    8  A    between atoms: C_23  and  C_25
REMARK                            x       y       z     vdW  Elec       q    Type
REMARK                         _______ _______ _______ _____ _____    ______ ____
ROOT
ATOM      1  C   UNL     1      48.586   8.900  13.553  0.00  0.00    +0.000 C 
ENDROOT
BRANCH   1   2
ATOM      2  C   UNL     1      47.446   8.107  12.921  0.00  0.00    +0.000 A 
ATOM      3  C   UNL     1      47.741   6.958  12.160  0.00  0.00    +0.000 A 
ATOM      4  C   UNL     1      46.746   6.233  11.514  0.00  0.00    +0.000 A 
ATOM      5  C   UNL     1      45.408   6.621  11.619  0.00  0.00    +0.000 A 
ATOM      6  C   UNL     1      45.088   7.706  12.444  0.00  0.00    +0.000 A 
ATOM      7  C   UNL     1      46.094   8.441  13.085  0.00  0.00    +0.000 A 
BRANCH   5   8
ATOM      8  C   UNL     1      44.337   5.902  10.850  0.00  0.00    +0.000 C 
BRANCH   8   9
ATOM      9  N   UNL     1      44.875   5.100   9.781  0.00  0.00    +0.000 N 
ATOM     10  C   UNL     1      44.458   3.800   9.607  0.00  0.00    +0.000 C 
ATOM     11  O   UNL     1      43.621   3.271  10.335  0.00  0.00    +0.000 OA
ATOM     12  H   UNL     1      45.476   5.545   9.101  0.00  0.00    +0.000 HD
BRANCH  10  13
ATOM     13  C   UNL     1      45.093   3.096   8.411  0.00  0.00    +0.000 C 
ATOM     14  C   UNL     1      45.719   1.756   8.822  0.00  0.00    +0.000 C 
ATOM     15  C   UNL     1      46.498   1.134   7.673  0.00  0.00    +0.000 C 
ATOM     16  O   UNL     1      47.472   2.044   7.166  0.00  0.00    +0.000 OA
ATOM     17  C   UNL     1      46.880   3.231   6.647  0.00  0.00    +0.000 C 
ATOM     18  C   UNL     1      46.147   3.986   7.745  0.00  0.00    +0.000 C 
ENDBRANCH  10  13
ENDBRANCH   8   9
ENDBRANCH   5   8
ENDBRANCH   1   2
BRANCH   1  19
ATOM     19  N   UNL     1      48.948  10.051  12.696  0.00  0.00    +0.000 NA
ATOM     20  H   UNL     1      49.928   9.967  12.433  0.00  0.00    +0.000 HD
ATOM     21  H   UNL     1      48.928  10.891  13.281  0.00  0.00    +0.000 HD
ENDBRANCH   1  19
BRANCH   1  22
ATOM     22  C   UNL     1      48.311   9.375  15.008  0.00  0.00    +0.000 C 
BRANCH  22  23
ATOM     23  N   UNL     1      48.246   8.274  15.955  0.00  0.00    +0.000 N 
ATOM     24  C   UNL     1      49.364   7.713  16.512  0.00  0.00    +0.000 C 
ATOM     25  O   UNL     1      50.493   8.128  16.267  0.00  0.00    +0.000 OA
ATOM     26  H   UNL     1      47.359   7.781  16.020  0.00  0.00    +0.000 HD
BRANCH  24  27
ATOM     27  C   UNL     1      49.145   6.594  17.425  0.00  0.00    +0.000 A 
ATOM     28  C   UNL     1      49.596   6.680  18.733  0.00  0.00    +0.000 A 
ATOM     29  S   UNL     1      49.289   5.277  19.650  0.00  0.00    +0.000 S 
ATOM     30  C   UNL     1      48.579   4.494  18.316  0.00  0.00    +0.000 A 
ATOM     31  N   UNL     1      48.139   3.211  18.410  0.00  0.00    +0.000 NA
ATOM     32  C   UNL     1      47.657   2.730  17.313  0.00  0.00    +0.000 A 
ATOM     33  N   UNL     1      47.554   3.423  16.134  0.00  0.00    +0.000 N 
ATOM     34  C   UNL     1      47.923   4.741  16.011  0.00  0.00    +0.000 A 
ATOM     35  O   UNL     1      47.708   5.374  14.981  0.00  0.00    +0.000 OA
ATOM     36  C   UNL     1      48.531   5.309  17.200  0.00  0.00    +0.000 A 
ATOM     37  H   UNL     1      47.130   2.998  15.323  0.00  0.00    +0.000 HD
ENDBRANCH  24  27
ENDBRANCH  22  23
ENDBRANCH   1  22
TORSDOF 8
ENDMDL
MODEL 4
REMARK VINA RESULT:    -7.694      3.033      4.145
REMARK INTER + INTRA:         -12.341
REMARK INTER:                 -10.971
REMARK INTRA:                  -1.370
REMARK UNBOUND:                -1.273
REMARK  Name = 
REMARK  8 active torsions:
REMARK  status: ('A' for Active; 'I' for Inactive)
REMARK    1  A    between atoms: N_1  and  C_2
REMARK    2  A    between atoms: C_2  and  C_3
REMARK    3  A    between atoms: C_2  and  C_17
REMARK    4  A    between atoms: C_3  and  N_4
REMARK    5  A    between atoms: C_5  and  C_7
REMARK    6  A    between atoms: C_20  and  C_21
REMARK    7  A    between atoms: C_21  and  N_22
REMARK    8  A    between atoms: C_23  and  C_25
REMARK                            x       y       z     vdW  Elec       q    Type
REMARK                         _______ _______ _______ _____ _____    ______ ____
ROOT
ATOM      1  C   UNL     1      47.994   8.541  13.631  0.00  0.00    +0.000 C 
ENDROOT
BRANCH   1   2
ATOM      2  C   UNL     1      46.999   7.776  12.762  0.00  0.00    +0.000 A 
ATOM      3  C   UNL     1      45.618   7.915  13.005  0.00  0.00    +0.000 A 
ATOM      4  C   UNL     1      44.673   7.196  12.282  0.00  0.00    +0.000 A 
ATOM      5  C   UNL     1      45.073   6.318  11.271  0.00  0.00    +0.000 A 
ATOM      6  C   UNL     1      46.435   6.237  10.956  0.00  0.00    +0.000 A 
ATOM      7  C   UNL     1      47.386   6.955  11.693  0.00  0.00    +0.000 A 
BRANCH   5   8
ATOM      8  C   UNL     1      44.068   5.467  10.549  0.00  0.00    +0.000 C 
BRANCH   8   9
ATOM      9  N   UNL     1      44.647   4.763   9.434  0.00  0.00    +0.000 N 
ATOM     10  C   UNL     1      44.753   3.391   9.455  0.00  0.00    +0.000 C 
ATOM     11  O   UNL     1      44.364   2.712  10.403  0.00  0.00    +0.000 OA
ATOM     12  H   UNL     1      44.869   5.286   8.597  0.00  0.00    +0.000 HD
BRANCH  10  13
ATOM     13  C   UNL     1      45.354   2.792   8.186  0.00  0.00    +0.000 C 
ATOM     14  C   UNL     1      46.080   1.473   8.484  0.00  0.00    +0.000 C 
ATOM     15  C   UNL     1      46.823   0.962   7.258  0.00  0.00    +0.000 C 
ATOM     16  O   UNL     1      47.710   1.957   6.748  0.00  0.00    +0.000 OA
ATOM     17  C   UNL     1      47.020   3.131   6.334  0.00  0.00    +0.000 C 
ATOM     18  C   UNL     1      46.312   3.780   7.513  0.00  0.00    +0.000 C 
ENDBRANCH  10  13
ENDBRANCH   8   9
ENDBRANCH   5   8
ENDBRANCH   1   2
BRANCH   1  19
ATOM     19  N   UNL     1      47.309   9.120  14.808  0.00  0.00    +0.000 NA
ATOM     20  H   UNL     1      48.004   9.318  15.526  0.00  0.00    +0.000 HD
ATOM     21  H   UNL     1      46.735   8.383  15.226  0.00  0.00    +0.000 HD
ENDBRANCH   1  19
BRANCH   1  22
ATOM     22  C   UNL     1      49.230   7.711  14.079  0.00  0.00    +0.000 C 
BRANCH  22  23
ATOM     23  N   UNL     1      49.150   7.290  15.468  0.00  0.00    +0.000 N 
ATOM     24  C   UNL     1      48.564   6.111  15.848  0.00  0.00    +0.000 C 
ATOM     25  O   UNL     1      48.096   5.322  15.033  0.00  0.00    +0.000 OA
ATOM     26  H   UNL     1      49.338   8.000  16.170  0.00  0.00    +0.000 HD
BRANCH  24  27
ATOM     27  C   UNL     1      48.532   5.835  17.282  0.00  0.00    +0.000 A 
ATOM     28  C   UNL     1      48.755   4.543  17.735  0.00  0.00    +0.000 A 
ATOM     29  S   UNL     1      48.647   4.390  19.428  0.00  0.00    +0.000 S 
ATOM     30  C   UNL     1      48.259   6.037  19.608  0.00  0.00    +0.000 A 
ATOM     31  N   UNL     1      47.984   6.563  20.831  0.00  0.00    +0.000 NA
ATOM     32  C   UNL     1      47.669   7.814  20.816  0.00  0.00    +0.000 A 
ATOM     33  N   UNL     1      47.625   8.597  19.691  0.00  0.00    +0.000 N 
ATOM     34  C   UNL     1      47.961   8.126  18.444  0.00  0.00    +0.000 A 
ATOM     35  O   UNL     1      48.033   8.874  17.473  0.00  0.00    +0.000 OA
ATOM     36  C   UNL     1      48.260   6.707  18.398  0.00  0.00    +0.000 A 
ATOM     37  H   UNL     1      47.409   9.580  19.756  0.00  0.00    +0.000 HD
ENDBRANCH  24  27
ENDBRANCH  22  23
ENDBRANCH   1  22
TORSDOF 8
ENDMDL
MODEL 5
REMARK VINA RESULT:    -7.405      2.643      3.274
REMARK INTER + INTRA:         -11.925
REMARK INTER:                 -10.797
REMARK INTRA:                  -1.128
REMARK UNBOUND:                -1.273
REMARK  Name = 
REMARK  8 active torsions:
REMARK  status: ('A' for Active; 'I' for Inactive)
REMARK    1  A    between atoms: N_1  and  C_2
REMARK    2  A    between atoms: C_2  and  C_3
REMARK    3  A    between atoms: C_2  and  C_17
REMARK    4  A    between atoms: C_3  and  N_4
REMARK    5  A    between atoms: C_5  and  C_7
REMARK    6  A    between atoms: C_20  and  C_21
REMARK    7  A    between atoms: C_21  and  N_22
REMARK    8  A    between atoms: C_23  and  C_25
REMARK                            x       y       z     vdW  Elec       q    Type
REMARK                         _______ _______ _______ _____ _____    ______ ____
ROOT
ATOM      1  C   UNL     1      48.219   8.666  14.016  0.00  0.00    +0.000 C 
ENDROOT
BRANCH   1   2
ATOM      2  C   UNL     1      47.222   7.951  13.109  0.00  0.00    +0.000 A 
ATOM      3  C   UNL     1      45.878   8.374  13.088  0.00  0.00    +0.000 A 
ATOM      4  C   UNL     1      44.917   7.720  12.324  0.00  0.00    +0.000 A 
ATOM      5  C   UNL     1      45.269   6.623  11.534  0.00  0.00    +0.000 A 
ATOM      6  C   UNL     1      46.616   6.247  11.472  0.00  0.00    +0.000 A 
ATOM      7  C   UNL     1      47.580   6.900  12.251  0.00  0.00    +0.000 A 
BRANCH   5   8
ATOM      8  C   UNL     1      44.223   5.853  10.780  0.00  0.00    +0.000 C 
BRANCH   8   9
ATOM      9  N   UNL     1      44.786   5.061   9.717  0.00  0.00    +0.000 N 
ATOM     10  C   UNL     1      44.429   3.740   9.567  0.00  0.00    +0.000 C 
ATOM     11  O   UNL     1      43.625   3.183  10.313  0.00  0.00    +0.000 OA
ATOM     12  H   UNL     1      45.359   5.523   9.024  0.00  0.00    +0.000 HD
BRANCH  10  13
ATOM     13  C   UNL     1      45.083   3.048   8.374  0.00  0.00    +0.000 C 
ATOM     14  C   UNL     1      45.739   1.724   8.791  0.00  0.00    +0.000 C 
ATOM     15  C   UNL     1      46.536   1.117   7.645  0.00  0.00    +0.000 C 
ATOM     16  O   UNL     1      47.490   2.050   7.138  0.00  0.00    +0.000 OA
ATOM     17  C   UNL     1      46.871   3.220   6.615  0.00  0.00    +0.000 C 
ATOM     18  C   UNL     1      46.118   3.961   7.709  0.00  0.00    +0.000 C 
ENDBRANCH  10  13
ENDBRANCH   8   9
ENDBRANCH   5   8
ENDBRANCH   1   2
BRANCH   1  19
ATOM     19  N   UNL     1      47.553   9.115  15.259  0.00  0.00    +0.000 NA
ATOM     20  H   UNL     1      48.230   9.618  15.830  0.00  0.00    +0.000 HD
ATOM     21  H   UNL     1      47.341   8.282  15.815  0.00  0.00    +0.000 HD
ENDBRANCH   1  19
BRANCH   1  22
ATOM     22  C   UNL     1      49.491   7.838  14.354  0.00  0.00    +0.000 C 
BRANCH  22  23
ATOM     23  N   UNL     1      49.504   7.363  15.728  0.00  0.00    +0.000 N 
ATOM     24  C   UNL     1      48.887   6.202  16.113  0.00  0.00    +0.000 C 
ATOM     25  O   UNL     1      48.308   5.474  15.312  0.00  0.00    +0.000 OA
ATOM     26  H   UNL     1      49.790   8.032  16.438  0.00  0.00    +0.000 HD
BRANCH  24  27
ATOM     27  C   UNL     1      48.959   5.868  17.533  0.00  0.00    +0.000 A 
ATOM     28  C   UNL     1      47.794   5.817  18.283  0.00  0.00    +0.000 A 
ATOM     29  S   UNL     1      48.060   5.447  19.925  0.00  0.00    +0.000 S 
ATOM     30  C   UNL     1      49.745   5.383  19.695  0.00  0.00    +0.000 A 
ATOM     31  N   UNL     1      50.587   5.155  20.738  0.00  0.00    +0.000 NA
ATOM     32  C   UNL     1      51.839   5.170  20.426  0.00  0.00    +0.000 A 
ATOM     33  N   UNL     1      52.328   5.370  19.161  0.00  0.00    +0.000 N 
ATOM     34  C   UNL     1      51.514   5.535  18.066  0.00  0.00    +0.000 A 
ATOM     35  O   UNL     1      51.972   5.589  16.928  0.00  0.00    +0.000 OA
ATOM     36  C   UNL     1      50.098   5.591  18.373  0.00  0.00    +0.000 A 
ATOM     37  H   UNL     1      53.320   5.330  18.980  0.00  0.00    +0.000 HD
ENDBRANCH  24  27
ENDBRANCH  22  23
ENDBRANCH   1  22
TORSDOF 8
ENDMDL
MODEL 6
REMARK VINA RESULT:    -7.348      5.145      6.232
REMARK INTER + INTRA:         -11.843
REMARK INTER:                 -10.621
REMARK INTRA:                  -1.222
REMARK UNBOUND:                -1.273
REMARK  Name = 
REMARK  8 active torsions:
REMARK  status: ('A' for Active; 'I' for Inactive)
REMARK    1  A    between atoms: N_1  and  C_2
REMARK    2  A    between atoms: C_2  and  C_3
REMARK    3  A    between atoms: C_2  and  C_17
REMARK    4  A    between atoms: C_3  and  N_4
REMARK    5  A    between atoms: C_5  and  C_7
REMARK    6  A    between atoms: C_20  and  C_21
REMARK    7  A    between atoms: C_21  and  N_22
REMARK    8  A    between atoms: C_23  and  C_25
REMARK                            x       y       z     vdW  Elec       q    Type
REMARK                         _______ _______ _______ _____ _____    ______ ____
ROOT
ATOM      1  C   UNL     1      48.063   7.313  13.537  0.00  0.00    +0.000 C 
ENDROOT
BRANCH   1   2
ATOM      2  C   UNL     1      47.031   6.355  12.948  0.00  0.00    +0.000 A 
ATOM      3  C   UNL     1      46.880   5.070  13.507  0.00  0.00    +0.000 A 
ATOM      4  C   UNL     1      45.997   4.139  12.971  0.00  0.00    +0.000 A 
ATOM      5  C   UNL     1      45.214   4.465  11.861  0.00  0.00    +0.000 A 
ATOM      6  C   UNL     1      45.285   5.767  11.350  0.00  0.00    +0.000 A 
ATOM      7  C   UNL     1      46.184   6.699  11.884  0.00  0.00    +0.000 A 
BRANCH   5   8
ATOM      8  C   UNL     1      44.328   3.437  11.218  0.00  0.00    +0.000 C 
BRANCH   8   9
ATOM      9  N   UNL     1      44.965   2.784  10.103  0.00  0.00    +0.000 N 
ATOM     10  C   UNL     1      44.842   3.295   8.832  0.00  0.00    +0.000 C 
ATOM     11  O   UNL     1      44.199   4.314   8.588  0.00  0.00    +0.000 OA
ATOM     12  H   UNL     1      45.591   2.013  10.291  0.00  0.00    +0.000 HD
BRANCH  10  13
ATOM     13  C   UNL     1      45.604   2.511   7.766  0.00  0.00    +0.000 C 
ATOM     14  C   UNL     1      46.152   1.194   8.331  0.00  0.00    +0.000 C 
ATOM     15  C   UNL     1      47.054   0.494   7.324  0.00  0.00    +0.000 C 
ATOM     16  O   UNL     1      48.097   1.362   6.884  0.00  0.00    +0.000 OA
ATOM     17  C   UNL     1      47.592   2.520   6.227  0.00  0.00    +0.000 C 
ATOM     18  C   UNL     1      46.745   3.349   7.181  0.00  0.00    +0.000 C 
ENDBRANCH  10  13
ENDBRANCH   8   9
ENDBRANCH   5   8
ENDBRANCH   1   2
BRANCH   1  19
ATOM     19  N   UNL     1      49.405   6.688  13.534  0.00  0.00    +0.000 NA
ATOM     20  H   UNL     1      49.624   6.391  12.584  0.00  0.00    +0.000 HD
ATOM     21  H   UNL     1      49.338   5.808  14.051  0.00  0.00    +0.000 HD
ENDBRANCH   1  19
BRANCH   1  22
ATOM     22  C   UNL     1      48.114   8.707  12.851  0.00  0.00    +0.000 C 
BRANCH  22  23
ATOM     23  N   UNL     1      49.427   9.018  12.308  0.00  0.00    +0.000 N 
ATOM     24  C   UNL     1      49.633  10.037  11.417  0.00  0.00    +0.000 C 
ATOM     25  O   UNL     1      48.723  10.772  11.043  0.00  0.00    +0.000 OA
ATOM     26  H   UNL     1      50.149   8.314  12.433  0.00  0.00    +0.000 HD
BRANCH  24  27
ATOM     27  C   UNL     1      51.001  10.212  10.934  0.00  0.00    +0.000 A 
ATOM     28  C   UNL     1      51.521  11.490  10.804  0.00  0.00    +0.000 A 
ATOM     29  S   UNL     1      53.114  11.515  10.199  0.00  0.00    +0.000 S 
ATOM     30  C   UNL     1      53.144   9.820  10.053  0.00  0.00    +0.000 A 
ATOM     31  N   UNL     1      54.226   9.181   9.534  0.00  0.00    +0.000 NA
ATOM     32  C   UNL     1      54.098   7.899   9.447  0.00  0.00    +0.000 A 
ATOM     33  N   UNL     1      52.994   7.194   9.853  0.00  0.00    +0.000 N 
ATOM     34  C   UNL     1      51.906   7.790  10.445  0.00  0.00    +0.000 A 
ATOM     35  O   UNL     1      50.985   7.126  10.911  0.00  0.00    +0.000 OA
ATOM     36  C   UNL     1      51.974   9.238  10.507  0.00  0.00    +0.000 A 
ATOM     37  H   UNL     1      52.976   6.187   9.793  0.00  0.00    +0.000 HD
ENDBRANCH  24  27
ENDBRANCH  22  23
ENDBRANCH   1  22
TORSDOF 8
ENDMDL
MODEL 7
REMARK VINA RESULT:    -7.343      1.955      2.249
REMARK INTER + INTRA:         -11.837
REMARK INTER:                 -10.559
REMARK INTRA:                  -1.278
REMARK UNBOUND:                -1.273
REMARK  Name = 
REMARK  8 active torsions:
REMARK  status: ('A' for Active; 'I' for Inactive)
REMARK    1  A    between atoms: N_1  and  C_2
REMARK    2  A    between atoms: C_2  and  C_3
REMARK    3  A    between atoms: C_2  and  C_17
REMARK    4  A    between atoms: C_3  and  N_4
REMARK    5  A    between atoms: C_5  and  C_7
REMARK    6  A    between atoms: C_20  and  C_21
REMARK    7  A    between atoms: C_21  and  N_22
REMARK    8  A    between atoms: C_23  and  C_25
REMARK                            x       y       z     vdW  Elec       q    Type
REMARK                         _______ _______ _______ _____ _____    ______ ____
ROOT
ATOM      1  C   UNL     1      47.301   5.613  14.720  0.00  0.00    +0.000 C 
ENDROOT
BRANCH   1   2
ATOM      2  C   UNL     1      46.412   5.546  13.481  0.00  0.00    +0.000 A 
ATOM      3  C   UNL     1      45.252   4.747  13.503  0.00  0.00    +0.000 A 
ATOM      4  C   UNL     1      44.441   4.605  12.383  0.00  0.00    +0.000 A 
ATOM      5  C   UNL     1      44.750   5.274  11.196  0.00  0.00    +0.000 A 
ATOM      6  C   UNL     1      45.847   6.143  11.185  0.00  0.00    +0.000 A 
ATOM      7  C   UNL     1      46.669   6.276  12.311  0.00  0.00    +0.000 A 
BRANCH   5   8
ATOM      8  C   UNL     1      43.934   5.053   9.955  0.00  0.00    +0.000 C 
BRANCH   8   9
ATOM      9  N   UNL     1      44.668   4.348   8.935  0.00  0.00    +0.000 N 
ATOM     10  C   UNL     1      44.680   2.973   8.910  0.00  0.00    +0.000 C 
ATOM     11  O   UNL     1      44.075   2.290   9.735  0.00  0.00    +0.000 OA
ATOM     12  H   UNL     1      45.078   4.883   8.182  0.00  0.00    +0.000 HD
BRANCH  10  13
ATOM     13  C   UNL     1      45.471   2.376   7.749  0.00  0.00    +0.000 C 
ATOM     14  C   UNL     1      46.185   1.083   8.168  0.00  0.00    +0.000 C 
ATOM     15  C   UNL     1      47.108   0.580   7.068  0.00  0.00    +0.000 C 
ATOM     16  O   UNL     1      48.030   1.595   6.673  0.00  0.00    +0.000 OA
ATOM     17  C   UNL     1      47.373   2.742   6.146  0.00  0.00    +0.000 C 
ATOM     18  C   UNL     1      46.487   3.384   7.202  0.00  0.00    +0.000 C 
ENDBRANCH  10  13
ENDBRANCH   8   9
ENDBRANCH   5   8
ENDBRANCH   1   2
BRANCH   1  19
ATOM     19  N   UNL     1      47.819   4.268  15.054  0.00  0.00    +0.000 NA
ATOM     20  H   UNL     1      47.897   3.725  14.195  0.00  0.00    +0.000 HD
ATOM     21  H   UNL     1      47.092   3.779  15.582  0.00  0.00    +0.000 HD
ENDBRANCH   1  19
BRANCH   1  22
ATOM     22  C   UNL     1      48.470   6.633  14.620  0.00  0.00    +0.000 C 
BRANCH  22  23
ATOM     23  N   UNL     1      49.338   6.609  15.787  0.00  0.00    +0.000 N 
ATOM     24  C   UNL     1      50.604   7.130  15.774  0.00  0.00    +0.000 C 
ATOM     25  O   UNL     1      51.076   7.677  14.781  0.00  0.00    +0.000 OA
ATOM     26  H   UNL     1      49.062   5.993  16.546  0.00  0.00    +0.000 HD
BRANCH  24  27
ATOM     27  C   UNL     1      51.370   7.007  17.012  0.00  0.00    +0.000 A 
ATOM     28  C   UNL     1      52.025   8.117  17.524  0.00  0.00    +0.000 A 
ATOM     29  S   UNL     1      52.896   7.792  18.952  0.00  0.00    +0.000 S 
ATOM     30  C   UNL     1      52.459   6.148  18.910  0.00  0.00    +0.000 A 
ATOM     31  N   UNL     1      52.926   5.274  19.841  0.00  0.00    +0.000 NA
ATOM     32  C   UNL     1      52.545   4.054  19.667  0.00  0.00    +0.000 A 
ATOM     33  N   UNL     1      51.720   3.628  18.658  0.00  0.00    +0.000 N 
ATOM     34  C   UNL     1      51.169   4.485  17.735  0.00  0.00    +0.000 A 
ATOM     35  O   UNL     1      50.337   4.101  16.918  0.00  0.00    +0.000 OA
ATOM     36  C   UNL     1      51.618   5.860  17.849  0.00  0.00    +0.000 A 
ATOM     37  H   UNL     1      51.428   2.663  18.604  0.00  0.00    +0.000 HD
ENDBRANCH  24  27
ENDBRANCH  22  23
ENDBRANCH   1  22
TORSDOF 8
ENDMDL
MODEL 8
REMARK VINA RESULT:    -7.068      2.010      3.104
REMARK INTER + INTRA:         -11.441
REMARK INTER:                 -10.053
REMARK INTRA:                  -1.388
REMARK UNBOUND:                -1.273
REMARK  Name = 
REMARK  8 active torsions:
REMARK  status: ('A' for Active; 'I' for Inactive)
REMARK    1  A    between atoms: N_1  and  C_2
REMARK    2  A    between atoms: C_2  and  C_3
REMARK    3  A    between atoms: C_2  and  C_17
REMARK    4  A    between atoms: C_3  and  N_4
REMARK    5  A    between atoms: C_5  and  C_7
REMARK    6  A    between atoms: C_20  and  C_21
REMARK    7  A    between atoms: C_21  and  N_22
REMARK    8  A    between atoms: C_23  and  C_25
REMARK                            x       y       z     vdW  Elec       q    Type
REMARK                         _______ _______ _______ _____ _____    ______ ____
ROOT
ATOM      1  C   UNL     1      48.061   4.558  17.455  0.00  0.00    +0.000 C 
ENDROOT
BRANCH   1   2
ATOM      2  C   UNL     1      47.787   5.054  16.038  0.00  0.00    +0.000 A 
ATOM      3  C   UNL     1      48.392   6.246  15.592  0.00  0.00    +0.000 A 
ATOM      4  C   UNL     1      48.130   6.772  14.332  0.00  0.00    +0.000 A 
ATOM      5  C   UNL     1      47.262   6.113  13.457  0.00  0.00    +0.000 A 
ATOM      6  C   UNL     1      46.725   4.881  13.849  0.00  0.00    +0.000 A 
ATOM      7  C   UNL     1      46.982   4.359  15.123  0.00  0.00    +0.000 A 
BRANCH   5   8
ATOM      8  C   UNL     1      46.900   6.721  12.132  0.00  0.00    +0.000 C 
BRANCH   8   9
ATOM      9  N   UNL     1      46.424   5.739  11.192  0.00  0.00    +0.000 N 
ATOM     10  C   UNL     1      45.088   5.675  10.867  0.00  0.00    +0.000 C 
ATOM     11  O   UNL     1      44.253   6.438  11.348  0.00  0.00    +0.000 OA
ATOM     12  H   UNL     1      47.104   5.177  10.697  0.00  0.00    +0.000 HD
BRANCH  10  13
ATOM     13  C   UNL     1      44.748   4.607   9.830  0.00  0.00    +0.000 C 
ATOM     14  C   UNL     1      44.724   3.208  10.461  0.00  0.00    +0.000 C 
ATOM     15  C   UNL     1      44.555   2.128   9.402  0.00  0.00    +0.000 C 
ATOM     16  O   UNL     1      45.556   2.242   8.393  0.00  0.00    +0.000 OA
ATOM     17  C   UNL     1      45.487   3.486   7.705  0.00  0.00    +0.000 C 
ATOM     18  C   UNL     1      45.738   4.641   8.661  0.00  0.00    +0.000 C 
ENDBRANCH  10  13
ENDBRANCH   8   9
ENDBRANCH   5   8
ENDBRANCH   1   2
BRANCH   1  19
ATOM     19  N   UNL     1      48.436   3.127  17.436  0.00  0.00    +0.000 NA
ATOM     20  H   UNL     1      47.914   2.642  18.164  0.00  0.00    +0.000 HD
ATOM     21  H   UNL     1      49.407   3.058  17.751  0.00  0.00    +0.000 HD
ENDBRANCH   1  19
BRANCH   1  22
ATOM     22  C   UNL     1      49.123   5.386  18.233  0.00  0.00    +0.000 C 
BRANCH  22  23
ATOM     23  N   UNL     1      50.284   4.595  18.611  0.00  0.00    +0.000 N 
ATOM     24  C   UNL     1      51.478   4.677  17.947  0.00  0.00    +0.000 C 
ATOM     25  O   UNL     1      51.652   5.447  17.007  0.00  0.00    +0.000 OA
ATOM     26  H   UNL     1      50.117   3.814  19.239  0.00  0.00    +0.000 HD
BRANCH  24  27
ATOM     27  C   UNL     1      52.547   3.800  18.422  0.00  0.00    +0.000 A 
ATOM     28  C   UNL     1      53.602   4.338  19.143  0.00  0.00    +0.000 A 
ATOM     29  S   UNL     1      54.774   3.185  19.589  0.00  0.00    +0.000 S 
ATOM     30  C   UNL     1      53.930   1.937  18.798  0.00  0.00    +0.000 A 
ATOM     31  N   UNL     1      54.429   0.674  18.751  0.00  0.00    +0.000 NA
ATOM     32  C   UNL     1      53.703  -0.162  18.087  0.00  0.00    +0.000 A 
ATOM     33  N   UNL     1      52.511   0.144  17.483  0.00  0.00    +0.000 N 
ATOM     34  C   UNL     1      51.935   1.390  17.562  0.00  0.00    +0.000 A 
ATOM     35  O   UNL     1      50.811   1.607  17.118  0.00  0.00    +0.000 OA
ATOM     36  C   UNL     1      52.743   2.383  18.244  0.00  0.00    +0.000 A 
ATOM     37  H   UNL     1      51.974  -0.569  17.012  0.00  0.00    +0.000 HD
ENDBRANCH  24  27
ENDBRANCH  22  23
ENDBRANCH   1  22
TORSDOF 8
ENDMDL
MODEL 9
REMARK VINA RESULT:    -6.510      5.438      8.644
REMARK INTER + INTRA:         -10.638
REMARK INTER:                  -9.594
REMARK INTRA:                  -1.044
REMARK UNBOUND:                -1.273
REMARK  Name = 
REMARK  8 active torsions:
REMARK  status: ('A' for Active; 'I' for Inactive)
REMARK    1  A    between atoms: N_1  and  C_2
REMARK    2  A    between atoms: C_2  and  C_3
REMARK    3  A    between atoms: C_2  and  C_17
REMARK    4  A    between atoms: C_3  and  N_4
REMARK    5  A    between atoms: C_5  and  C_7
REMARK    6  A    between atoms: C_20  and  C_21
REMARK    7  A    between atoms: C_21  and  N_22
REMARK    8  A    between atoms: C_23  and  C_25
REMARK                            x       y       z     vdW  Elec       q    Type
REMARK                         _______ _______ _______ _____ _____    ______ ____
ROOT
ATOM      1  C   UNL     1      47.580   7.916  13.772  0.00  0.00    +0.000 C 
ENDROOT
BRANCH   1   2
ATOM      2  C   UNL     1      49.002   8.088  13.245  0.00  0.00    +0.000 A 
ATOM      3  C   UNL     1      50.065   8.238  14.158  0.00  0.00    +0.000 A 
ATOM      4  C   UNL     1      51.370   8.457  13.730  0.00  0.00    +0.000 A 
ATOM      5  C   UNL     1      51.667   8.516  12.366  0.00  0.00    +0.000 A 
ATOM      6  C   UNL     1      50.639   8.278  11.447  0.00  0.00    +0.000 A 
ATOM      7  C   UNL     1      49.323   8.069  11.880  0.00  0.00    +0.000 A 
BRANCH   5   8
ATOM      8  C   UNL     1      53.055   8.845  11.896  0.00  0.00    +0.000 C 
BRANCH   8   9
ATOM      9  N   UNL     1      53.285   8.429  10.536  0.00  0.00    +0.000 N 
ATOM     10  C   UNL     1      53.969   7.265  10.270  0.00  0.00    +0.000 C 
ATOM     11  O   UNL     1      54.404   6.535  11.158  0.00  0.00    +0.000 OA
ATOM     12  H   UNL     1      52.840   8.949   9.792  0.00  0.00    +0.000 HD
BRANCH  10  13
ATOM     13  C   UNL     1      54.099   6.943   8.783  0.00  0.00    +0.000 C 
ATOM     14  C   UNL     1      53.062   7.713   7.954  0.00  0.00    +0.000 C 
ATOM     15  C   UNL     1      53.077   7.267   6.499  0.00  0.00    +0.000 C 
ATOM     16  O   UNL     1      52.901   5.855   6.397  0.00  0.00    +0.000 OA
ATOM     17  C   UNL     1      53.945   5.135   7.043  0.00  0.00    +0.000 C 
ATOM     18  C   UNL     1      53.961   5.438   8.533  0.00  0.00    +0.000 C 
ENDBRANCH  10  13
ENDBRANCH   8   9
ENDBRANCH   5   8
ENDBRANCH   1   2
BRANCH   1  19
ATOM     19  N   UNL     1      47.306   8.901  14.842  0.00  0.00    +0.000 NA
ATOM     20  H   UNL     1      47.468   8.457  15.744  0.00  0.00    +0.000 HD
ATOM     21  H   UNL     1      46.300   9.085  14.843  0.00  0.00    +0.000 HD
ENDBRANCH   1  19
BRANCH   1  22
ATOM     22  C   UNL     1      46.476   7.983  12.680  0.00  0.00    +0.000 C 
BRANCH  22  23
ATOM     23  N   UNL     1      46.001   6.668  12.280  0.00  0.00    +0.000 N 
ATOM     24  C   UNL     1      44.831   6.484  11.592  0.00  0.00    +0.000 C 
ATOM     25  O   UNL     1      44.123   7.425  11.245  0.00  0.00    +0.000 OA
ATOM     26  H   UNL     1      46.448   5.869  12.722  0.00  0.00    +0.000 HD
BRANCH  24  27
ATOM     27  C   UNL     1      44.469   5.103  11.284  0.00  0.00    +0.000 A 
ATOM     28  C   UNL     1      43.668   4.393  12.167  0.00  0.00    +0.000 A 
ATOM     29  S   UNL     1      43.370   2.790  11.672  0.00  0.00    +0.000 S 
ATOM     30  C   UNL     1      44.334   2.980  10.283  0.00  0.00    +0.000 A 
ATOM     31  N   UNL     1      44.548   1.943   9.431  0.00  0.00    +0.000 NA
ATOM     32  C   UNL     1      45.328   2.218   8.440  0.00  0.00    +0.000 A 
ATOM     33  N   UNL     1      45.899   3.443   8.210  0.00  0.00    +0.000 N 
ATOM     34  C   UNL     1      45.657   4.538   9.006  0.00  0.00    +0.000 A 
ATOM     35  O   UNL     1      46.080   5.652   8.711  0.00  0.00    +0.000 OA
ATOM     36  C   UNL     1      44.837   4.264  10.170  0.00  0.00    +0.000 A 
ATOM     37  H   UNL     1      46.469   3.600   7.392  0.00  0.00    +0.000 HD
ENDBRANCH  24  27
ENDBRANCH  22  23
ENDBRANCH   1  22
TORSDOF 8
ENDMDL
