MODEL 1
REMARK VINA RESULT:    -8.685      0.000      0.000
REMARK INTER + INTRA:         -12.469
REMARK INTER:                 -11.478
REMARK INTRA:                  -0.991
REMARK UNBOUND:                -0.991
REMARK  Name = 
REMARK  6 active torsions:
REMARK  status: ('A' for Active; 'I' for Inactive)
REMARK    1  A    between atoms: C_2  and  C_19
REMARK    2  A    between atoms: N_3  and  C_4
REMARK    3  A    between atoms: C_4  and  C_5
REMARK    4  A    between atoms: C_8  and  C_9
REMARK    5  A    between atoms: C_9  and  O_10
REMARK    6  A    between atoms: C_9  and  C_11
REMARK                            x       y       z     vdW  Elec       q    Type
REMARK                         _______ _______ _______ _____ _____    ______ ____
ROOT
ATOM      1  C   UNL     1      47.154   7.422  13.343  0.00  0.00    +0.000 C 
ENDROOT
BRANCH   1   2
ATOM      2  C   UNL     1      46.519   6.466  12.367  0.00  0.00    +0.000 A 
ATOM      3  C   UNL     1      45.761   5.375  12.812  0.00  0.00    +0.000 A 
ATOM      4  C   UNL     1      45.120   4.526  11.900  0.00  0.00    +0.000 A 
ATOM      5  C   UNL     1      45.221   4.753  10.517  0.00  0.00    +0.000 A 
ATOM      6  C   UNL     1      46.006   5.833  10.080  0.00  0.00    +0.000 A 
ATOM      7  C   UNL     1      46.653   6.673  10.990  0.00  0.00    +0.000 A 
BRANCH   5   8
ATOM      8  C   UNL     1      44.485   3.869   9.518  0.00  0.00    +0.000 C 
BRANCH   8   9
ATOM      9  C   UNL     1      45.405   3.091   8.584  0.00  0.00    +0.000 A 
ATOM     10  C   UNL     1      45.574   1.707   8.766  0.00  0.00    +0.000 A 
ATOM     11  C   UNL     1      46.444   0.978   7.951  0.00  0.00    +0.000 A 
ATOM     12  C   UNL     1      47.139   1.612   6.925  0.00  0.00    +0.000 A 
ATOM     13  C   UNL     1      46.960   2.975   6.708  0.00  0.00    +0.000 A 
ATOM     14  C   UNL     1      46.102   3.709   7.531  0.00  0.00    +0.000 A 
ENDBRANCH   8   9
BRANCH   8  15
ATOM     15  O   UNL     1      43.573   4.673   8.763  0.00  0.00    +0.000 OA
ATOM     16  H   UNL     1      43.754   4.501   7.825  0.00  0.00    +0.000 HD
ENDBRANCH   8  15
ENDBRANCH   5   8
ENDBRANCH   1   2
BRANCH   1  19
ATOM     17  O   UNL     1      49.731   6.959  14.209  0.00  0.00    +0.000 OA
ATOM     18  C   UNL     1      48.807   6.679  14.962  0.00  0.00    +0.000 C 
ATOM     19  N   UNL     1      47.491   6.803  14.594  0.00  0.00    +0.000 N 
ATOM     20  H   UNL     1      46.766   6.769  15.305  0.00  0.00    +0.000 HD
BRANCH  18  21
ATOM     21  C   UNL     1      49.067   6.165  16.311  0.00  0.00    +0.000 A 
ATOM     22  C   UNL     1      49.823   6.875  17.227  0.00  0.00    +0.000 A 
ATOM     23  S   UNL     1      49.920   6.116  18.758  0.00  0.00    +0.000 S 
ATOM     24  C   UNL     1      48.935   4.826  18.245  0.00  0.00    +0.000 A 
ATOM     25  N   UNL     1      48.576   3.823  19.090  0.00  0.00    +0.000 NA
ATOM     26  C   UNL     1      47.795   2.938  18.567  0.00  0.00    +0.000 A 
ATOM     27  N   UNL     1      47.352   2.953  17.270  0.00  0.00    +0.000 N 
ATOM     28  C   UNL     1      47.746   3.892  16.365  0.00  0.00    +0.000 A 
ATOM     29  O   UNL     1      47.447   3.792  15.180  0.00  0.00    +0.000 OA
ATOM     30  C   UNL     1      48.574   4.951  16.916  0.00  0.00    +0.000 A 
ATOM     31  H   UNL     1      46.786   2.204  16.898  0.00  0.00    +0.000 HD
ENDBRANCH  18  21
ENDBRANCH   1  19
TORSDOF 6
ENDMDL
MODEL 2
REMARK VINA RESULT:    -8.524      1.604      2.333
REMARK INTER + INTRA:         -12.256
REMARK INTER:                 -11.307
REMARK INTRA:                  -0.949
REMARK UNBOUND:                -0.991
REMARK  Name = 
REMARK  6 active torsions:
REMARK  status: ('A' for Active; 'I' for Inactive)
REMARK    1  A    between atoms: C_2  and  C_19
REMARK    2  A    between atoms: N_3  and  C_4
REMARK    3  A    between atoms: C_4  and  C_5
REMARK    4  A    between atoms: C_8  and  C_9
REMARK    5  A    between atoms: C_9  and  O_10
REMARK    6  A    between atoms: C_9  and  C_11
REMARK                            x       y       z     vdW  Elec       q    Type
REMARK                         _______ _______ _______ _____ _____    ______ ____
ROOT
ATOM      1  C   UNL     1      47.427   6.592  13.717  0.00  0.00    +0.000 C 
ENDROOT
BRANCH   1   2
ATOM      2  C   UNL     1      46.613   5.901  12.654  0.00  0.00    +0.000 A 
ATOM      3  C   UNL     1      46.389   6.502  11.409  0.00  0.00    +0.000 A 
ATOM      4  C   UNL     1      45.685   5.827  10.402  0.00  0.00    +0.000 A 
ATOM      5  C   UNL     1      45.190   4.531  10.620  0.00  0.00    +0.000 A 
ATOM      6  C   UNL     1      45.394   3.948  11.882  0.00  0.00    +0.000 A 
ATOM      7  C   UNL     1      46.088   4.625  12.888  0.00  0.00    +0.000 A 
BRANCH   5   8
ATOM      8  C   UNL     1      44.470   3.767   9.515  0.00  0.00    +0.000 C 
BRANCH   8   9
ATOM      9  C   UNL     1      45.404   3.047   8.550  0.00  0.00    +0.000 A 
ATOM     10  C   UNL     1      45.635   1.668   8.701  0.00  0.00    +0.000 A 
ATOM     11  C   UNL     1      46.520   0.992   7.857  0.00  0.00    +0.000 A 
ATOM     12  C   UNL     1      47.169   1.675   6.832  0.00  0.00    +0.000 A 
ATOM     13  C   UNL     1      46.928   3.033   6.645  0.00  0.00    +0.000 A 
ATOM     14  C   UNL     1      46.055   3.714   7.497  0.00  0.00    +0.000 A 
ENDBRANCH   8   9
BRANCH   8  15
ATOM     15  O   UNL     1      43.615   4.667   8.803  0.00  0.00    +0.000 OA
ATOM     16  H   UNL     1      44.089   5.512   8.736  0.00  0.00    +0.000 HD
ENDBRANCH   8  15
ENDBRANCH   5   8
ENDBRANCH   1   2
BRANCH   1  19
ATOM     17  O   UNL     1      49.610   6.547  15.403  0.00  0.00    +0.000 OA
ATOM     18  C   UNL     1      48.599   5.948  15.746  0.00  0.00    +0.000 C 
ATOM     19  N   UNL     1      47.490   5.849  14.944  0.00  0.00    +0.000 N 
ATOM     20  H   UNL     1      46.609   5.537  15.343  0.00  0.00    +0.000 HD
BRANCH  18  21
ATOM     21  C   UNL     1      48.532   5.273  17.047  0.00  0.00    +0.000 A 
ATOM     22  C   UNL     1      48.605   3.896  17.158  0.00  0.00    +0.000 A 
ATOM     23  S   UNL     1      48.588   3.344  18.777  0.00  0.00    +0.000 S 
ATOM     24  C   UNL     1      48.505   4.935  19.378  0.00  0.00    +0.000 A 
ATOM     25  N   UNL     1      48.504   5.192  20.713  0.00  0.00    +0.000 NA
ATOM     26  C   UNL     1      48.476   6.448  21.015  0.00  0.00    +0.000 A 
ATOM     27  N   UNL     1      48.433   7.471  20.103  0.00  0.00    +0.000 N 
ATOM     28  C   UNL     1      48.355   7.261  18.760  0.00  0.00    +0.000 A 
ATOM     29  O   UNL     1      48.171   8.193  17.985  0.00  0.00    +0.000 OA
ATOM     30  C   UNL     1      48.448   5.867  18.360  0.00  0.00    +0.000 A 
ATOM     31  H   UNL     1      48.358   8.434  20.396  0.00  0.00    +0.000 HD
ENDBRANCH  18  21
ENDBRANCH   1  19
TORSDOF 6
ENDMDL
MODEL 3
REMARK VINA RESULT:    -8.366      2.582      4.455
REMARK INTER + INTRA:         -12.047
REMARK INTER:                 -10.758
REMARK INTRA:                  -1.289
REMARK UNBOUND:                -0.991
REMARK  Name = 
REMARK  6 active torsions:
REMARK  status: ('A' for Active; 'I' for Inactive)
REMARK    1  A    between atoms: C_2  and  C_19
REMARK    2  A    between atoms: N_3  and  C_4
REMARK    3  A    between atoms: C_4  and  C_5
REMARK    4  A    between atoms: C_8  and  C_9
REMARK    5  A    between atoms: C_9  and  O_10
REMARK    6  A    between atoms: C_9  and  C_11
REMARK                            x       y       z     vdW  Elec       q    Type
REMARK                         _______ _______ _______ _____ _____    ______ ____
ROOT
ATOM      1  C   UNL     1      47.085   5.309  14.318  0.00  0.00    +0.000 C 
ENDROOT
BRANCH   1   2
ATOM      2  C   UNL     1      46.337   4.886  13.081  0.00  0.00    +0.000 A 
ATOM      3  C   UNL     1      46.166   5.765  12.003  0.00  0.00    +0.000 A 
ATOM      4  C   UNL     1      45.525   5.346  10.829  0.00  0.00    +0.000 A 
ATOM      5  C   UNL     1      45.040   4.033  10.708  0.00  0.00    +0.000 A 
ATOM      6  C   UNL     1      45.190   3.168  11.805  0.00  0.00    +0.000 A 
ATOM      7  C   UNL     1      45.821   3.590  12.978  0.00  0.00    +0.000 A 
BRANCH   5   8
ATOM      8  C   UNL     1      44.389   3.550   9.417  0.00  0.00    +0.000 C 
BRANCH   8   9
ATOM      9  C   UNL     1      45.366   2.927   8.427  0.00  0.00    +0.000 A 
ATOM     10  C   UNL     1      45.743   1.581   8.572  0.00  0.00    +0.000 A 
ATOM     11  C   UNL     1      46.669   0.997   7.704  0.00  0.00    +0.000 A 
ATOM     12  C   UNL     1      47.214   1.740   6.660  0.00  0.00    +0.000 A 
ATOM     13  C   UNL     1      46.828   3.065   6.478  0.00  0.00    +0.000 A 
ATOM     14  C   UNL     1      45.913   3.654   7.355  0.00  0.00    +0.000 A 
ENDBRANCH   8   9
BRANCH   8  15
ATOM     15  O   UNL     1      43.689   4.640   8.810  0.00  0.00    +0.000 OA
ATOM     16  H   UNL     1      42.747   4.406   8.810  0.00  0.00    +0.000 HD
ENDBRANCH   8  15
ENDBRANCH   5   8
ENDBRANCH   1   2
BRANCH   1  19
ATOM     17  O   UNL     1      49.397   6.299  15.451  0.00  0.00    +0.000 OA
ATOM     18  C   UNL     1      48.681   7.071  14.826  0.00  0.00    +0.000 C 
ATOM     19  N   UNL     1      47.476   6.690  14.291  0.00  0.00    +0.000 N 
ATOM     20  H   UNL     1      47.021   7.287  13.606  0.00  0.00    +0.000 HD
BRANCH  18  21
ATOM     21  C   UNL     1      49.071   8.471  14.637  0.00  0.00    +0.000 A 
ATOM     22  C   UNL     1      49.099   9.369  15.689  0.00  0.00    +0.000 A 
ATOM     23  S   UNL     1      49.665  10.920  15.243  0.00  0.00    +0.000 S 
ATOM     24  C   UNL     1      49.910  10.430  13.631  0.00  0.00    +0.000 A 
ATOM     25  N   UNL     1      50.430  11.275  12.701  0.00  0.00    +0.000 NA
ATOM     26  C   UNL     1      50.593  10.747  11.533  0.00  0.00    +0.000 A 
ATOM     27  N   UNL     1      50.268   9.456  11.204  0.00  0.00    +0.000 N 
ATOM     28  C   UNL     1      49.674   8.598  12.080  0.00  0.00    +0.000 A 
ATOM     29  O   UNL     1      49.266   7.502  11.711  0.00  0.00    +0.000 OA
ATOM     30  C   UNL     1      49.526   9.118  13.428  0.00  0.00    +0.000 A 
ATOM     31  H   UNL     1      50.367   9.113  10.261  0.00  0.00    +0.000 HD
ENDBRANCH  18  21
ENDBRANCH   1  19
TORSDOF 6
ENDMDL
MODEL 4
REMARK VINA RESULT:    -8.012      2.586      3.534
REMARK INTER + INTRA:         -11.579
REMARK INTER:                 -10.404
REMARK INTRA:                  -1.176
REMARK UNBOUND:                -0.991
REMARK  Name = 
REMARK  6 active torsions:
REMARK  status: ('A' for Active; 'I' for Inactive)
REMARK    1  A    between atoms: C_2  and  C_19
REMARK    2  A    between atoms: N_3  and  C_4
REMARK    3  A    between atoms: C_4  and  C_5
REMARK    4  A    between atoms: C_8  and  C_9
REMARK    5  A    between atoms: C_9  and  O_10
REMARK    6  A    between atoms: C_9  and  C_11
REMARK                            x       y       z     vdW  Elec       q    Type
REMARK                         _______ _______ _______ _____ _____    ______ ____
ROOT
ATOM      1  C   UNL     1      46.621   5.536  14.031  0.00  0.00    +0.000 C 
ENDROOT
BRANCH   1   2
ATOM      2  C   UNL     1      46.000   5.019  12.759  0.00  0.00    +0.000 A 
ATOM      3  C   UNL     1      45.984   5.797  11.594  0.00  0.00    +0.000 A 
ATOM      4  C   UNL     1      45.462   5.287  10.397  0.00  0.00    +0.000 A 
ATOM      5  C   UNL     1      44.947   3.981  10.341  0.00  0.00    +0.000 A 
ATOM      6  C   UNL     1      44.941   3.220  11.521  0.00  0.00    +0.000 A 
ATOM      7  C   UNL     1      45.453   3.733  12.716  0.00  0.00    +0.000 A 
BRANCH   5   8
ATOM      8  C   UNL     1      44.426   3.397   9.032  0.00  0.00    +0.000 C 
BRANCH   8   9
ATOM      9  C   UNL     1      45.515   2.814   8.139  0.00  0.00    +0.000 A 
ATOM     10  C   UNL     1      45.965   1.500   8.355  0.00  0.00    +0.000 A 
ATOM     11  C   UNL     1      46.992   0.956   7.579  0.00  0.00    +0.000 A 
ATOM     12  C   UNL     1      47.567   1.705   6.556  0.00  0.00    +0.000 A 
ATOM     13  C   UNL     1      47.112   2.996   6.303  0.00  0.00    +0.000 A 
ATOM     14  C   UNL     1      46.096   3.547   7.089  0.00  0.00    +0.000 A 
ENDBRANCH   8   9
BRANCH   8  15
ATOM     15  O   UNL     1      43.690   4.403   8.330  0.00  0.00    +0.000 OA
ATOM     16  H   UNL     1      42.849   4.518   8.801  0.00  0.00    +0.000 HD
ENDBRANCH   8  15
ENDBRANCH   5   8
ENDBRANCH   1   2
BRANCH   1  19
ATOM     17  O   UNL     1      47.202   8.232  13.974  0.00  0.00    +0.000 OA
ATOM     18  C   UNL     1      48.129   7.437  13.887  0.00  0.00    +0.000 C 
ATOM     19  N   UNL     1      47.935   6.080  13.831  0.00  0.00    +0.000 N 
ATOM     20  H   UNL     1      48.723   5.455  13.977  0.00  0.00    +0.000 HD
BRANCH  18  21
ATOM     21  C   UNL     1      49.516   7.907  13.814  0.00  0.00    +0.000 A 
ATOM     22  C   UNL     1      49.931   8.803  12.845  0.00  0.00    +0.000 A 
ATOM     23  S   UNL     1      51.570   9.268  13.009  0.00  0.00    +0.000 S 
ATOM     24  C   UNL     1      51.765   8.299  14.395  0.00  0.00    +0.000 A 
ATOM     25  N   UNL     1      52.940   8.263  15.079  0.00  0.00    +0.000 NA
ATOM     26  C   UNL     1      52.923   7.513  16.130  0.00  0.00    +0.000 A 
ATOM     27  N   UNL     1      51.843   6.781  16.552  0.00  0.00    +0.000 N 
ATOM     28  C   UNL     1      50.672   6.724  15.859  0.00  0.00    +0.000 A 
ATOM     29  O   UNL     1      49.781   5.948  16.186  0.00  0.00    +0.000 OA
ATOM     30  C   UNL     1      50.613   7.600  14.702  0.00  0.00    +0.000 A 
ATOM     31  H   UNL     1      51.903   6.168  17.352  0.00  0.00    +0.000 HD
ENDBRANCH  18  21
ENDBRANCH   1  19
TORSDOF 6
ENDMDL
MODEL 5
REMARK VINA RESULT:    -7.776      1.256      1.921
REMARK INTER + INTRA:         -11.267
REMARK INTER:                  -9.983
REMARK INTRA:                  -1.284
REMARK UNBOUND:                -0.991
REMARK  Name = 
REMARK  6 active torsions:
REMARK  status: ('A' for Active; 'I' for Inactive)
REMARK    1  A    between atoms: C_2  and  C_19
REMARK    2  A    between atoms: N_3  and  C_4
REMARK    3  A    between atoms: C_4  and  C_5
REMARK    4  A    between atoms: C_8  and  C_9
REMARK    5  A    between atoms: C_9  and  O_10
REMARK    6  A    between atoms: C_9  and  C_11
REMARK                            x       y       z     vdW  Elec       q    Type
REMARK                         _______ _______ _______ _____ _____    ______ ____
ROOT
ATOM      1  C   UNL     1      48.080   7.937  13.974  0.00  0.00    +0.000 C 
ENDROOT
BRANCH   1   2
ATOM      2  C   UNL     1      47.028   7.140  13.247  0.00  0.00    +0.000 A 
ATOM      3  C   UNL     1      46.013   7.775  12.520  0.00  0.00    +0.000 A 
ATOM      4  C   UNL     1      45.075   7.029  11.793  0.00  0.00    +0.000 A 
ATOM      5  C   UNL     1      45.135   5.626  11.777  0.00  0.00    +0.000 A 
ATOM      6  C   UNL     1      46.139   4.997  12.533  0.00  0.00    +0.000 A 
ATOM      7  C   UNL     1      47.067   5.742  13.264  0.00  0.00    +0.000 A 
BRANCH   5   8
ATOM      8  C   UNL     1      44.154   4.805  10.948  0.00  0.00    +0.000 C 
BRANCH   8   9
ATOM      9  C   UNL     1      44.814   3.963   9.863  0.00  0.00    +0.000 A 
ATOM     10  C   UNL     1      45.478   4.595   8.797  0.00  0.00    +0.000 A 
ATOM     11  C   UNL     1      46.055   3.848   7.766  0.00  0.00    +0.000 A 
ATOM     12  C   UNL     1      46.001   2.457   7.796  0.00  0.00    +0.000 A 
ATOM     13  C   UNL     1      45.378   1.811   8.859  0.00  0.00    +0.000 A 
ATOM     14  C   UNL     1      44.787   2.557   9.883  0.00  0.00    +0.000 A 
ENDBRANCH   8   9
BRANCH   8  15
ATOM     15  O   UNL     1      43.178   5.681  10.375  0.00  0.00    +0.000 OA
ATOM     16  H   UNL     1      42.502   5.120   9.962  0.00  0.00    +0.000 HD
ENDBRANCH   8  15
ENDBRANCH   5   8
ENDBRANCH   1   2
BRANCH   1  19
ATOM     17  O   UNL     1      50.542   7.260  15.016  0.00  0.00    +0.000 OA
ATOM     18  C   UNL     1      49.571   7.235  15.760  0.00  0.00    +0.000 C 
ATOM     19  N   UNL     1      48.296   7.483  15.319  0.00  0.00    +0.000 N 
ATOM     20  H   UNL     1      47.558   7.665  15.994  0.00  0.00    +0.000 HD
BRANCH  18  21
ATOM     21  C   UNL     1      49.723   6.911  17.182  0.00  0.00    +0.000 A 
ATOM     22  C   UNL     1      50.343   7.778  18.065  0.00  0.00    +0.000 A 
ATOM     23  S   UNL     1      50.329   7.223  19.683  0.00  0.00    +0.000 S 
ATOM     24  C   UNL     1      49.472   5.816  19.253  0.00  0.00    +0.000 A 
ATOM     25  N   UNL     1      49.087   4.903  20.185  0.00  0.00    +0.000 NA
ATOM     26  C   UNL     1      48.413   3.909  19.712  0.00  0.00    +0.000 A 
ATOM     27  N   UNL     1      48.101   3.734  18.388  0.00  0.00    +0.000 N 
ATOM     28  C   UNL     1      48.531   4.578  17.409  0.00  0.00    +0.000 A 
ATOM     29  O   UNL     1      48.357   4.312  16.225  0.00  0.00    +0.000 OA
ATOM     30  C   UNL     1      49.240   5.750  17.892  0.00  0.00    +0.000 A 
ATOM     31  H   UNL     1      47.616   2.909  18.066  0.00  0.00    +0.000 HD
ENDBRANCH  18  21
ENDBRANCH   1  19
TORSDOF 6
ENDMDL
MODEL 6
REMARK VINA RESULT:    -7.302      3.807      8.879
REMARK INTER + INTRA:         -10.641
REMARK INTER:                  -9.538
REMARK INTRA:                  -1.103
REMARK UNBOUND:                -0.991
REMARK  Name = 
REMARK  6 active torsions:
REMARK  status: ('A' for Active; 'I' for Inactive)
REMARK    1  A    between atoms: C_2  and  C_19
REMARK    2  A    between atoms: N_3  and  C_4
REMARK    3  A    between atoms: C_4  and  C_5
REMARK    4  A    between atoms: C_8  and  C_9
REMARK    5  A    between atoms: C_9  and  O_10
REMARK    6  A    between atoms: C_9  and  C_11
REMARK                            x       y       z     vdW  Elec       q    Type
REMARK                         _______ _______ _______ _____ _____    ______ ____
ROOT
ATOM      1  C   UNL     1      47.151   3.317  16.755  0.00  0.00    +0.000 C 
ENDROOT
BRANCH   1   2
ATOM      2  C   UNL     1      48.547   3.379  17.319  0.00  0.00    +0.000 A 
ATOM      3  C   UNL     1      49.525   2.453  16.932  0.00  0.00    +0.000 A 
ATOM      4  C   UNL     1      50.838   2.555  17.411  0.00  0.00    +0.000 A 
ATOM      5  C   UNL     1      51.202   3.590  18.288  0.00  0.00    +0.000 A 
ATOM      6  C   UNL     1      50.208   4.496  18.692  0.00  0.00    +0.000 A 
ATOM      7  C   UNL     1      48.897   4.388  18.222  0.00  0.00    +0.000 A 
BRANCH   5   8
ATOM      8  C   UNL     1      52.640   3.742  18.773  0.00  0.00    +0.000 C 
BRANCH   8   9
ATOM      9  C   UNL     1      53.585   4.331  17.732  0.00  0.00    +0.000 A 
ATOM     10  C   UNL     1      54.770   3.651  17.401  0.00  0.00    +0.000 A 
ATOM     11  C   UNL     1      55.674   4.189  16.483  0.00  0.00    +0.000 A 
ATOM     12  C   UNL     1      55.398   5.402  15.858  0.00  0.00    +0.000 A 
ATOM     13  C   UNL     1      54.214   6.076  16.146  0.00  0.00    +0.000 A 
ATOM     14  C   UNL     1      53.316   5.546  17.076  0.00  0.00    +0.000 A 
ENDBRANCH   8   9
BRANCH   8  15
ATOM     15  O   UNL     1      53.120   2.471  19.220  0.00  0.00    +0.000 OA
ATOM     16  H   UNL     1      53.688   2.119  18.515  0.00  0.00    +0.000 HD
ENDBRANCH   8  15
ENDBRANCH   5   8
ENDBRANCH   1   2
BRANCH   1  19
ATOM     17  O   UNL     1      47.205   3.149  14.002  0.00  0.00    +0.000 OA
ATOM     18  C   UNL     1      46.846   4.202  14.512  0.00  0.00    +0.000 C 
ATOM     19  N   UNL     1      46.857   4.407  15.869  0.00  0.00    +0.000 N 
ATOM     20  H   UNL     1      46.355   5.200  16.260  0.00  0.00    +0.000 HD
BRANCH  18  21
ATOM     21  C   UNL     1      46.400   5.325  13.681  0.00  0.00    +0.000 A 
ATOM     22  C   UNL     1      47.206   6.426  13.452  0.00  0.00    +0.000 A 
ATOM     23  S   UNL     1      46.507   7.568  12.386  0.00  0.00    +0.000 S 
ATOM     24  C   UNL     1      45.113   6.611  12.184  0.00  0.00    +0.000 A 
ATOM     25  N   UNL     1      44.107   6.986  11.350  0.00  0.00    +0.000 NA
ATOM     26  C   UNL     1      43.135   6.139  11.272  0.00  0.00    +0.000 A 
ATOM     27  N   UNL     1      43.068   4.957  11.964  0.00  0.00    +0.000 N 
ATOM     28  C   UNL     1      44.013   4.577  12.868  0.00  0.00    +0.000 A 
ATOM     29  O   UNL     1      43.849   3.588  13.574  0.00  0.00    +0.000 OA
ATOM     30  C   UNL     1      45.163   5.462  12.949  0.00  0.00    +0.000 A 
ATOM     31  H   UNL     1      42.258   4.358  11.906  0.00  0.00    +0.000 HD
ENDBRANCH  18  21
ENDBRANCH   1  19
TORSDOF 6
ENDMDL
MODEL 7
REMARK VINA RESULT:    -7.244      3.842      8.221
REMARK INTER + INTRA:         -10.564
REMARK INTER:                  -9.262
REMARK INTRA:                  -1.302
REMARK UNBOUND:                -0.991
REMARK  Name = 
REMARK  6 active torsions:
REMARK  status: ('A' for Active; 'I' for Inactive)
REMARK    1  A    between atoms: C_2  and  C_19
REMARK    2  A    between atoms: N_3  and  C_4
REMARK    3  A    between atoms: C_4  and  C_5
REMARK    4  A    between atoms: C_8  and  C_9
REMARK    5  A    between atoms: C_9  and  O_10
REMARK    6  A    between atoms: C_9  and  C_11
REMARK                            x       y       z     vdW  Elec       q    Type
REMARK                         _______ _______ _______ _____ _____    ______ ____
ROOT
ATOM      1  C   UNL     1      48.431   7.327  14.064  0.00  0.00    +0.000 C 
ENDROOT
BRANCH   1   2
ATOM      2  C   UNL     1      48.907   6.598  15.293  0.00  0.00    +0.000 A 
ATOM      3  C   UNL     1      48.119   5.611  15.900  0.00  0.00    +0.000 A 
ATOM      4  C   UNL     1      48.594   4.891  17.004  0.00  0.00    +0.000 A 
ATOM      5  C   UNL     1      49.874   5.142  17.525  0.00  0.00    +0.000 A 
ATOM      6  C   UNL     1      50.646   6.153  16.928  0.00  0.00    +0.000 A 
ATOM      7  C   UNL     1      50.167   6.876  15.832  0.00  0.00    +0.000 A 
BRANCH   5   8
ATOM      8  C   UNL     1      50.423   4.329  18.692  0.00  0.00    +0.000 C 
BRANCH   8   9
ATOM      9  C   UNL     1      51.451   3.280  18.285  0.00  0.00    +0.000 A 
ATOM     10  C   UNL     1      51.033   2.112  17.625  0.00  0.00    +0.000 A 
ATOM     11  C   UNL     1      51.949   1.115  17.279  0.00  0.00    +0.000 A 
ATOM     12  C   UNL     1      53.302   1.280  17.563  0.00  0.00    +0.000 A 
ATOM     13  C   UNL     1      53.742   2.443  18.187  0.00  0.00    +0.000 A 
ATOM     14  C   UNL     1      52.825   3.435  18.546  0.00  0.00    +0.000 A 
ENDBRANCH   8   9
BRANCH   8  15
ATOM     15  O   UNL     1      49.334   3.716  19.388  0.00  0.00    +0.000 OA
ATOM     16  H   UNL     1      49.550   3.747  20.334  0.00  0.00    +0.000 HD
ENDBRANCH   8  15
ENDBRANCH   5   8
ENDBRANCH   1   2
BRANCH   1  19
ATOM     17  O   UNL     1      47.575   7.080  11.453  0.00  0.00    +0.000 OA
ATOM     18  C   UNL     1      46.790   6.799  12.350  0.00  0.00    +0.000 C 
ATOM     19  N   UNL     1      47.097   6.961  13.677  0.00  0.00    +0.000 N 
ATOM     20  H   UNL     1      46.514   6.520  14.384  0.00  0.00    +0.000 HD
BRANCH  18  21
ATOM     21  C   UNL     1      45.450   6.289  12.042  0.00  0.00    +0.000 A 
ATOM     22  C   UNL     1      44.465   7.102  11.510  0.00  0.00    +0.000 A 
ATOM     23  S   UNL     1      43.013   6.268  11.159  0.00  0.00    +0.000 S 
ATOM     24  C   UNL     1      43.668   4.789  11.688  0.00  0.00    +0.000 A 
ATOM     25  N   UNL     1      42.958   3.631  11.621  0.00  0.00    +0.000 NA
ATOM     26  C   UNL     1      43.602   2.586  12.024  0.00  0.00    +0.000 A 
ATOM     27  N   UNL     1      44.886   2.594  12.504  0.00  0.00    +0.000 N 
ATOM     28  C   UNL     1      45.608   3.738  12.663  0.00  0.00    +0.000 A 
ATOM     29  O   UNL     1      46.696   3.725  13.229  0.00  0.00    +0.000 OA
ATOM     30  C   UNL     1      44.957   4.937  12.165  0.00  0.00    +0.000 A 
ATOM     31  H   UNL     1      45.322   1.754  12.856  0.00  0.00    +0.000 HD
ENDBRANCH  18  21
ENDBRANCH   1  19
TORSDOF 6
ENDMDL
MODEL 8
REMARK VINA RESULT:    -7.214      2.070      2.731
REMARK INTER + INTRA:         -10.525
REMARK INTER:                  -9.353
REMARK INTRA:                  -1.172
REMARK UNBOUND:                -0.991
REMARK  Name = 
REMARK  6 active torsions:
REMARK  status: ('A' for Active; 'I' for Inactive)
REMARK    1  A    between atoms: C_2  and  C_19
REMARK    2  A    between atoms: N_3  and  C_4
REMARK    3  A    between atoms: C_4  and  C_5
REMARK    4  A    between atoms: C_8  and  C_9
REMARK    5  A    between atoms: C_9  and  O_10
REMARK    6  A    between atoms: C_9  and  C_11
REMARK                            x       y       z     vdW  Elec       q    Type
REMARK                         _______ _______ _______ _____ _____    ______ ____
ROOT
ATOM      1  C   UNL     1      48.117   7.732  14.209  0.00  0.00    +0.000 C 
ENDROOT
BRANCH   1   2
ATOM      2  C   UNL     1      47.191   6.950  13.315  0.00  0.00    +0.000 A 
ATOM      3  C   UNL     1      47.010   5.571  13.489  0.00  0.00    +0.000 A 
ATOM      4  C   UNL     1      46.099   4.861  12.696  0.00  0.00    +0.000 A 
ATOM      5  C   UNL     1      45.344   5.517  11.710  0.00  0.00    +0.000 A 
ATOM      6  C   UNL     1      45.553   6.893  11.524  0.00  0.00    +0.000 A 
ATOM      7  C   UNL     1      46.468   7.599  12.309  0.00  0.00    +0.000 A 
BRANCH   5   8
ATOM      8  C   UNL     1      44.312   4.765  10.878  0.00  0.00    +0.000 C 
BRANCH   8   9
ATOM      9  C   UNL     1      44.915   3.899   9.778  0.00  0.00    +0.000 A 
ATOM     10  C   UNL     1      45.576   4.507   8.696  0.00  0.00    +0.000 A 
ATOM     11  C   UNL     1      46.100   3.739   7.653  0.00  0.00    +0.000 A 
ATOM     12  C   UNL     1      45.998   2.352   7.686  0.00  0.00    +0.000 A 
ATOM     13  C   UNL     1      45.377   1.728   8.764  0.00  0.00    +0.000 A 
ATOM     14  C   UNL     1      44.838   2.495   9.801  0.00  0.00    +0.000 A 
ENDBRANCH   8   9
BRANCH   8  15
ATOM     15  O   UNL     1      43.384   5.702  10.323  0.00  0.00    +0.000 OA
ATOM     16  H   UNL     1      43.818   6.107   9.555  0.00  0.00    +0.000 HD
ENDBRANCH   8  15
ENDBRANCH   5   8
ENDBRANCH   1   2
BRANCH   1  19
ATOM     17  O   UNL     1      48.354   8.547  16.834  0.00  0.00    +0.000 OA
ATOM     18  C   UNL     1      48.697   7.407  16.547  0.00  0.00    +0.000 C 
ATOM     19  N   UNL     1      48.687   6.935  15.258  0.00  0.00    +0.000 N 
ATOM     20  H   UNL     1      48.769   5.936  15.090  0.00  0.00    +0.000 HD
BRANCH  18  21
ATOM     21  C   UNL     1      49.167   6.481  17.582  0.00  0.00    +0.000 A 
ATOM     22  C   UNL     1      48.333   6.030  18.589  0.00  0.00    +0.000 A 
ATOM     23  S   UNL     1      49.078   4.896  19.631  0.00  0.00    +0.000 S 
ATOM     24  C   UNL     1      50.534   4.959  18.750  0.00  0.00    +0.000 A 
ATOM     25  N   UNL     1      51.601   4.184  19.082  0.00  0.00    +0.000 NA
ATOM     26  C   UNL     1      52.619   4.314  18.299  0.00  0.00    +0.000 A 
ATOM     27  N   UNL     1      52.676   5.161  17.221  0.00  0.00    +0.000 N 
ATOM     28  C   UNL     1      51.663   6.012  16.897  0.00  0.00    +0.000 A 
ATOM     29  O   UNL     1      51.804   6.855  16.018  0.00  0.00    +0.000 OA
ATOM     30  C   UNL     1      50.466   5.862  17.707  0.00  0.00    +0.000 A 
ATOM     31  H   UNL     1      53.518   5.261  16.675  0.00  0.00    +0.000 HD
ENDBRANCH  18  21
ENDBRANCH   1  19
TORSDOF 6
ENDMDL
MODEL 9
REMARK VINA RESULT:    -7.129      3.248      4.823
REMARK INTER + INTRA:         -10.412
REMARK INTER:                  -9.180
REMARK INTRA:                  -1.231
REMARK UNBOUND:                -0.991
REMARK  Name = 
REMARK  6 active torsions:
REMARK  status: ('A' for Active; 'I' for Inactive)
REMARK    1  A    between atoms: C_2  and  C_19
REMARK    2  A    between atoms: N_3  and  C_4
REMARK    3  A    between atoms: C_4  and  C_5
REMARK    4  A    between atoms: C_8  and  C_9
REMARK    5  A    between atoms: C_9  and  O_10
REMARK    6  A    between atoms: C_9  and  C_11
REMARK                            x       y       z     vdW  Elec       q    Type
REMARK                         _______ _______ _______ _____ _____    ______ ____
ROOT
ATOM      1  C   UNL     1      47.582   6.871  14.352  0.00  0.00    +0.000 C 
ENDROOT
BRANCH   1   2
ATOM      2  C   UNL     1      46.686   6.203  13.341  0.00  0.00    +0.000 A 
ATOM      3  C   UNL     1      46.098   6.934  12.301  0.00  0.00    +0.000 A 
ATOM      4  C   UNL     1      45.318   6.297  11.327  0.00  0.00    +0.000 A 
ATOM      5  C   UNL     1      45.111   4.908  11.371  0.00  0.00    +0.000 A 
ATOM      6  C   UNL     1      45.682   4.188  12.433  0.00  0.00    +0.000 A 
ATOM      7  C   UNL     1      46.451   4.826  13.410  0.00  0.00    +0.000 A 
BRANCH   5   8
ATOM      8  C   UNL     1      44.310   4.196  10.287  0.00  0.00    +0.000 C 
BRANCH   8   9
ATOM      9  C   UNL     1      45.169   3.525   9.223  0.00  0.00    +0.000 A 
ATOM     10  C   UNL     1      45.819   4.309   8.254  0.00  0.00    +0.000 A 
ATOM     11  C   UNL     1      46.578   3.716   7.241  0.00  0.00    +0.000 A 
ATOM     12  C   UNL     1      46.723   2.332   7.195  0.00  0.00    +0.000 A 
ATOM     13  C   UNL     1      46.115   1.540   8.164  0.00  0.00    +0.000 A 
ATOM     14  C   UNL     1      45.343   2.130   9.168  0.00  0.00    +0.000 A 
ENDBRANCH   8   9
BRANCH   8  15
ATOM     15  O   UNL     1      43.407   5.128   9.684  0.00  0.00    +0.000 OA
ATOM     16  H   UNL     1      43.669   6.013   9.988  0.00  0.00    +0.000 HD
ENDBRANCH   8  15
ENDBRANCH   5   8
ENDBRANCH   1   2
BRANCH   1  19
ATOM     17  O   UNL     1      48.876   9.286  14.665  0.00  0.00    +0.000 OA
ATOM     18  C   UNL     1      49.473   8.377  14.103  0.00  0.00    +0.000 C 
ATOM     19  N   UNL     1      48.888   7.165  13.834  0.00  0.00    +0.000 N 
ATOM     20  H   UNL     1      49.470   6.376  13.568  0.00  0.00    +0.000 HD
BRANCH  18  21
ATOM     21  C   UNL     1      50.860   8.551  13.660  0.00  0.00    +0.000 A 
ATOM     22  C   UNL     1      51.846   9.010  14.515  0.00  0.00    +0.000 A 
ATOM     23  S   UNL     1      53.399   9.052  13.799  0.00  0.00    +0.000 S 
ATOM     24  C   UNL     1      52.801   8.435  12.329  0.00  0.00    +0.000 A 
ATOM     25  N   UNL     1      53.623   8.180  11.277  0.00  0.00    +0.000 NA
ATOM     26  C   UNL     1      53.029   7.680  10.245  0.00  0.00    +0.000 A 
ATOM     27  N   UNL     1      51.684   7.425  10.162  0.00  0.00    +0.000 N 
ATOM     28  C   UNL     1      50.811   7.736  11.160  0.00  0.00    +0.000 A 
ATOM     29  O   UNL     1      49.600   7.629  10.995  0.00  0.00    +0.000 OA
ATOM     30  C   UNL     1      51.433   8.242  12.371  0.00  0.00    +0.000 A 
ATOM     31  H   UNL     1      51.265   7.082   9.310  0.00  0.00    +0.000 HD
ENDBRANCH  18  21
ENDBRANCH   1  19
TORSDOF 6
ENDMDL
