MODEL 1
REMARK VINA RESULT:    -8.905      0.000      0.000
REMARK INTER + INTRA:         -13.743
REMARK INTER:                 -12.549
REMARK INTRA:                  -1.193
REMARK UNBOUND:                -1.193
REMARK  Name = 
REMARK  7 active torsions:
REMARK  status: ('A' for Active; 'I' for Inactive)
REMARK    1  A    between atoms: C_2  and  C_20
REMARK    2  A    between atoms: N_3  and  C_4
REMARK    3  A    between atoms: C_4  and  C_5
REMARK    4  A    between atoms: C_8  and  C_9
REMARK    5  A    between atoms: C_9  and  N_10
REMARK    6  A    between atoms: N_10  and  C_11
REMARK    7  A    between atoms: C_11  and  C_12
REMARK                            x       y       z     vdW  Elec       q    Type
REMARK                         _______ _______ _______ _____ _____    ______ ____
ROOT
ATOM      1  C   UNL     1      46.709   7.972  12.670  0.00  0.00    +0.000 C 
ENDROOT
BRANCH   1   2
ATOM      2  C   UNL     1      45.678   6.996  12.102  0.00  0.00    +0.000 C 
ATOM      3  C   UNL     1      45.215   5.998  13.176  0.00  0.00    +0.000 C 
ATOM      4  C   UNL     1      44.216   4.991  12.613  0.00  0.00    +0.000 C 
ATOM      5  C   UNL     1      44.785   4.246  11.397  0.00  0.00    +0.000 C 
ATOM      6  C   UNL     1      45.280   5.242  10.333  0.00  0.00    +0.000 C 
ATOM      7  C   UNL     1      46.266   6.254  10.902  0.00  0.00    +0.000 C 
BRANCH   5   8
ATOM      8  C   UNL     1      43.739   3.281  10.802  0.00  0.00    +0.000 C 
BRANCH   8   9
ATOM      9  N   UNL     1      44.048   3.025   9.397  0.00  0.00    +0.000 NA
ATOM     10  H   UNL     1      44.529   3.828   8.993  0.00  0.00    +0.000 HD
BRANCH   9  11
ATOM     11  C   UNL     1      44.857   1.827   9.204  0.00  0.00    +0.000 C 
BRANCH  11  12
ATOM     12  C   UNL     1      45.853   2.036   8.094  0.00  0.00    +0.000 A 
ATOM     13  C   UNL     1      45.887   3.226   7.358  0.00  0.00    +0.000 A 
ATOM     14  C   UNL     1      46.825   3.388   6.343  0.00  0.00    +0.000 A 
ATOM     15  C   UNL     1      47.701   2.347   6.089  0.00  0.00    +0.000 A 
ATOM     16  N   UNL     1      47.700   1.182   6.772  0.00  0.00    +0.000 NA
ATOM     17  C   UNL     1      46.780   1.055   7.756  0.00  0.00    +0.000 A 
ENDBRANCH  11  12
ENDBRANCH   9  11
ENDBRANCH   8   9
ENDBRANCH   5   8
ENDBRANCH   1   2
BRANCH   1  20
ATOM     18  O   UNL     1      49.001   6.402  13.225  0.00  0.00    +0.000 OA
ATOM     19  C   UNL     1      48.255   6.735  14.144  0.00  0.00    +0.000 C 
ATOM     20  N   UNL     1      47.161   7.537  13.966  0.00  0.00    +0.000 N 
ATOM     21  H   UNL     1      46.592   7.803  14.758  0.00  0.00    +0.000 HD
BRANCH  19  22
ATOM     22  C   UNL     1      48.511   6.342  15.524  0.00  0.00    +0.000 A 
ATOM     23  C   UNL     1      49.181   7.179  16.407  0.00  0.00    +0.000 A 
ATOM     24  S   UNL     1      49.308   6.531  17.981  0.00  0.00    +0.000 S 
ATOM     25  C   UNL     1      48.508   5.096  17.519  0.00  0.00    +0.000 A 
ATOM     26  N   UNL     1      48.259   4.103  18.406  0.00  0.00    +0.000 NA
ATOM     27  C   UNL     1      47.635   3.086  17.908  0.00  0.00    +0.000 A 
ATOM     28  N   UNL     1      47.250   2.967  16.597  0.00  0.00    +0.000 N 
ATOM     29  C   UNL     1      47.534   3.917  15.653  0.00  0.00    +0.000 A 
ATOM     30  O   UNL     1      47.229   3.738  14.479  0.00  0.00    +0.000 OA
ATOM     31  C   UNL     1      48.170   5.109  16.177  0.00  0.00    +0.000 A 
ATOM     32  H   UNL     1      46.780   2.142  16.258  0.00  0.00    +0.000 HD
ENDBRANCH  19  22
ENDBRANCH   1  20
TORSDOF 7
ENDMDL
MODEL 2
REMARK VINA RESULT:    -8.110      1.148      1.389
REMARK INTER + INTRA:         -12.622
REMARK INTER:                 -11.495
REMARK INTRA:                  -1.128
REMARK UNBOUND:                -1.193
REMARK  Name = 
REMARK  7 active torsions:
REMARK  status: ('A' for Active; 'I' for Inactive)
REMARK    1  A    between atoms: C_2  and  C_20
REMARK    2  A    between atoms: N_3  and  C_4
REMARK    3  A    between atoms: C_4  and  C_5
REMARK    4  A    between atoms: C_8  and  C_9
REMARK    5  A    between atoms: C_9  and  N_10
REMARK    6  A    between atoms: N_10  and  C_11
REMARK    7  A    between atoms: C_11  and  C_12
REMARK                            x       y       z     vdW  Elec       q    Type
REMARK                         _______ _______ _______ _____ _____    ______ ____
ROOT
ATOM      1  C   UNL     1      47.388   7.841  13.469  0.00  0.00    +0.000 C 
ENDROOT
BRANCH   1   2
ATOM      2  C   UNL     1      46.191   6.989  13.044  0.00  0.00    +0.000 C 
ATOM      3  C   UNL     1      46.644   5.597  12.578  0.00  0.00    +0.000 C 
ATOM      4  C   UNL     1      45.464   4.749  12.111  0.00  0.00    +0.000 C 
ATOM      5  C   UNL     1      44.664   5.452  11.004  0.00  0.00    +0.000 C 
ATOM      6  C   UNL     1      44.236   6.860  11.454  0.00  0.00    +0.000 C 
ATOM      7  C   UNL     1      45.414   7.697  11.933  0.00  0.00    +0.000 C 
BRANCH   5   8
ATOM      8  C   UNL     1      43.439   4.610  10.590  0.00  0.00    +0.000 C 
BRANCH   8   9
ATOM      9  N   UNL     1      43.835   3.622   9.590  0.00  0.00    +0.000 NA
ATOM     10  H   UNL     1      43.009   3.184   9.185  0.00  0.00    +0.000 HD
BRANCH   9  11
ATOM     11  C   UNL     1      44.653   4.191   8.525  0.00  0.00    +0.000 C 
BRANCH  11  12
ATOM     12  C   UNL     1      45.609   3.160   7.985  0.00  0.00    +0.000 A 
ATOM     13  C   UNL     1      46.472   3.451   6.923  0.00  0.00    +0.000 A 
ATOM     14  C   UNL     1      47.348   2.478   6.453  0.00  0.00    +0.000 A 
ATOM     15  C   UNL     1      47.330   1.233   7.059  0.00  0.00    +0.000 A 
ATOM     16  N   UNL     1      46.512   0.910   8.085  0.00  0.00    +0.000 NA
ATOM     17  C   UNL     1      45.675   1.879   8.523  0.00  0.00    +0.000 A 
ENDBRANCH  11  12
ENDBRANCH   9  11
ENDBRANCH   8   9
ENDBRANCH   5   8
ENDBRANCH   1   2
BRANCH   1  20
ATOM     18  O   UNL     1      50.044   7.080  14.094  0.00  0.00    +0.000 OA
ATOM     19  C   UNL     1      49.174   7.016  14.960  0.00  0.00    +0.000 C 
ATOM     20  N   UNL     1      47.882   7.418  14.753  0.00  0.00    +0.000 N 
ATOM     21  H   UNL     1      47.208   7.368  15.506  0.00  0.00    +0.000 HD
BRANCH  19  22
ATOM     22  C   UNL     1      49.466   6.555  16.312  0.00  0.00    +0.000 A 
ATOM     23  C   UNL     1      50.350   7.236  17.139  0.00  0.00    +0.000 A 
ATOM     24  S   UNL     1      50.483   6.543  18.693  0.00  0.00    +0.000 S 
ATOM     25  C   UNL     1      49.396   5.291  18.294  0.00  0.00    +0.000 A 
ATOM     26  N   UNL     1      49.040   4.343  19.194  0.00  0.00    +0.000 NA
ATOM     27  C   UNL     1      48.199   3.469  18.745  0.00  0.00    +0.000 A 
ATOM     28  N   UNL     1      47.693   3.450  17.472  0.00  0.00    +0.000 N 
ATOM     29  C   UNL     1      48.070   4.350  16.511  0.00  0.00    +0.000 A 
ATOM     30  O   UNL     1      47.641   4.255  15.367  0.00  0.00    +0.000 OA
ATOM     31  C   UNL     1      48.956   5.393  16.985  0.00  0.00    +0.000 A 
ATOM     32  H   UNL     1      47.052   2.733  17.170  0.00  0.00    +0.000 HD
ENDBRANCH  19  22
ENDBRANCH   1  20
TORSDOF 7
ENDMDL
MODEL 3
REMARK VINA RESULT:    -8.052      1.664      2.092
REMARK INTER + INTRA:         -12.540
REMARK INTER:                 -11.581
REMARK INTRA:                  -0.960
REMARK UNBOUND:                -1.193
REMARK  Name = 
REMARK  7 active torsions:
REMARK  status: ('A' for Active; 'I' for Inactive)
REMARK    1  A    between atoms: C_2  and  C_20
REMARK    2  A    between atoms: N_3  and  C_4
REMARK    3  A    between atoms: C_4  and  C_5
REMARK    4  A    between atoms: C_8  and  C_9
REMARK    5  A    between atoms: C_9  and  N_10
REMARK    6  A    between atoms: N_10  and  C_11
REMARK    7  A    between atoms: C_11  and  C_12
REMARK                            x       y       z     vdW  Elec       q    Type
REMARK                         _______ _______ _______ _____ _____    ______ ____
ROOT
ATOM      1  C   UNL     1      48.106   6.698  13.646  0.00  0.00    +0.000 C 
ENDROOT
BRANCH   1   2
ATOM      2  C   UNL     1      46.736   6.249  13.135  0.00  0.00    +0.000 C 
ATOM      3  C   UNL     1      46.505   4.757  13.418  0.00  0.00    +0.000 C 
ATOM      4  C   UNL     1      45.158   4.284  12.878  0.00  0.00    +0.000 C 
ATOM      5  C   UNL     1      45.017   4.573  11.376  0.00  0.00    +0.000 C 
ATOM      6  C   UNL     1      45.280   6.061  11.083  0.00  0.00    +0.000 C 
ATOM      7  C   UNL     1      46.618   6.532  11.637  0.00  0.00    +0.000 C 
BRANCH   5   8
ATOM      8  C   UNL     1      43.626   4.150  10.861  0.00  0.00    +0.000 C 
BRANCH   8   9
ATOM      9  N   UNL     1      43.753   3.552   9.534  0.00  0.00    +0.000 NA
ATOM     10  H   UNL     1      44.097   4.244   8.870  0.00  0.00    +0.000 HD
BRANCH   9  11
ATOM     11  C   UNL     1      44.632   2.388   9.519  0.00  0.00    +0.000 C 
BRANCH  11  12
ATOM     12  C   UNL     1      45.615   2.482   8.381  0.00  0.00    +0.000 A 
ATOM     13  C   UNL     1      46.416   1.394   8.018  0.00  0.00    +0.000 A 
ATOM     14  C   UNL     1      47.308   1.513   6.956  0.00  0.00    +0.000 A 
ATOM     15  C   UNL     1      47.376   2.725   6.291  0.00  0.00    +0.000 A 
ATOM     16  N   UNL     1      46.624   3.800   6.612  0.00  0.00    +0.000 NA
ATOM     17  C   UNL     1      45.763   3.653   7.645  0.00  0.00    +0.000 A 
ENDBRANCH  11  12
ENDBRANCH   9  11
ENDBRANCH   8   9
ENDBRANCH   5   8
ENDBRANCH   1   2
BRANCH   1  20
ATOM     18  O   UNL     1      50.348   6.713  15.376  0.00  0.00    +0.000 OA
ATOM     19  C   UNL     1      49.216   6.804  15.848  0.00  0.00    +0.000 C 
ATOM     20  N   UNL     1      48.088   6.860  15.076  0.00  0.00    +0.000 N 
ATOM     21  H   UNL     1      47.180   6.959  15.510  0.00  0.00    +0.000 HD
BRANCH  19  22
ATOM     22  C   UNL     1      48.986   6.919  17.283  0.00  0.00    +0.000 A 
ATOM     23  C   UNL     1      48.739   8.145  17.885  0.00  0.00    +0.000 A 
ATOM     24  S   UNL     1      48.439   8.022  19.561  0.00  0.00    +0.000 S 
ATOM     25  C   UNL     1      48.670   6.332  19.538  0.00  0.00    +0.000 A 
ATOM     26  N   UNL     1      48.536   5.579  20.656  0.00  0.00    +0.000 NA
ATOM     27  C   UNL     1      48.730   4.314  20.476  0.00  0.00    +0.000 A 
ATOM     28  N   UNL     1      49.062   3.735  19.279  0.00  0.00    +0.000 N 
ATOM     29  C   UNL     1      49.268   4.461  18.136  0.00  0.00    +0.000 A 
ATOM     30  O   UNL     1      49.628   3.907  17.104  0.00  0.00    +0.000 OA
ATOM     31  C   UNL     1      48.992   5.876  18.271  0.00  0.00    +0.000 A 
ATOM     32  H   UNL     1      49.219   2.742  19.199  0.00  0.00    +0.000 HD
ENDBRANCH  19  22
ENDBRANCH   1  20
TORSDOF 7
ENDMDL
MODEL 4
REMARK VINA RESULT:    -7.972      2.314      2.997
REMARK INTER + INTRA:         -12.427
REMARK INTER:                 -11.353
REMARK INTRA:                  -1.074
REMARK UNBOUND:                -1.193
REMARK  Name = 
REMARK  7 active torsions:
REMARK  status: ('A' for Active; 'I' for Inactive)
REMARK    1  A    between atoms: C_2  and  C_20
REMARK    2  A    between atoms: N_3  and  C_4
REMARK    3  A    between atoms: C_4  and  C_5
REMARK    4  A    between atoms: C_8  and  C_9
REMARK    5  A    between atoms: C_9  and  N_10
REMARK    6  A    between atoms: N_10  and  C_11
REMARK    7  A    between atoms: C_11  and  C_12
REMARK                            x       y       z     vdW  Elec       q    Type
REMARK                         _______ _______ _______ _____ _____    ______ ____
ROOT
ATOM      1  C   UNL     1      48.117   6.276  13.954  0.00  0.00    +0.000 C 
ENDROOT
BRANCH   1   2
ATOM      2  C   UNL     1      46.777   6.007  13.268  0.00  0.00    +0.000 C 
ATOM      3  C   UNL     1      46.420   4.513  13.325  0.00  0.00    +0.000 C 
ATOM      4  C   UNL     1      45.105   4.222  12.609  0.00  0.00    +0.000 C 
ATOM      5  C   UNL     1      45.131   4.712  11.153  0.00  0.00    +0.000 C 
ATOM      6  C   UNL     1      45.520   6.200  11.089  0.00  0.00    +0.000 C 
ATOM      7  C   UNL     1      46.825   6.488  11.818  0.00  0.00    +0.000 C 
BRANCH   5   8
ATOM      8  C   UNL     1      43.772   4.469  10.465  0.00  0.00    +0.000 C 
BRANCH   8   9
ATOM      9  N   UNL     1      43.982   3.793   9.187  0.00  0.00    +0.000 NA
ATOM     10  H   UNL     1      44.495   4.401   8.550  0.00  0.00    +0.000 HD
BRANCH   9  11
ATOM     11  C   UNL     1      44.691   2.526   9.326  0.00  0.00    +0.000 C 
BRANCH  11  12
ATOM     12  C   UNL     1      45.717   2.373   8.235  0.00  0.00    +0.000 A 
ATOM     13  C   UNL     1      46.029   3.429   7.373  0.00  0.00    +0.000 A 
ATOM     14  C   UNL     1      46.988   3.256   6.379  0.00  0.00    +0.000 A 
ATOM     15  C   UNL     1      47.604   2.021   6.273  0.00  0.00    +0.000 A 
ATOM     16  N   UNL     1      47.331   0.974   7.082  0.00  0.00    +0.000 NA
ATOM     17  C   UNL     1      46.398   1.175   8.041  0.00  0.00    +0.000 A 
ENDBRANCH  11  12
ENDBRANCH   9  11
ENDBRANCH   8   9
ENDBRANCH   5   8
ENDBRANCH   1   2
BRANCH   1  20
ATOM     18  O   UNL     1      50.176   6.280  15.899  0.00  0.00    +0.000 OA
ATOM     19  C   UNL     1      49.000   6.298  16.259  0.00  0.00    +0.000 C 
ATOM     20  N   UNL     1      47.952   6.354  15.382  0.00  0.00    +0.000 N 
ATOM     21  H   UNL     1      47.002   6.391  15.728  0.00  0.00    +0.000 HD
BRANCH  19  22
ATOM     22  C   UNL     1      48.626   6.318  17.668  0.00  0.00    +0.000 A 
ATOM     23  C   UNL     1      48.674   5.172  18.451  0.00  0.00    +0.000 A 
ATOM     24  S   UNL     1      48.252   5.455  20.080  0.00  0.00    +0.000 S 
ATOM     25  C   UNL     1      47.954   7.107  19.779  0.00  0.00    +0.000 A 
ATOM     26  N   UNL     1      47.572   7.954  20.765  0.00  0.00    +0.000 NA
ATOM     27  C   UNL     1      47.397   9.176  20.383  0.00  0.00    +0.000 A 
ATOM     28  N   UNL     1      47.554   9.625  19.097  0.00  0.00    +0.000 N 
ATOM     29  C   UNL     1      47.878   8.796  18.057  0.00  0.00    +0.000 A 
ATOM     30  O   UNL     1      47.943   9.230  16.912  0.00  0.00    +0.000 OA
ATOM     31  C   UNL     1      48.155   7.429  18.447  0.00  0.00    +0.000 A 
ATOM     32  H   UNL     1      47.386  10.589  18.851  0.00  0.00    +0.000 HD
ENDBRANCH  19  22
ENDBRANCH   1  20
TORSDOF 7
ENDMDL
MODEL 5
REMARK VINA RESULT:    -7.776      2.337      3.526
REMARK INTER + INTRA:         -12.152
REMARK INTER:                 -11.036
REMARK INTRA:                  -1.115
REMARK UNBOUND:                -1.193
REMARK  Name = 
REMARK  7 active torsions:
REMARK  status: ('A' for Active; 'I' for Inactive)
REMARK    1  A    between atoms: C_2  and  C_20
REMARK    2  A    between atoms: N_3  and  C_4
REMARK    3  A    between atoms: C_4  and  C_5
REMARK    4  A    between atoms: C_8  and  C_9
REMARK    5  A    between atoms: C_9  and  N_10
REMARK    6  A    between atoms: N_10  and  C_11
REMARK    7  A    between atoms: C_11  and  C_12
REMARK                            x       y       z     vdW  Elec       q    Type
REMARK                         _______ _______ _______ _____ _____    ______ ____
ROOT
ATOM      1  C   UNL     1      47.591   4.538  14.828  0.00  0.00    +0.000 C 
ENDROOT
BRANCH   1   2
ATOM      2  C   UNL     1      46.320   4.611  13.982  0.00  0.00    +0.000 C 
ATOM      3  C   UNL     1      46.180   3.367  13.090  0.00  0.00    +0.000 C 
ATOM      4  C   UNL     1      44.936   3.444  12.208  0.00  0.00    +0.000 C 
ATOM      5  C   UNL     1      44.925   4.721  11.355  0.00  0.00    +0.000 C 
ATOM      6  C   UNL     1      45.097   5.968  12.241  0.00  0.00    +0.000 C 
ATOM      7  C   UNL     1      46.331   5.880  13.129  0.00  0.00    +0.000 C 
BRANCH   5   8
ATOM      8  C   UNL     1      43.631   4.815  10.520  0.00  0.00    +0.000 C 
BRANCH   8   9
ATOM      9  N   UNL     1      43.885   4.338   9.163  0.00  0.00    +0.000 NA
ATOM     10  H   UNL     1      43.233   4.774   8.512  0.00  0.00    +0.000 HD
BRANCH   9  11
ATOM     11  C   UNL     1      45.252   4.589   8.721  0.00  0.00    +0.000 C 
BRANCH  11  12
ATOM     12  C   UNL     1      45.879   3.323   8.199  0.00  0.00    +0.000 A 
ATOM     13  C   UNL     1      46.811   3.347   7.156  0.00  0.00    +0.000 A 
ATOM     14  C   UNL     1      47.377   2.160   6.702  0.00  0.00    +0.000 A 
ATOM     15  C   UNL     1      46.986   0.976   7.305  0.00  0.00    +0.000 A 
ATOM     16  N   UNL     1      46.088   0.908   8.311  0.00  0.00    +0.000 NA
ATOM     17  C   UNL     1      45.559   2.080   8.734  0.00  0.00    +0.000 A 
ENDBRANCH  11  12
ENDBRANCH   9  11
ENDBRANCH   8   9
ENDBRANCH   5   8
ENDBRANCH   1   2
BRANCH   1  20
ATOM     18  O   UNL     1      49.803   5.509  16.306  0.00  0.00    +0.000 OA
ATOM     19  C   UNL     1      48.670   5.896  16.584  0.00  0.00    +0.000 C 
ATOM     20  N   UNL     1      47.558   5.517  15.882  0.00  0.00    +0.000 N 
ATOM     21  H   UNL     1      46.649   5.882  16.134  0.00  0.00    +0.000 HD
BRANCH  19  22
ATOM     22  C   UNL     1      48.423   6.846  17.662  0.00  0.00    +0.000 A 
ATOM     23  C   UNL     1      48.348   6.440  18.988  0.00  0.00    +0.000 A 
ATOM     24  S   UNL     1      48.115   7.735  20.074  0.00  0.00    +0.000 S 
ATOM     25  C   UNL     1      48.067   8.871  18.803  0.00  0.00    +0.000 A 
ATOM     26  N   UNL     1      47.913  10.197  19.037  0.00  0.00    +0.000 NA
ATOM     27  C   UNL     1      47.908  10.931  17.973  0.00  0.00    +0.000 A 
ATOM     28  N   UNL     1      48.029  10.456  16.693  0.00  0.00    +0.000 N 
ATOM     29  C   UNL     1      48.124   9.121  16.403  0.00  0.00    +0.000 A 
ATOM     30  O   UNL     1      48.164   8.738  15.240  0.00  0.00    +0.000 OA
ATOM     31  C   UNL     1      48.206   8.263  17.567  0.00  0.00    +0.000 A 
ATOM     32  H   UNL     1      48.001  11.075  15.896  0.00  0.00    +0.000 HD
ENDBRANCH  19  22
ENDBRANCH   1  20
TORSDOF 7
ENDMDL
MODEL 6
REMARK VINA RESULT:    -7.715      2.431      3.107
REMARK INTER + INTRA:         -12.065
REMARK INTER:                 -11.150
REMARK INTRA:                  -0.915
REMARK UNBOUND:                -1.193
REMARK  Name = 
REMARK  7 active torsions:
REMARK  status: ('A' for Active; 'I' for Inactive)
REMARK    1  A    between atoms: C_2  and  C_20
REMARK    2  A    between atoms: N_3  and  C_4
REMARK    3  A    between atoms: C_4  and  C_5
REMARK    4  A    between atoms: C_8  and  C_9
REMARK    5  A    between atoms: C_9  and  N_10
REMARK    6  A    between atoms: N_10  and  C_11
REMARK    7  A    between atoms: C_11  and  C_12
REMARK                            x       y       z     vdW  Elec       q    Type
REMARK                         _______ _______ _______ _____ _____    ______ ____
ROOT
ATOM      1  C   UNL     1      47.455   4.479  14.763  0.00  0.00    +0.000 C 
ENDROOT
BRANCH   1   2
ATOM      2  C   UNL     1      46.225   4.560  13.857  0.00  0.00    +0.000 C 
ATOM      3  C   UNL     1      46.072   3.280  13.021  0.00  0.00    +0.000 C 
ATOM      4  C   UNL     1      44.871   3.363  12.082  0.00  0.00    +0.000 C 
ATOM      5  C   UNL     1      44.951   4.595  11.168  0.00  0.00    +0.000 C 
ATOM      6  C   UNL     1      45.137   5.876  12.000  0.00  0.00    +0.000 C 
ATOM      7  C   UNL     1      46.327   5.783  12.946  0.00  0.00    +0.000 C 
BRANCH   5   8
ATOM      8  C   UNL     1      43.699   4.698  10.272  0.00  0.00    +0.000 C 
BRANCH   8   9
ATOM      9  N   UNL     1      44.037   4.306   8.906  0.00  0.00    +0.000 NA
ATOM     10  H   UNL     1      43.475   4.835   8.241  0.00  0.00    +0.000 HD
BRANCH   9  11
ATOM     11  C   UNL     1      45.451   4.489   8.598  0.00  0.00    +0.000 C 
BRANCH  11  12
ATOM     12  C   UNL     1      46.034   3.226   8.022  0.00  0.00    +0.000 A 
ATOM     13  C   UNL     1      46.837   3.250   6.876  0.00  0.00    +0.000 A 
ATOM     14  C   UNL     1      47.366   2.065   6.374  0.00  0.00    +0.000 A 
ATOM     15  C   UNL     1      47.069   0.884   7.032  0.00  0.00    +0.000 A 
ATOM     16  N   UNL     1      46.296   0.817   8.138  0.00  0.00    +0.000 NA
ATOM     17  C   UNL     1      45.800   1.985   8.606  0.00  0.00    +0.000 A 
ENDBRANCH  11  12
ENDBRANCH   9  11
ENDBRANCH   8   9
ENDBRANCH   5   8
ENDBRANCH   1   2
BRANCH   1  20
ATOM     18  O   UNL     1      49.580   5.132  16.518  0.00  0.00    +0.000 OA
ATOM     19  C   UNL     1      48.602   5.874  16.445  0.00  0.00    +0.000 C 
ATOM     20  N   UNL     1      47.563   5.657  15.582  0.00  0.00    +0.000 N 
ATOM     21  H   UNL     1      46.791   6.310  15.542  0.00  0.00    +0.000 HD
BRANCH  19  22
ATOM     22  C   UNL     1      48.497   7.090  17.242  0.00  0.00    +0.000 A 
ATOM     23  C   UNL     1      48.741   8.343  16.695  0.00  0.00    +0.000 A 
ATOM     24  S   UNL     1      48.495   9.618  17.802  0.00  0.00    +0.000 S 
ATOM     25  C   UNL     1      48.095   8.532  19.055  0.00  0.00    +0.000 A 
ATOM     26  N   UNL     1      47.750   8.967  20.291  0.00  0.00    +0.000 NA
ATOM     27  C   UNL     1      47.463   8.025  21.128  0.00  0.00    +0.000 A 
ATOM     28  N   UNL     1      47.505   6.684  20.845  0.00  0.00    +0.000 N 
ATOM     29  C   UNL     1      47.907   6.196  19.630  0.00  0.00    +0.000 A 
ATOM     30  O   UNL     1      47.992   4.988  19.443  0.00  0.00    +0.000 OA
ATOM     31  C   UNL     1      48.170   7.215  18.635  0.00  0.00    +0.000 A 
ATOM     32  H   UNL     1      47.287   5.990  21.544  0.00  0.00    +0.000 HD
ENDBRANCH  19  22
ENDBRANCH   1  20
TORSDOF 7
ENDMDL
MODEL 7
REMARK VINA RESULT:    -7.250      3.735      5.015
REMARK INTER + INTRA:         -11.410
REMARK INTER:                 -10.198
REMARK INTRA:                  -1.212
REMARK UNBOUND:                -1.193
REMARK  Name = 
REMARK  7 active torsions:
REMARK  status: ('A' for Active; 'I' for Inactive)
REMARK    1  A    between atoms: C_2  and  C_20
REMARK    2  A    between atoms: N_3  and  C_4
REMARK    3  A    between atoms: C_4  and  C_5
REMARK    4  A    between atoms: C_8  and  C_9
REMARK    5  A    between atoms: C_9  and  N_10
REMARK    6  A    between atoms: N_10  and  C_11
REMARK    7  A    between atoms: C_11  and  C_12
REMARK                            x       y       z     vdW  Elec       q    Type
REMARK                         _______ _______ _______ _____ _____    ______ ____
ROOT
ATOM      1  C   UNL     1      48.064   6.783  13.549  0.00  0.00    +0.000 C 
ENDROOT
BRANCH   1   2
ATOM      2  C   UNL     1      47.296   5.773  12.696  0.00  0.00    +0.000 C 
ATOM      3  C   UNL     1      46.216   6.472  11.854  0.00  0.00    +0.000 C 
ATOM      4  C   UNL     1      45.413   5.472  11.028  0.00  0.00    +0.000 C 
ATOM      5  C   UNL     1      44.784   4.383  11.910  0.00  0.00    +0.000 C 
ATOM      6  C   UNL     1      45.857   3.702  12.779  0.00  0.00    +0.000 C 
ATOM      7  C   UNL     1      46.666   4.705  13.590  0.00  0.00    +0.000 C 
BRANCH   5   8
ATOM      8  C   UNL     1      44.032   3.344  11.053  0.00  0.00    +0.000 C 
BRANCH   8   9
ATOM      9  N   UNL     1      44.981   2.383  10.498  0.00  0.00    +0.000 NA
ATOM     10  H   UNL     1      45.059   1.573  11.113  0.00  0.00    +0.000 HD
BRANCH   9  11
ATOM     11  C   UNL     1      44.620   1.940   9.157  0.00  0.00    +0.000 C 
BRANCH  11  12
ATOM     12  C   UNL     1      45.782   2.107   8.214  0.00  0.00    +0.000 A 
ATOM     13  C   UNL     1      46.095   3.351   7.655  0.00  0.00    +0.000 A 
ATOM     14  C   UNL     1      47.180   3.473   6.793  0.00  0.00    +0.000 A 
ATOM     15  C   UNL     1      47.921   2.338   6.510  0.00  0.00    +0.000 A 
ATOM     16  N   UNL     1      47.653   1.119   7.025  0.00  0.00    +0.000 NA
ATOM     17  C   UNL     1      46.594   1.033   7.863  0.00  0.00    +0.000 A 
ENDBRANCH  11  12
ENDBRANCH   9  11
ENDBRANCH   8   9
ENDBRANCH   5   8
ENDBRANCH   1   2
BRANCH   1  20
ATOM     18  O   UNL     1      48.792   8.710  11.604  0.00  0.00    +0.000 OA
ATOM     19  C   UNL     1      49.639   7.928  12.031  0.00  0.00    +0.000 C 
ATOM     20  N   UNL     1      49.380   7.008  13.010  0.00  0.00    +0.000 N 
ATOM     21  H   UNL     1      50.117   6.402  13.345  0.00  0.00    +0.000 HD
BRANCH  19  22
ATOM     22  C   UNL     1      51.019   7.958  11.564  0.00  0.00    +0.000 A 
ATOM     23  C   UNL     1      51.383   7.429  10.332  0.00  0.00    +0.000 A 
ATOM     24  S   UNL     1      53.039   7.635   9.976  0.00  0.00    +0.000 S 
ATOM     25  C   UNL     1      53.327   8.401  11.473  0.00  0.00    +0.000 A 
ATOM     26  N   UNL     1      54.555   8.862  11.812  0.00  0.00    +0.000 NA
ATOM     27  C   UNL     1      54.611   9.429  12.973  0.00  0.00    +0.000 A 
ATOM     28  N   UNL     1      53.552   9.562  13.832  0.00  0.00    +0.000 N 
ATOM     29  C   UNL     1      52.308   9.058  13.559  0.00  0.00    +0.000 A 
ATOM     30  O   UNL     1      51.407   9.143  14.386  0.00  0.00    +0.000 OA
ATOM     31  C   UNL     1      52.176   8.477  12.239  0.00  0.00    +0.000 A 
ATOM     32  H   UNL     1      53.657   9.998  14.735  0.00  0.00    +0.000 HD
ENDBRANCH  19  22
ENDBRANCH   1  20
TORSDOF 7
ENDMDL
MODEL 8
REMARK VINA RESULT:    -7.217      2.292      3.538
REMARK INTER + INTRA:         -11.363
REMARK INTER:                 -10.315
REMARK INTRA:                  -1.047
REMARK UNBOUND:                -1.193
REMARK  Name = 
REMARK  7 active torsions:
REMARK  status: ('A' for Active; 'I' for Inactive)
REMARK    1  A    between atoms: C_2  and  C_20
REMARK    2  A    between atoms: N_3  and  C_4
REMARK    3  A    between atoms: C_4  and  C_5
REMARK    4  A    between atoms: C_8  and  C_9
REMARK    5  A    between atoms: C_9  and  N_10
REMARK    6  A    between atoms: N_10  and  C_11
REMARK    7  A    between atoms: C_11  and  C_12
REMARK                            x       y       z     vdW  Elec       q    Type
REMARK                         _______ _______ _______ _____ _____    ______ ____
ROOT
ATOM      1  C   UNL     1      47.331   3.770  15.285  0.00  0.00    +0.000 C 
ENDROOT
BRANCH   1   2
ATOM      2  C   UNL     1      46.439   4.366  14.195  0.00  0.00    +0.000 C 
ATOM      3  C   UNL     1      46.096   3.314  13.129  0.00  0.00    +0.000 C 
ATOM      4  C   UNL     1      45.240   3.904  12.012  0.00  0.00    +0.000 C 
ATOM      5  C   UNL     1      45.913   5.123  11.365  0.00  0.00    +0.000 C 
ATOM      6  C   UNL     1      46.288   6.166  12.434  0.00  0.00    +0.000 C 
ATOM      7  C   UNL     1      47.130   5.569  13.554  0.00  0.00    +0.000 C 
BRANCH   5   8
ATOM      8  C   UNL     1      45.006   5.746  10.284  0.00  0.00    +0.000 C 
BRANCH   8   9
ATOM      9  N   UNL     1      45.448   5.313   8.961  0.00  0.00    +0.000 NA
ATOM     10  H   UNL     1      46.451   5.130   8.970  0.00  0.00    +0.000 HD
BRANCH   9  11
ATOM     11  C   UNL     1      44.743   4.128   8.488  0.00  0.00    +0.000 C 
BRANCH  11  12
ATOM     12  C   UNL     1      45.711   3.140   7.892  0.00  0.00    +0.000 A 
ATOM     13  C   UNL     1      45.826   1.839   8.393  0.00  0.00    +0.000 A 
ATOM     14  C   UNL     1      46.725   0.948   7.814  0.00  0.00    +0.000 A 
ATOM     15  C   UNL     1      47.491   1.391   6.750  0.00  0.00    +0.000 A 
ATOM     16  N   UNL     1      47.414   2.639   6.238  0.00  0.00    +0.000 NA
ATOM     17  C   UNL     1      46.527   3.480   6.818  0.00  0.00    +0.000 A 
ENDBRANCH  11  12
ENDBRANCH   9  11
ENDBRANCH   8   9
ENDBRANCH   5   8
ENDBRANCH   1   2
BRANCH   1  20
ATOM     18  O   UNL     1      47.796   3.377  18.052  0.00  0.00    +0.000 OA
ATOM     19  C   UNL     1      47.855   4.512  17.580  0.00  0.00    +0.000 C 
ATOM     20  N   UNL     1      47.699   4.776  16.247  0.00  0.00    +0.000 N 
ATOM     21  H   UNL     1      47.781   5.724  15.905  0.00  0.00    +0.000 HD
BRANCH  19  22
ATOM     22  C   UNL     1      48.158   5.673  18.407  0.00  0.00    +0.000 A 
ATOM     23  C   UNL     1      47.251   6.160  19.340  0.00  0.00    +0.000 A 
ATOM     24  S   UNL     1      47.852   7.486  20.231  0.00  0.00    +0.000 S 
ATOM     25  C   UNL     1      49.324   7.475  19.369  0.00  0.00    +0.000 A 
ATOM     26  N   UNL     1      50.318   8.353  19.646  0.00  0.00    +0.000 NA
ATOM     27  C   UNL     1      51.375   8.211  18.916  0.00  0.00    +0.000 A 
ATOM     28  N   UNL     1      51.522   7.279  17.922  0.00  0.00    +0.000 N 
ATOM     29  C   UNL     1      50.523   6.413  17.565  0.00  0.00    +0.000 A 
ATOM     30  O   UNL     1      50.676   5.641  16.625  0.00  0.00    +0.000 OA
ATOM     31  C   UNL     1      49.344   6.485  18.402  0.00  0.00    +0.000 A 
ATOM     32  H   UNL     1      52.365   7.225  17.370  0.00  0.00    +0.000 HD
ENDBRANCH  19  22
ENDBRANCH   1  20
TORSDOF 7
ENDMDL
MODEL 9
REMARK VINA RESULT:    -6.974      3.576      7.699
REMARK INTER + INTRA:         -11.021
REMARK INTER:                  -9.214
REMARK INTRA:                  -1.808
REMARK UNBOUND:                -1.193
REMARK  Name = 
REMARK  7 active torsions:
REMARK  status: ('A' for Active; 'I' for Inactive)
REMARK    1  A    between atoms: C_2  and  C_20
REMARK    2  A    between atoms: N_3  and  C_4
REMARK    3  A    between atoms: C_4  and  C_5
REMARK    4  A    between atoms: C_8  and  C_9
REMARK    5  A    between atoms: C_9  and  N_10
REMARK    6  A    between atoms: N_10  and  C_11
REMARK    7  A    between atoms: C_11  and  C_12
REMARK                            x       y       z     vdW  Elec       q    Type
REMARK                         _______ _______ _______ _____ _____    ______ ____
ROOT
ATOM      1  C   UNL     1      47.982   8.620  14.175  0.00  0.00    +0.000 C 
ENDROOT
BRANCH   1   2
ATOM      2  C   UNL     1      48.699   7.812  15.258  0.00  0.00    +0.000 C 
ATOM      3  C   UNL     1      48.593   8.507  16.624  0.00  0.00    +0.000 C 
ATOM      4  C   UNL     1      49.340   7.734  17.708  0.00  0.00    +0.000 C 
ATOM      5  C   UNL     1      50.812   7.509  17.332  0.00  0.00    +0.000 C 
ATOM      6  C   UNL     1      50.923   6.842  15.949  0.00  0.00    +0.000 C 
ATOM      7  C   UNL     1      50.165   7.609  14.874  0.00  0.00    +0.000 C 
BRANCH   5   8
ATOM      8  C   UNL     1      51.533   6.670  18.406  0.00  0.00    +0.000 C 
BRANCH   8   9
ATOM      9  N   UNL     1      51.859   5.352  17.866  0.00  0.00    +0.000 NA
ATOM     10  H   UNL     1      52.869   5.215  17.863  0.00  0.00    +0.000 HD
BRANCH   9  11
ATOM     11  C   UNL     1      51.224   4.266  18.602  0.00  0.00    +0.000 C 
BRANCH  11  12
ATOM     12  C   UNL     1      50.173   3.596  17.755  0.00  0.00    +0.000 A 
ATOM     13  C   UNL     1      48.891   4.138  17.620  0.00  0.00    +0.000 A 
ATOM     14  C   UNL     1      47.947   3.498  16.823  0.00  0.00    +0.000 A 
ATOM     15  C   UNL     1      48.314   2.324  16.188  0.00  0.00    +0.000 A 
ATOM     16  N   UNL     1      49.539   1.765  16.295  0.00  0.00    +0.000 NA
ATOM     17  C   UNL     1      50.437   2.413  17.072  0.00  0.00    +0.000 A 
ENDBRANCH  11  12
ENDBRANCH   9  11
ENDBRANCH   8   9
ENDBRANCH   5   8
ENDBRANCH   1   2
BRANCH   1  20
ATOM     18  O   UNL     1      47.855   6.901  11.927  0.00  0.00    +0.000 OA
ATOM     19  C   UNL     1      46.833   7.140  12.568  0.00  0.00    +0.000 C 
ATOM     20  N   UNL     1      46.823   7.913  13.697  0.00  0.00    +0.000 N 
ATOM     21  H   UNL     1      45.960   8.060  14.203  0.00  0.00    +0.000 HD
BRANCH  19  22
ATOM     22  C   UNL     1      45.545   6.564  12.204  0.00  0.00    +0.000 A 
ATOM     23  C   UNL     1      44.524   7.341  11.672  0.00  0.00    +0.000 A 
ATOM     24  S   UNL     1      43.134   6.436  11.267  0.00  0.00    +0.000 S 
ATOM     25  C   UNL     1      43.840   4.988  11.827  0.00  0.00    +0.000 A 
ATOM     26  N   UNL     1      43.188   3.803  11.754  0.00  0.00    +0.000 NA
ATOM     27  C   UNL     1      43.859   2.795  12.207  0.00  0.00    +0.000 A 
ATOM     28  N   UNL     1      45.118   2.868  12.743  0.00  0.00    +0.000 N 
ATOM     29  C   UNL     1      45.791   4.051  12.894  0.00  0.00    +0.000 A 
ATOM     30  O   UNL     1      46.889   4.077  13.438  0.00  0.00    +0.000 OA
ATOM     31  C   UNL     1      45.110   5.201  12.335  0.00  0.00    +0.000 A 
ATOM     32  H   UNL     1      45.588   2.050  13.099  0.00  0.00    +0.000 HD
ENDBRANCH  19  22
ENDBRANCH   1  20
TORSDOF 7
ENDMDL
