MODEL 1
REMARK VINA RESULT:    -7.791      0.000      0.000
REMARK INTER + INTRA:         -11.602
REMARK INTER:                 -10.752
REMARK INTRA:                  -0.851
REMARK UNBOUND:                -0.851
REMARK  Name = 
REMARK  7 active torsions:
REMARK  status: ('A' for Active; 'I' for Inactive)
REMARK    1  A    between atoms: N_1  and  C_2
REMARK    2  A    between atoms: C_2  and  C_3
REMARK    3  A    between atoms: C_7  and  C_8
REMARK    4  A    between atoms: C_8  and  C_9
REMARK    5  A    between atoms: C_9  and  N_10
REMARK    6  A    between atoms: N_10  and  C_11
REMARK    7  A    between atoms: C_15  and  C_16
REMARK                            x       y       z     vdW  Elec       q    Type
REMARK                         _______ _______ _______ _____ _____    ______ ____
ROOT
ATOM      1  N   UNL     1      43.918   2.591  10.787  0.00  0.00    +0.000 N 
ATOM      2  H   UNL     1      44.358   1.940  11.434  0.00  0.00    +0.000 HD
ENDROOT
BRANCH   1   3
ATOM      3  C   UNL     1      44.769   2.908   9.721  0.00  0.00    +0.000 A 
ATOM      4  C   UNL     1      44.888   4.188   9.166  0.00  0.00    +0.000 A 
ATOM      5  C   UNL     1      45.705   4.424   8.058  0.00  0.00    +0.000 A 
ATOM      6  C   UNL     1      46.398   3.370   7.467  0.00  0.00    +0.000 A 
ATOM      7  C   UNL     1      46.279   2.074   7.982  0.00  0.00    +0.000 A 
ATOM      8  C   UNL     1      45.456   1.855   9.096  0.00  0.00    +0.000 A 
BRANCH   7   9
ATOM      9  C   UNL     1      47.040   0.986   7.303  0.00  0.00    +0.000 C 
ATOM     10  N   UNL     1      46.756  -0.313   7.621  0.00  0.00    +0.000 N 
ATOM     11  O   UNL     1      47.913   1.232   6.479  0.00  0.00    +0.000 OA
ATOM     12  H   UNL     1      46.055  -0.617   8.276  0.00  0.00    +0.000 HD
ATOM     13  H   UNL     1      47.298  -1.024   7.147  0.00  0.00    +0.000 HD
ENDBRANCH   7   9
ENDBRANCH   1   3
BRANCH   1  14
ATOM     14  C   UNL     1      43.166   3.654  11.452  0.00  0.00    +0.000 C 
BRANCH  14  15
ATOM     15  C   UNL     1      43.744   3.937  12.843  0.00  0.00    +0.000 C 
BRANCH  15  20
ATOM     16  C   UNL     1      45.413   7.328  12.280  0.00  0.00    +0.000 A 
ATOM     17  C   UNL     1      46.690   7.081  12.797  0.00  0.00    +0.000 A 
ATOM     18  C   UNL     1      47.024   5.817  13.289  0.00  0.00    +0.000 A 
ATOM     19  C   UNL     1      46.081   4.790  13.280  0.00  0.00    +0.000 A 
ATOM     20  C   UNL     1      44.799   5.015  12.767  0.00  0.00    +0.000 A 
ATOM     21  C   UNL     1      44.478   6.282  12.259  0.00  0.00    +0.000 A 
BRANCH  16  22
ATOM     22  C   UNL     1      45.050   8.692  11.748  0.00  0.00    +0.000 C 
BRANCH  22  23
ATOM     23  N   UNL     1      44.778   9.636  12.827  0.00  0.00    +0.000 NA
ATOM     24  H   UNL     1      44.832   9.147  13.718  0.00  0.00    +0.000 HD
ATOM     25  H   UNL     1      43.818   9.965  12.738  0.00  0.00    +0.000 HD
ENDBRANCH  22  23
ENDBRANCH  16  22
ENDBRANCH  15  20
ENDBRANCH  14  15
ENDBRANCH   1  14
TORSDOF 7
ENDMDL
MODEL 2
REMARK VINA RESULT:    -7.608      1.315      1.918
REMARK INTER + INTRA:         -11.350
REMARK INTER:                 -10.511
REMARK INTRA:                  -0.839
REMARK UNBOUND:                -0.851
REMARK  Name = 
REMARK  7 active torsions:
REMARK  status: ('A' for Active; 'I' for Inactive)
REMARK    1  A    between atoms: N_1  and  C_2
REMARK    2  A    between atoms: C_2  and  C_3
REMARK    3  A    between atoms: C_7  and  C_8
REMARK    4  A    between atoms: C_8  and  C_9
REMARK    5  A    between atoms: C_9  and  N_10
REMARK    6  A    between atoms: N_10  and  C_11
REMARK    7  A    between atoms: C_15  and  C_16
REMARK                            x       y       z     vdW  Elec       q    Type
REMARK                         _______ _______ _______ _____ _____    ______ ____
ROOT
ATOM      1  N   UNL     1      43.829   2.551  10.703  0.00  0.00    +0.000 N 
ATOM      2  H   UNL     1      44.109   1.694  11.175  0.00  0.00    +0.000 HD
ENDROOT
BRANCH   1   3
ATOM      3  C   UNL     1      44.718   2.883   9.672  0.00  0.00    +0.000 A 
ATOM      4  C   UNL     1      44.860   4.171   9.143  0.00  0.00    +0.000 A 
ATOM      5  C   UNL     1      45.716   4.421   8.067  0.00  0.00    +0.000 A 
ATOM      6  C   UNL     1      46.425   3.374   7.484  0.00  0.00    +0.000 A 
ATOM      7  C   UNL     1      46.283   2.070   7.972  0.00  0.00    +0.000 A 
ATOM      8  C   UNL     1      45.422   1.836   9.054  0.00  0.00    +0.000 A 
BRANCH   7   9
ATOM      9  C   UNL     1      47.064   0.990   7.302  0.00  0.00    +0.000 C 
ATOM     10  N   UNL     1      46.774  -0.312   7.599  0.00  0.00    +0.000 N 
ATOM     11  O   UNL     1      47.958   1.246   6.504  0.00  0.00    +0.000 OA
ATOM     12  H   UNL     1      46.056  -0.624   8.232  0.00  0.00    +0.000 HD
ATOM     13  H   UNL     1      47.328  -1.017   7.132  0.00  0.00    +0.000 HD
ENDBRANCH   7   9
ENDBRANCH   1   3
BRANCH   1  14
ATOM     14  C   UNL     1      43.361   3.593  11.615  0.00  0.00    +0.000 C 
BRANCH  14  15
ATOM     15  C   UNL     1      44.317   3.739  12.804  0.00  0.00    +0.000 C 
BRANCH  15  20
ATOM     16  C   UNL     1      46.927   6.493  13.265  0.00  0.00    +0.000 A 
ATOM     17  C   UNL     1      46.311   7.553  12.588  0.00  0.00    +0.000 A 
ATOM     18  C   UNL     1      45.046   7.392  12.019  0.00  0.00    +0.000 A 
ATOM     19  C   UNL     1      44.386   6.167  12.111  0.00  0.00    +0.000 A 
ATOM     20  C   UNL     1      44.982   5.095  12.784  0.00  0.00    +0.000 A 
ATOM     21  C   UNL     1      46.246   5.270  13.367  0.00  0.00    +0.000 A 
BRANCH  16  22
ATOM     22  C   UNL     1      48.293   6.664  13.879  0.00  0.00    +0.000 C 
BRANCH  22  23
ATOM     23  N   UNL     1      49.347   6.614  12.871  0.00  0.00    +0.000 NA
ATOM     24  H   UNL     1      48.928   6.701  11.947  0.00  0.00    +0.000 HD
ATOM     25  H   UNL     1      49.785   5.695  12.902  0.00  0.00    +0.000 HD
ENDBRANCH  22  23
ENDBRANCH  16  22
ENDBRANCH  15  20
ENDBRANCH  14  15
ENDBRANCH   1  14
TORSDOF 7
ENDMDL
MODEL 3
REMARK VINA RESULT:    -7.528      2.699      6.624
REMARK INTER + INTRA:         -11.239
REMARK INTER:                 -10.411
REMARK INTRA:                  -0.828
REMARK UNBOUND:                -0.851
REMARK  Name = 
REMARK  7 active torsions:
REMARK  status: ('A' for Active; 'I' for Inactive)
REMARK    1  A    between atoms: N_1  and  C_2
REMARK    2  A    between atoms: C_2  and  C_3
REMARK    3  A    between atoms: C_7  and  C_8
REMARK    4  A    between atoms: C_8  and  C_9
REMARK    5  A    between atoms: C_9  and  N_10
REMARK    6  A    between atoms: N_10  and  C_11
REMARK    7  A    between atoms: C_15  and  C_16
REMARK                            x       y       z     vdW  Elec       q    Type
REMARK                         _______ _______ _______ _____ _____    ______ ____
ROOT
ATOM      1  N   UNL     1      43.709   4.610  12.037  0.00  0.00    +0.000 N 
ATOM      2  H   UNL     1      42.925   5.092  12.472  0.00  0.00    +0.000 HD
ENDROOT
BRANCH   1   3
ATOM      3  C   UNL     1      44.934   5.150  12.447  0.00  0.00    +0.000 A 
ATOM      4  C   UNL     1      45.656   6.101  11.716  0.00  0.00    +0.000 A 
ATOM      5  C   UNL     1      46.907   6.548  12.147  0.00  0.00    +0.000 A 
ATOM      6  C   UNL     1      47.471   6.027  13.309  0.00  0.00    +0.000 A 
ATOM      7  C   UNL     1      46.787   5.055  14.048  0.00  0.00    +0.000 A 
ATOM      8  C   UNL     1      45.531   4.618  13.602  0.00  0.00    +0.000 A 
BRANCH   7   9
ATOM      9  C   UNL     1      47.443   4.530  15.279  0.00  0.00    +0.000 C 
ATOM     10  N   UNL     1      47.974   5.420  16.172  0.00  0.00    +0.000 N 
ATOM     11  O   UNL     1      47.523   3.328  15.501  0.00  0.00    +0.000 OA
ATOM     12  H   UNL     1      47.952   6.422  16.085  0.00  0.00    +0.000 HD
ATOM     13  H   UNL     1      48.418   5.028  16.992  0.00  0.00    +0.000 HD
ENDBRANCH   7   9
ENDBRANCH   1   3
BRANCH   1  14
ATOM     14  C   UNL     1      43.492   4.302  10.624  0.00  0.00    +0.000 C 
BRANCH  14  15
ATOM     15  C   UNL     1      44.058   2.919  10.280  0.00  0.00    +0.000 C 
BRANCH  15  20
ATOM     16  C   UNL     1      46.586   1.954   7.582  0.00  0.00    +0.000 A 
ATOM     17  C   UNL     1      46.907   3.214   7.061  0.00  0.00    +0.000 A 
ATOM     18  C   UNL     1      46.341   4.370   7.602  0.00  0.00    +0.000 A 
ATOM     19  C   UNL     1      45.440   4.280   8.662  0.00  0.00    +0.000 A 
ATOM     20  C   UNL     1      45.105   3.032   9.198  0.00  0.00    +0.000 A 
ATOM     21  C   UNL     1      45.692   1.876   8.660  0.00  0.00    +0.000 A 
BRANCH  16  22
ATOM     22  C   UNL     1      47.195   0.704   6.999  0.00  0.00    +0.000 C 
BRANCH  22  23
ATOM     23  N   UNL     1      46.799  -0.487   7.744  0.00  0.00    +0.000 NA
ATOM     24  H   UNL     1      46.386  -0.202   8.629  0.00  0.00    +0.000 HD
ATOM     25  H   UNL     1      47.636  -1.019   7.976  0.00  0.00    +0.000 HD
ENDBRANCH  22  23
ENDBRANCH  16  22
ENDBRANCH  15  20
ENDBRANCH  14  15
ENDBRANCH   1  14
TORSDOF 7
ENDMDL
MODEL 4
REMARK VINA RESULT:    -7.503      2.053      2.966
REMARK INTER + INTRA:         -11.205
REMARK INTER:                 -10.570
REMARK INTRA:                  -0.635
REMARK UNBOUND:                -0.851
REMARK  Name = 
REMARK  7 active torsions:
REMARK  status: ('A' for Active; 'I' for Inactive)
REMARK    1  A    between atoms: N_1  and  C_2
REMARK    2  A    between atoms: C_2  and  C_3
REMARK    3  A    between atoms: C_7  and  C_8
REMARK    4  A    between atoms: C_8  and  C_9
REMARK    5  A    between atoms: C_9  and  N_10
REMARK    6  A    between atoms: N_10  and  C_11
REMARK    7  A    between atoms: C_15  and  C_16
REMARK                            x       y       z     vdW  Elec       q    Type
REMARK                         _______ _______ _______ _____ _____    ______ ____
ROOT
ATOM      1  N   UNL     1      44.164   4.790   9.278  0.00  0.00    +0.000 N 
ATOM      2  H   UNL     1      43.607   5.240   8.555  0.00  0.00    +0.000 HD
ENDROOT
BRANCH   1   3
ATOM      3  C   UNL     1      44.786   3.630   8.797  0.00  0.00    +0.000 A 
ATOM      4  C   UNL     1      44.627   2.361   9.366  0.00  0.00    +0.000 A 
ATOM      5  C   UNL     1      45.330   1.257   8.880  0.00  0.00    +0.000 A 
ATOM      6  C   UNL     1      46.229   1.412   7.829  0.00  0.00    +0.000 A 
ATOM      7  C   UNL     1      46.432   2.672   7.256  0.00  0.00    +0.000 A 
ATOM      8  C   UNL     1      45.716   3.771   7.754  0.00  0.00    +0.000 A 
BRANCH   7   9
ATOM      9  C   UNL     1      47.412   2.777   6.137  0.00  0.00    +0.000 C 
ATOM     10  N   UNL     1      48.740   2.598   6.407  0.00  0.00    +0.000 N 
ATOM     11  O   UNL     1      47.054   3.026   4.992  0.00  0.00    +0.000 OA
ATOM     12  H   UNL     1      49.131   2.382   7.309  0.00  0.00    +0.000 HD
ATOM     13  H   UNL     1      49.377   2.683   5.626  0.00  0.00    +0.000 HD
ENDBRANCH   7   9
ENDBRANCH   1   3
BRANCH   1  14
ATOM     14  C   UNL     1      43.515   4.771  10.587  0.00  0.00    +0.000 C 
BRANCH  14  15
ATOM     15  C   UNL     1      43.736   6.100  11.319  0.00  0.00    +0.000 C 
BRANCH  15  20
ATOM     16  C   UNL     1      46.646   5.279  13.655  0.00  0.00    +0.000 A 
ATOM     17  C   UNL     1      47.676   6.018  13.060  0.00  0.00    +0.000 A 
ATOM     18  C   UNL     1      47.425   6.805  11.935  0.00  0.00    +0.000 A 
ATOM     19  C   UNL     1      46.145   6.856  11.385  0.00  0.00    +0.000 A 
ATOM     20  C   UNL     1      45.100   6.126  11.964  0.00  0.00    +0.000 A 
ATOM     21  C   UNL     1      45.358   5.351  13.105  0.00  0.00    +0.000 A 
BRANCH  16  22
ATOM     22  C   UNL     1      46.915   4.426  14.869  0.00  0.00    +0.000 C 
BRANCH  22  23
ATOM     23  N   UNL     1      47.529   3.153  14.509  0.00  0.00    +0.000 NA
ATOM     24  H   UNL     1      48.130   3.291  13.699  0.00  0.00    +0.000 HD
ATOM     25  H   UNL     1      46.796   2.509  14.216  0.00  0.00    +0.000 HD
ENDBRANCH  22  23
ENDBRANCH  16  22
ENDBRANCH  15  20
ENDBRANCH  14  15
ENDBRANCH   1  14
TORSDOF 7
ENDMDL
MODEL 5
REMARK VINA RESULT:    -7.275      2.869      6.831
REMARK INTER + INTRA:         -10.890
REMARK INTER:                 -10.385
REMARK INTRA:                  -0.505
REMARK UNBOUND:                -0.851
REMARK  Name = 
REMARK  7 active torsions:
REMARK  status: ('A' for Active; 'I' for Inactive)
REMARK    1  A    between atoms: N_1  and  C_2
REMARK    2  A    between atoms: C_2  and  C_3
REMARK    3  A    between atoms: C_7  and  C_8
REMARK    4  A    between atoms: C_8  and  C_9
REMARK    5  A    between atoms: C_9  and  N_10
REMARK    6  A    between atoms: N_10  and  C_11
REMARK    7  A    between atoms: C_15  and  C_16
REMARK                            x       y       z     vdW  Elec       q    Type
REMARK                         _______ _______ _______ _____ _____    ______ ____
ROOT
ATOM      1  N   UNL     1      45.668   5.815  10.541  0.00  0.00    +0.000 N 
ATOM      2  H   UNL     1      46.255   5.879   9.713  0.00  0.00    +0.000 HD
ENDROOT
BRANCH   1   3
ATOM      3  C   UNL     1      46.392   6.102  11.706  0.00  0.00    +0.000 A 
ATOM      4  C   UNL     1      47.161   7.257  11.887  0.00  0.00    +0.000 A 
ATOM      5  C   UNL     1      47.915   7.451  13.047  0.00  0.00    +0.000 A 
ATOM      6  C   UNL     1      47.933   6.471  14.036  0.00  0.00    +0.000 A 
ATOM      7  C   UNL     1      47.198   5.292  13.873  0.00  0.00    +0.000 A 
ATOM      8  C   UNL     1      46.444   5.115  12.704  0.00  0.00    +0.000 A 
BRANCH   7   9
ATOM      9  C   UNL     1      47.262   4.278  14.964  0.00  0.00    +0.000 C 
ATOM     10  N   UNL     1      47.125   4.695  16.259  0.00  0.00    +0.000 N 
ATOM     11  O   UNL     1      47.441   3.089  14.725  0.00  0.00    +0.000 OA
ATOM     12  H   UNL     1      46.966   5.643  16.556  0.00  0.00    +0.000 HD
ATOM     13  H   UNL     1      47.181   3.980  16.973  0.00  0.00    +0.000 HD
ENDBRANCH   7   9
ENDBRANCH   1   3
BRANCH   1  14
ATOM     14  C   UNL     1      44.755   4.674  10.522  0.00  0.00    +0.000 C 
BRANCH  14  15
ATOM     15  C   UNL     1      44.250   4.410   9.098  0.00  0.00    +0.000 C 
BRANCH  15  20
ATOM     16  C   UNL     1      46.633   2.556   6.756  0.00  0.00    +0.000 A 
ATOM     17  C   UNL     1      46.666   1.294   7.362  0.00  0.00    +0.000 A 
ATOM     18  C   UNL     1      45.897   1.032   8.496  0.00  0.00    +0.000 A 
ATOM     19  C   UNL     1      45.092   2.030   9.045  0.00  0.00    +0.000 A 
ATOM     20  C   UNL     1      45.042   3.298   8.455  0.00  0.00    +0.000 A 
ATOM     21  C   UNL     1      45.806   3.548   7.305  0.00  0.00    +0.000 A 
BRANCH  16  22
ATOM     22  C   UNL     1      47.464   2.843   5.531  0.00  0.00    +0.000 C 
BRANCH  22  23
ATOM     23  N   UNL     1      48.510   1.843   5.343  0.00  0.00    +0.000 NA
ATOM     24  H   UNL     1      48.320   1.046   5.948  0.00  0.00    +0.000 HD
ATOM     25  H   UNL     1      49.396   2.236   5.657  0.00  0.00    +0.000 HD
ENDBRANCH  22  23
ENDBRANCH  16  22
ENDBRANCH  15  20
ENDBRANCH  14  15
ENDBRANCH   1  14
TORSDOF 7
ENDMDL
MODEL 6
REMARK VINA RESULT:    -7.202      2.553      6.713
REMARK INTER + INTRA:         -10.789
REMARK INTER:                  -9.945
REMARK INTRA:                  -0.845
REMARK UNBOUND:                -0.851
REMARK  Name = 
REMARK  7 active torsions:
REMARK  status: ('A' for Active; 'I' for Inactive)
REMARK    1  A    between atoms: N_1  and  C_2
REMARK    2  A    between atoms: C_2  and  C_3
REMARK    3  A    between atoms: C_7  and  C_8
REMARK    4  A    between atoms: C_8  and  C_9
REMARK    5  A    between atoms: C_9  and  N_10
REMARK    6  A    between atoms: N_10  and  C_11
REMARK    7  A    between atoms: C_15  and  C_16
REMARK                            x       y       z     vdW  Elec       q    Type
REMARK                         _______ _______ _______ _____ _____    ______ ____
ROOT
ATOM      1  N   UNL     1      43.925   3.920  12.581  0.00  0.00    +0.000 N 
ATOM      2  H   UNL     1      43.203   4.061  13.285  0.00  0.00    +0.000 HD
ENDROOT
BRANCH   1   3
ATOM      3  C   UNL     1      45.022   4.763  12.797  0.00  0.00    +0.000 A 
ATOM      4  C   UNL     1      46.259   4.332  13.290  0.00  0.00    +0.000 A 
ATOM      5  C   UNL     1      47.291   5.237  13.548  0.00  0.00    +0.000 A 
ATOM      6  C   UNL     1      47.091   6.599  13.340  0.00  0.00    +0.000 A 
ATOM      7  C   UNL     1      45.856   7.066  12.874  0.00  0.00    +0.000 A 
ATOM      8  C   UNL     1      44.831   6.144  12.618  0.00  0.00    +0.000 A 
BRANCH   7   9
ATOM      9  C   UNL     1      45.700   8.535  12.677  0.00  0.00    +0.000 C 
ATOM     10  N   UNL     1      44.504   9.014  12.216  0.00  0.00    +0.000 N 
ATOM     11  O   UNL     1      46.616   9.315  12.910  0.00  0.00    +0.000 OA
ATOM     12  H   UNL     1      43.693   8.459  12.005  0.00  0.00    +0.000 HD
ATOM     13  H   UNL     1      44.437  10.015  12.088  0.00  0.00    +0.000 HD
ENDBRANCH   7   9
ENDBRANCH   1   3
BRANCH   1  14
ATOM     14  C   UNL     1      43.397   3.753  11.228  0.00  0.00    +0.000 C 
BRANCH  14  15
ATOM     15  C   UNL     1      43.998   2.509  10.564  0.00  0.00    +0.000 C 
BRANCH  15  20
ATOM     16  C   UNL     1      46.480   2.274   7.667  0.00  0.00    +0.000 A 
ATOM     17  C   UNL     1      46.657   3.629   7.363  0.00  0.00    +0.000 A 
ATOM     18  C   UNL     1      46.010   4.614   8.112  0.00  0.00    +0.000 A 
ATOM     19  C   UNL     1      45.171   4.256   9.166  0.00  0.00    +0.000 A 
ATOM     20  C   UNL     1      44.980   2.908   9.488  0.00  0.00    +0.000 A 
ATOM     21  C   UNL     1      45.647   1.925   8.741  0.00  0.00    +0.000 A 
BRANCH  16  22
ATOM     22  C   UNL     1      47.177   1.208   6.860  0.00  0.00    +0.000 C 
BRANCH  22  23
ATOM     23  N   UNL     1      48.320   1.746   6.129  0.00  0.00    +0.000 NA
ATOM     24  H   UNL     1      48.780   2.450   6.703  0.00  0.00    +0.000 HD
ATOM     25  H   UNL     1      47.978   2.231   5.301  0.00  0.00    +0.000 HD
ENDBRANCH  22  23
ENDBRANCH  16  22
ENDBRANCH  15  20
ENDBRANCH  14  15
ENDBRANCH   1  14
TORSDOF 7
ENDMDL
MODEL 7
REMARK VINA RESULT:    -7.140      2.583      6.449
REMARK INTER + INTRA:         -10.703
REMARK INTER:                  -9.909
REMARK INTRA:                  -0.794
REMARK UNBOUND:                -0.851
REMARK  Name = 
REMARK  7 active torsions:
REMARK  status: ('A' for Active; 'I' for Inactive)
REMARK    1  A    between atoms: N_1  and  C_2
REMARK    2  A    between atoms: C_2  and  C_3
REMARK    3  A    between atoms: C_7  and  C_8
REMARK    4  A    between atoms: C_8  and  C_9
REMARK    5  A    between atoms: C_9  and  N_10
REMARK    6  A    between atoms: N_10  and  C_11
REMARK    7  A    between atoms: C_15  and  C_16
REMARK                            x       y       z     vdW  Elec       q    Type
REMARK                         _______ _______ _______ _____ _____    ______ ____
ROOT
ATOM      1  N   UNL     1      44.280   4.122  12.480  0.00  0.00    +0.000 N 
ATOM      2  H   UNL     1      43.873   3.927  13.393  0.00  0.00    +0.000 HD
ENDROOT
BRANCH   1   3
ATOM      3  C   UNL     1      44.986   5.331  12.482  0.00  0.00    +0.000 A 
ATOM      4  C   UNL     1      44.509   6.519  11.915  0.00  0.00    +0.000 A 
ATOM      5  C   UNL     1      45.294   7.675  11.889  0.00  0.00    +0.000 A 
ATOM      6  C   UNL     1      46.586   7.652  12.408  0.00  0.00    +0.000 A 
ATOM      7  C   UNL     1      47.102   6.472  12.956  0.00  0.00    +0.000 A 
ATOM      8  C   UNL     1      46.301   5.321  12.977  0.00  0.00    +0.000 A 
BRANCH   7   9
ATOM      9  C   UNL     1      48.494   6.507  13.491  0.00  0.00    +0.000 C 
ATOM     10  N   UNL     1      49.503   6.934  12.672  0.00  0.00    +0.000 N 
ATOM     11  O   UNL     1      48.750   6.155  14.636  0.00  0.00    +0.000 OA
ATOM     12  H   UNL     1      49.394   7.250  11.723  0.00  0.00    +0.000 HD
ATOM     13  H   UNL     1      50.434   6.937  13.066  0.00  0.00    +0.000 HD
ENDBRANCH   7   9
ENDBRANCH   1   3
BRANCH   1  14
ATOM     14  C   UNL     1      43.387   3.809  11.365  0.00  0.00    +0.000 C 
BRANCH  14  15
ATOM     15  C   UNL     1      43.837   2.525  10.658  0.00  0.00    +0.000 C 
BRANCH  15  20
ATOM     16  C   UNL     1      46.373   2.086   7.833  0.00  0.00    +0.000 A 
ATOM     17  C   UNL     1      46.467   3.400   7.359  0.00  0.00    +0.000 A 
ATOM     18  C   UNL     1      45.746   4.428   7.970  0.00  0.00    +0.000 A 
ATOM     19  C   UNL     1      44.916   4.153   9.055  0.00  0.00    +0.000 A 
ATOM     20  C   UNL     1      44.807   2.847   9.547  0.00  0.00    +0.000 A 
ATOM     21  C   UNL     1      45.548   1.823   8.938  0.00  0.00    +0.000 A 
BRANCH  16  22
ATOM     22  C   UNL     1      47.150   0.974   7.175  0.00  0.00    +0.000 C 
BRANCH  22  23
ATOM     23  N   UNL     1      46.805  -0.329   7.734  0.00  0.00    +0.000 NA
ATOM     24  H   UNL     1      47.137  -0.377   8.695  0.00  0.00    +0.000 HD
ATOM     25  H   UNL     1      47.311  -1.048   7.220  0.00  0.00    +0.000 HD
ENDBRANCH  22  23
ENDBRANCH  16  22
ENDBRANCH  15  20
ENDBRANCH  14  15
ENDBRANCH   1  14
TORSDOF 7
ENDMDL
MODEL 8
REMARK VINA RESULT:    -7.076      1.979      2.560
REMARK INTER + INTRA:         -10.615
REMARK INTER:                  -9.875
REMARK INTRA:                  -0.740
REMARK UNBOUND:                -0.851
REMARK  Name = 
REMARK  7 active torsions:
REMARK  status: ('A' for Active; 'I' for Inactive)
REMARK    1  A    between atoms: N_1  and  C_2
REMARK    2  A    between atoms: C_2  and  C_3
REMARK    3  A    between atoms: C_7  and  C_8
REMARK    4  A    between atoms: C_8  and  C_9
REMARK    5  A    between atoms: C_9  and  N_10
REMARK    6  A    between atoms: N_10  and  C_11
REMARK    7  A    between atoms: C_15  and  C_16
REMARK                            x       y       z     vdW  Elec       q    Type
REMARK                         _______ _______ _______ _____ _____    ______ ____
ROOT
ATOM      1  N   UNL     1      44.284   4.945   9.382  0.00  0.00    +0.000 N 
ATOM      2  H   UNL     1      43.878   5.490   8.624  0.00  0.00    +0.000 HD
ENDROOT
BRANCH   1   3
ATOM      3  C   UNL     1      44.838   3.748   8.911  0.00  0.00    +0.000 A 
ATOM      4  C   UNL     1      44.624   2.498   9.503  0.00  0.00    +0.000 A 
ATOM      5  C   UNL     1      45.263   1.351   9.025  0.00  0.00    +0.000 A 
ATOM      6  C   UNL     1      46.153   1.443   7.958  0.00  0.00    +0.000 A 
ATOM      7  C   UNL     1      46.410   2.683   7.362  0.00  0.00    +0.000 A 
ATOM      8  C   UNL     1      45.759   3.825   7.853  0.00  0.00    +0.000 A 
BRANCH   7   9
ATOM      9  C   UNL     1      47.377   2.720   6.227  0.00  0.00    +0.000 C 
ATOM     10  N   UNL     1      48.698   2.480   6.481  0.00  0.00    +0.000 N 
ATOM     11  O   UNL     1      47.014   2.968   5.083  0.00  0.00    +0.000 OA
ATOM     12  H   UNL     1      49.092   2.260   7.380  0.00  0.00    +0.000 HD
ATOM     13  H   UNL     1      49.326   2.520   5.689  0.00  0.00    +0.000 HD
ENDBRANCH   7   9
ENDBRANCH   1   3
BRANCH   1  14
ATOM     14  C   UNL     1      43.470   4.935  10.596  0.00  0.00    +0.000 C 
BRANCH  14  15
ATOM     15  C   UNL     1      43.895   6.065  11.541  0.00  0.00    +0.000 C 
BRANCH  15  20
ATOM     16  C   UNL     1      47.525   6.274  12.716  0.00  0.00    +0.000 A 
ATOM     17  C   UNL     1      47.567   5.210  13.625  0.00  0.00    +0.000 A 
ATOM     18  C   UNL     1      46.444   4.407  13.831  0.00  0.00    +0.000 A 
ATOM     19  C   UNL     1      45.262   4.664  13.137  0.00  0.00    +0.000 A 
ATOM     20  C   UNL     1      45.197   5.721  12.222  0.00  0.00    +0.000 A 
ATOM     21  C   UNL     1      46.336   6.512  12.009  0.00  0.00    +0.000 A 
BRANCH  16  22
ATOM     22  C   UNL     1      48.737   7.143  12.493  0.00  0.00    +0.000 C 
BRANCH  22  23
ATOM     23  N   UNL     1      49.682   7.045  13.601  0.00  0.00    +0.000 NA
ATOM     24  H   UNL     1      49.169   7.091  14.479  0.00  0.00    +0.000 HD
ATOM     25  H   UNL     1      50.292   7.860  13.582  0.00  0.00    +0.000 HD
ENDBRANCH  22  23
ENDBRANCH  16  22
ENDBRANCH  15  20
ENDBRANCH  14  15
ENDBRANCH   1  14
TORSDOF 7
ENDMDL
MODEL 9
REMARK VINA RESULT:    -6.455      5.104      6.905
REMARK INTER + INTRA:          -9.759
REMARK INTER:                  -9.387
REMARK INTRA:                  -0.372
REMARK UNBOUND:                -0.851
REMARK  Name = 
REMARK  7 active torsions:
REMARK  status: ('A' for Active; 'I' for Inactive)
REMARK    1  A    between atoms: N_1  and  C_2
REMARK    2  A    between atoms: C_2  and  C_3
REMARK    3  A    between atoms: C_7  and  C_8
REMARK    4  A    between atoms: C_8  and  C_9
REMARK    5  A    between atoms: C_9  and  N_10
REMARK    6  A    between atoms: N_10  and  C_11
REMARK    7  A    between atoms: C_15  and  C_16
REMARK                            x       y       z     vdW  Elec       q    Type
REMARK                         _______ _______ _______ _____ _____    ______ ____
ROOT
ATOM      1  N   UNL     1      46.945   3.622  14.500  0.00  0.00    +0.000 N 
ATOM      2  H   UNL     1      47.642   2.921  14.257  0.00  0.00    +0.000 HD
ENDROOT
BRANCH   1   3
ATOM      3  C   UNL     1      46.555   4.367  13.380  0.00  0.00    +0.000 A 
ATOM      4  C   UNL     1      47.062   5.633  13.065  0.00  0.00    +0.000 A 
ATOM      5  C   UNL     1      46.581   6.354  11.969  0.00  0.00    +0.000 A 
ATOM      6  C   UNL     1      45.559   5.826  11.183  0.00  0.00    +0.000 A 
ATOM      7  C   UNL     1      45.012   4.575  11.488  0.00  0.00    +0.000 A 
ATOM      8  C   UNL     1      45.508   3.863  12.590  0.00  0.00    +0.000 A 
BRANCH   7   9
ATOM      9  C   UNL     1      43.917   4.065  10.614  0.00  0.00    +0.000 C 
ATOM     10  N   UNL     1      43.913   4.415   9.292  0.00  0.00    +0.000 N 
ATOM     11  O   UNL     1      43.023   3.352  11.055  0.00  0.00    +0.000 OA
ATOM     12  H   UNL     1      44.603   4.986   8.835  0.00  0.00    +0.000 HD
ATOM     13  H   UNL     1      43.151   4.057   8.732  0.00  0.00    +0.000 HD
ENDBRANCH   7   9
ENDBRANCH   1   3
BRANCH   1  14
ATOM     14  C   UNL     1      47.221   4.307  15.762  0.00  0.00    +0.000 C 
BRANCH  14  15
ATOM     15  C   UNL     1      47.555   3.294  16.863  0.00  0.00    +0.000 C 
BRANCH  15  20
ATOM     16  C   UNL     1      51.213   2.327  17.401  0.00  0.00    +0.000 A 
ATOM     17  C   UNL     1      51.766   3.568  17.736  0.00  0.00    +0.000 A 
ATOM     18  C   UNL     1      50.958   4.704  17.826  0.00  0.00    +0.000 A 
ATOM     19  C   UNL     1      49.590   4.613  17.571  0.00  0.00    +0.000 A 
ATOM     20  C   UNL     1      49.016   3.382  17.235  0.00  0.00    +0.000 A 
ATOM     21  C   UNL     1      49.832   2.243  17.164  0.00  0.00    +0.000 A 
BRANCH  16  22
ATOM     22  C   UNL     1      52.083   1.099  17.302  0.00  0.00    +0.000 C 
BRANCH  22  23
ATOM     23  N   UNL     1      51.784   0.140  18.360  0.00  0.00    +0.000 NA
ATOM     24  H   UNL     1      51.852  -0.803  17.983  0.00  0.00    +0.000 HD
ATOM     25  H   UNL     1      50.814   0.264  18.648  0.00  0.00    +0.000 HD
ENDBRANCH  22  23
ENDBRANCH  16  22
ENDBRANCH  15  20
ENDBRANCH  14  15
ENDBRANCH   1  14
TORSDOF 7
ENDMDL
