MODEL 1
REMARK VINA RESULT:    -9.156      0.000      0.000
REMARK INTER + INTRA:         -12.472
REMARK INTER:                 -11.832
REMARK INTRA:                  -0.639
REMARK UNBOUND:                -0.639
REMARK  Name = 
REMARK  5 active torsions:
REMARK  status: ('A' for Active; 'I' for Inactive)
REMARK    1  A    between atoms: C_2  and  C_4
REMARK    2  A    between atoms: C_7  and  O_8
REMARK    3  A    between atoms: O_8  and  C_9
REMARK    4  A    between atoms: C_9  and  C_10
REMARK    5  A    between atoms: C_15  and  C_16
REMARK                            x       y       z     vdW  Elec       q    Type
REMARK                         _______ _______ _______ _____ _____    ______ ____
ROOT
ATOM      1  C   UNL     1      44.713   4.737  12.026  0.00  0.00    +0.000 A 
ATOM      2  C   UNL     1      45.392   3.783  12.789  0.00  0.00    +0.000 A 
ATOM      3  C   UNL     1      46.573   4.129  13.426  0.00  0.00    +0.000 A 
ATOM      4  F   UNL     1      47.221   3.210  14.156  0.00  0.00    +0.000 F 
ATOM      5  C   UNL     1      47.112   5.403  13.298  0.00  0.00    +0.000 A 
ATOM      6  C   UNL     1      46.482   6.368  12.500  0.00  0.00    +0.000 A 
ATOM      7  C   UNL     1      45.266   6.022  11.883  0.00  0.00    +0.000 A 
ENDROOT
BRANCH   6   8
ATOM      8  C   UNL     1      47.106   7.727  12.193  0.00  0.00    +0.000 C 
ATOM      9  C   UNL     1      48.642   7.639  12.252  0.00  0.00    +0.000 C 
ATOM     10  C   UNL     1      49.161   7.663  13.689  0.00  0.00    +0.000 C 
ATOM     11  C   UNL     1      48.585   8.831  14.489  0.00  0.00    +0.000 C 
ATOM     12  N   UNL     1      47.127   8.895  14.434  0.00  0.00    +0.000 NA
ATOM     13  C   UNL     1      46.621   8.913  13.057  0.00  0.00    +0.000 C 
ATOM     14  H   UNL     1      46.795   9.718  14.935  0.00  0.00    +0.000 HD
ENDBRANCH   6   8
BRANCH   1  15
ATOM     15  C   UNL     1      43.436   4.371  11.319  0.00  0.00    +0.000 C 
BRANCH  15  16
ATOM     16  O   UNL     1      43.611   4.614   9.925  0.00  0.00    +0.000 OA
BRANCH  16  20
ATOM     17  C   UNL     1      46.328   2.279   7.790  0.00  0.00    +0.000 A 
ATOM     18  C   UNL     1      45.447   1.643   8.671  0.00  0.00    +0.000 A 
ATOM     19  C   UNL     1      44.520   2.392   9.402  0.00  0.00    +0.000 A 
ATOM     20  C   UNL     1      44.470   3.780   9.265  0.00  0.00    +0.000 A 
ATOM     21  C   UNL     1      45.358   4.416   8.393  0.00  0.00    +0.000 A 
ATOM     22  C   UNL     1      46.289   3.672   7.662  0.00  0.00    +0.000 A 
BRANCH  17  24
ATOM     23  N   UNL     1      48.440   2.188   6.585  0.00  0.00    +0.000 N 
ATOM     24  C   UNL     1      47.327   1.514   7.006  0.00  0.00    +0.000 C 
ATOM     25  O   UNL     1      47.185   0.320   6.769  0.00  0.00    +0.000 OA
ATOM     26  H   UNL     1      49.158   1.631   6.137  0.00  0.00    +0.000 HD
ATOM     27  H   UNL     1      48.711   3.082   6.967  0.00  0.00    +0.000 HD
ENDBRANCH  17  24
ENDBRANCH  16  20
ENDBRANCH  15  16
ENDBRANCH   1  15
TORSDOF 5
ENDMDL
MODEL 2
REMARK VINA RESULT:    -8.490      2.053      2.808
REMARK INTER + INTRA:         -11.611
REMARK INTER:                 -10.651
REMARK INTRA:                  -0.960
REMARK UNBOUND:                -0.639
REMARK  Name = 
REMARK  5 active torsions:
REMARK  status: ('A' for Active; 'I' for Inactive)
REMARK    1  A    between atoms: C_2  and  C_4
REMARK    2  A    between atoms: C_7  and  O_8
REMARK    3  A    between atoms: O_8  and  C_9
REMARK    4  A    between atoms: C_9  and  C_10
REMARK    5  A    between atoms: C_15  and  C_16
REMARK                            x       y       z     vdW  Elec       q    Type
REMARK                         _______ _______ _______ _____ _____    ______ ____
ROOT
ATOM      1  C   UNL     1      44.577   6.004  11.744  0.00  0.00    +0.000 A 
ATOM      2  C   UNL     1      43.807   7.023  11.177  0.00  0.00    +0.000 A 
ATOM      3  C   UNL     1      44.216   8.342  11.300  0.00  0.00    +0.000 A 
ATOM      4  F   UNL     1      43.473   9.315  10.755  0.00  0.00    +0.000 F 
ATOM      5  C   UNL     1      45.367   8.673  12.004  0.00  0.00    +0.000 A 
ATOM      6  C   UNL     1      46.135   7.680  12.628  0.00  0.00    +0.000 A 
ATOM      7  C   UNL     1      45.733   6.341  12.470  0.00  0.00    +0.000 A 
ENDROOT
BRANCH   6   8
ATOM      8  C   UNL     1      47.314   7.995  13.544  0.00  0.00    +0.000 C 
ATOM      9  C   UNL     1      48.142   9.162  12.974  0.00  0.00    +0.000 C 
ATOM     10  C   UNL     1      49.068   8.707  11.846  0.00  0.00    +0.000 C 
ATOM     11  C   UNL     1      49.911   7.498  12.248  0.00  0.00    +0.000 C 
ATOM     12  N   UNL     1      49.113   6.396  12.776  0.00  0.00    +0.000 NA
ATOM     13  C   UNL     1      48.250   6.814  13.886  0.00  0.00    +0.000 C 
ATOM     14  H   UNL     1      49.722   5.638  13.079  0.00  0.00    +0.000 HD
ENDBRANCH   6   8
BRANCH   1  15
ATOM     15  C   UNL     1      44.138   4.570  11.628  0.00  0.00    +0.000 C 
BRANCH  15  16
ATOM     16  O   UNL     1      43.693   4.344  10.293  0.00  0.00    +0.000 OA
BRANCH  16  20
ATOM     17  C   UNL     1      46.432   2.474   7.765  0.00  0.00    +0.000 A 
ATOM     18  C   UNL     1      46.266   3.858   7.663  0.00  0.00    +0.000 A 
ATOM     19  C   UNL     1      45.359   4.522   8.495  0.00  0.00    +0.000 A 
ATOM     20  C   UNL     1      44.608   3.807   9.429  0.00  0.00    +0.000 A 
ATOM     21  C   UNL     1      44.766   2.422   9.522  0.00  0.00    +0.000 A 
ATOM     22  C   UNL     1      45.669   1.753   8.691  0.00  0.00    +0.000 A 
BRANCH  17  24
ATOM     23  N   UNL     1      48.482   2.424   6.454  0.00  0.00    +0.000 N 
ATOM     24  C   UNL     1      47.381   1.741   6.892  0.00  0.00    +0.000 C 
ATOM     25  O   UNL     1      47.210   0.564   6.597  0.00  0.00    +0.000 OA
ATOM     26  H   UNL     1      49.170   1.884   5.942  0.00  0.00    +0.000 HD
ATOM     27  H   UNL     1      48.785   3.292   6.872  0.00  0.00    +0.000 HD
ENDBRANCH  17  24
ENDBRANCH  16  20
ENDBRANCH  15  16
ENDBRANCH   1  15
TORSDOF 5
ENDMDL
MODEL 3
REMARK VINA RESULT:    -7.399      1.871      2.850
REMARK INTER + INTRA:         -10.201
REMARK INTER:                  -9.799
REMARK INTRA:                  -0.402
REMARK UNBOUND:                -0.639
REMARK  Name = 
REMARK  5 active torsions:
REMARK  status: ('A' for Active; 'I' for Inactive)
REMARK    1  A    between atoms: C_2  and  C_4
REMARK    2  A    between atoms: C_7  and  O_8
REMARK    3  A    between atoms: O_8  and  C_9
REMARK    4  A    between atoms: C_9  and  C_10
REMARK    5  A    between atoms: C_15  and  C_16
REMARK                            x       y       z     vdW  Elec       q    Type
REMARK                         _______ _______ _______ _____ _____    ______ ____
ROOT
ATOM      1  C   UNL     1      44.536   6.300  11.320  0.00  0.00    +0.000 A 
ATOM      2  C   UNL     1      44.235   7.621  11.661  0.00  0.00    +0.000 A 
ATOM      3  C   UNL     1      45.150   8.368  12.387  0.00  0.00    +0.000 A 
ATOM      4  F   UNL     1      44.855   9.635  12.712  0.00  0.00    +0.000 F 
ATOM      5  C   UNL     1      46.353   7.817  12.807  0.00  0.00    +0.000 A 
ATOM      6  C   UNL     1      46.665   6.480  12.525  0.00  0.00    +0.000 A 
ATOM      7  C   UNL     1      45.747   5.737  11.760  0.00  0.00    +0.000 A 
ENDROOT
BRANCH   6   8
ATOM      8  C   UNL     1      47.893   5.775  13.095  0.00  0.00    +0.000 C 
ATOM      9  C   UNL     1      47.514   4.383  13.633  0.00  0.00    +0.000 C 
ATOM     10  C   UNL     1      46.853   4.464  15.009  0.00  0.00    +0.000 C 
ATOM     11  C   UNL     1      47.673   5.297  15.993  0.00  0.00    +0.000 C 
ATOM     12  N   UNL     1      48.016   6.618  15.474  0.00  0.00    +0.000 NA
ATOM     13  C   UNL     1      48.688   6.549  14.172  0.00  0.00    +0.000 C 
ATOM     14  H   UNL     1      48.607   7.112  16.141  0.00  0.00    +0.000 HD
ENDBRANCH   6   8
BRANCH   1  15
ATOM     15  C   UNL     1      43.547   5.474  10.543  0.00  0.00    +0.000 C 
BRANCH  15  16
ATOM     16  O   UNL     1      43.948   4.109  10.616  0.00  0.00    +0.000 OA
BRANCH  16  20
ATOM     17  C   UNL     1      46.385   2.490   7.644  0.00  0.00    +0.000 A 
ATOM     18  C   UNL     1      46.142   3.867   7.633  0.00  0.00    +0.000 A 
ATOM     19  C   UNL     1      45.333   4.447   8.614  0.00  0.00    +0.000 A 
ATOM     20  C   UNL     1      44.755   3.656   9.608  0.00  0.00    +0.000 A 
ATOM     21  C   UNL     1      44.989   2.278   9.612  0.00  0.00    +0.000 A 
ATOM     22  C   UNL     1      45.795   1.693   8.631  0.00  0.00    +0.000 A 
BRANCH  17  24
ATOM     23  N   UNL     1      48.155   2.632   5.979  0.00  0.00    +0.000 N 
ATOM     24  C   UNL     1      47.233   1.844   6.612  0.00  0.00    +0.000 C 
ATOM     25  O   UNL     1      47.141   0.650   6.355  0.00  0.00    +0.000 OA
ATOM     26  H   UNL     1      48.792   2.158   5.351  0.00  0.00    +0.000 HD
ATOM     27  H   UNL     1      48.431   3.537   6.333  0.00  0.00    +0.000 HD
ENDBRANCH  17  24
ENDBRANCH  16  20
ENDBRANCH  15  16
ENDBRANCH   1  15
TORSDOF 5
ENDMDL
MODEL 4
REMARK VINA RESULT:    -6.889      4.155      6.196
REMARK INTER + INTRA:          -9.542
REMARK INTER:                  -8.673
REMARK INTRA:                  -0.869
REMARK UNBOUND:                -0.639
REMARK  Name = 
REMARK  5 active torsions:
REMARK  status: ('A' for Active; 'I' for Inactive)
REMARK    1  A    between atoms: C_2  and  C_4
REMARK    2  A    between atoms: C_7  and  O_8
REMARK    3  A    between atoms: O_8  and  C_9
REMARK    4  A    between atoms: C_9  and  C_10
REMARK    5  A    between atoms: C_15  and  C_16
REMARK                            x       y       z     vdW  Elec       q    Type
REMARK                         _______ _______ _______ _____ _____    ______ ____
ROOT
ATOM      1  C   UNL     1      48.876   7.705  14.923  0.00  0.00    +0.000 A 
ATOM      2  C   UNL     1      48.425   8.948  15.375  0.00  0.00    +0.000 A 
ATOM      3  C   UNL     1      48.247   9.160  16.733  0.00  0.00    +0.000 A 
ATOM      4  F   UNL     1      47.814  10.354  17.162  0.00  0.00    +0.000 F 
ATOM      5  C   UNL     1      48.481   8.148  17.655  0.00  0.00    +0.000 A 
ATOM      6  C   UNL     1      48.886   6.875  17.230  0.00  0.00    +0.000 A 
ATOM      7  C   UNL     1      49.098   6.676  15.854  0.00  0.00    +0.000 A 
ENDROOT
BRANCH   6   8
ATOM      8  C   UNL     1      49.004   5.682  18.176  0.00  0.00    +0.000 C 
ATOM      9  C   UNL     1      49.453   4.427  17.406  0.00  0.00    +0.000 C 
ATOM     10  C   UNL     1      48.296   3.779  16.645  0.00  0.00    +0.000 C 
ATOM     11  C   UNL     1      47.079   3.546  17.540  0.00  0.00    +0.000 C 
ATOM     12  N   UNL     1      46.659   4.747  18.255  0.00  0.00    +0.000 NA
ATOM     13  C   UNL     1      47.753   5.353  19.021  0.00  0.00    +0.000 C 
ATOM     14  H   UNL     1      45.882   4.528  18.877  0.00  0.00    +0.000 HD
ENDBRANCH   6   8
BRANCH   1  15
ATOM     15  C   UNL     1      49.063   7.458  13.450  0.00  0.00    +0.000 C 
BRANCH  15  16
ATOM     16  O   UNL     1      48.660   6.121  13.166  0.00  0.00    +0.000 OA
BRANCH  16  20
ATOM     17  C   UNL     1      44.678   5.722  11.991  0.00  0.00    +0.000 A 
ATOM     18  C   UNL     1      45.113   5.029  13.126  0.00  0.00    +0.000 A 
ATOM     19  C   UNL     1      46.440   5.140  13.553  0.00  0.00    +0.000 A 
ATOM     20  C   UNL     1      47.343   5.936  12.846  0.00  0.00    +0.000 A 
ATOM     21  C   UNL     1      46.910   6.619  11.706  0.00  0.00    +0.000 A 
ATOM     22  C   UNL     1      45.585   6.509  11.273  0.00  0.00    +0.000 A 
BRANCH  17  24
ATOM     23  N   UNL     1      42.622   6.789  11.246  0.00  0.00    +0.000 N 
ATOM     24  C   UNL     1      43.279   5.619  11.510  0.00  0.00    +0.000 C 
ATOM     25  O   UNL     1      42.739   4.536  11.322  0.00  0.00    +0.000 OA
ATOM     26  H   UNL     1      41.704   6.702  10.825  0.00  0.00    +0.000 HD
ATOM     27  H   UNL     1      43.102   7.672  11.145  0.00  0.00    +0.000 HD
ENDBRANCH  17  24
ENDBRANCH  16  20
ENDBRANCH  15  16
ENDBRANCH   1  15
TORSDOF 5
ENDMDL
MODEL 5
REMARK VINA RESULT:    -6.811      2.601      3.512
REMARK INTER + INTRA:          -9.441
REMARK INTER:                  -8.997
REMARK INTRA:                  -0.444
REMARK UNBOUND:                -0.639
REMARK  Name = 
REMARK  5 active torsions:
REMARK  status: ('A' for Active; 'I' for Inactive)
REMARK    1  A    between atoms: C_2  and  C_4
REMARK    2  A    between atoms: C_7  and  O_8
REMARK    3  A    between atoms: O_8  and  C_9
REMARK    4  A    between atoms: C_9  and  C_10
REMARK    5  A    between atoms: C_15  and  C_16
REMARK                            x       y       z     vdW  Elec       q    Type
REMARK                         _______ _______ _______ _____ _____    ______ ____
ROOT
ATOM      1  C   UNL     1      45.806   5.463  12.722  0.00  0.00    +0.000 A 
ATOM      2  C   UNL     1      46.889   6.272  12.367  0.00  0.00    +0.000 A 
ATOM      3  C   UNL     1      48.023   6.290  13.165  0.00  0.00    +0.000 A 
ATOM      4  F   UNL     1      49.058   7.068  12.820  0.00  0.00    +0.000 F 
ATOM      5  C   UNL     1      48.092   5.538  14.331  0.00  0.00    +0.000 A 
ATOM      6  C   UNL     1      47.004   4.755  14.742  0.00  0.00    +0.000 A 
ATOM      7  C   UNL     1      45.870   4.715  13.911  0.00  0.00    +0.000 A 
ENDROOT
BRANCH   6   8
ATOM      8  C   UNL     1      46.960   4.037  16.088  0.00  0.00    +0.000 C 
ATOM      9  C   UNL     1      47.171   5.038  17.239  0.00  0.00    +0.000 C 
ATOM     10  C   UNL     1      48.645   5.400  17.418  0.00  0.00    +0.000 C 
ATOM     11  C   UNL     1      49.534   4.160  17.515  0.00  0.00    +0.000 C 
ATOM     12  N   UNL     1      49.331   3.226  16.411  0.00  0.00    +0.000 NA
ATOM     13  C   UNL     1      47.924   2.841  16.258  0.00  0.00    +0.000 C 
ATOM     14  H   UNL     1      49.904   2.395  16.549  0.00  0.00    +0.000 HD
ENDBRANCH   6   8
BRANCH   1  15
ATOM     15  C   UNL     1      44.565   5.443  11.871  0.00  0.00    +0.000 C 
BRANCH  15  16
ATOM     16  O   UNL     1      44.372   4.115  11.393  0.00  0.00    +0.000 OA
BRANCH  16  20
ATOM     17  C   UNL     1      46.155   2.915   7.819  0.00  0.00    +0.000 A 
ATOM     18  C   UNL     1      46.057   4.283   8.091  0.00  0.00    +0.000 A 
ATOM     19  C   UNL     1      45.469   4.724   9.279  0.00  0.00    +0.000 A 
ATOM     20  C   UNL     1      44.967   3.804  10.201  0.00  0.00    +0.000 A 
ATOM     21  C   UNL     1      45.055   2.437   9.923  0.00  0.00    +0.000 A 
ATOM     22  C   UNL     1      45.640   1.991   8.734  0.00  0.00    +0.000 A 
BRANCH  17  24
ATOM     23  N   UNL     1      47.006   3.334   5.577  0.00  0.00    +0.000 N 
ATOM     24  C   UNL     1      46.768   2.416   6.563  0.00  0.00    +0.000 C 
ATOM     25  O   UNL     1      47.081   1.241   6.420  0.00  0.00    +0.000 OA
ATOM     26  H   UNL     1      47.513   2.999   4.767  0.00  0.00    +0.000 HD
ATOM     27  H   UNL     1      46.999   4.329   5.748  0.00  0.00    +0.000 HD
ENDBRANCH  17  24
ENDBRANCH  16  20
ENDBRANCH  15  16
ENDBRANCH   1  15
TORSDOF 5
ENDMDL
MODEL 6
REMARK VINA RESULT:    -6.281      4.319      6.911
REMARK INTER + INTRA:          -8.756
REMARK INTER:                  -8.165
REMARK INTRA:                  -0.591
REMARK UNBOUND:                -0.639
REMARK  Name = 
REMARK  5 active torsions:
REMARK  status: ('A' for Active; 'I' for Inactive)
REMARK    1  A    between atoms: C_2  and  C_4
REMARK    2  A    between atoms: C_7  and  O_8
REMARK    3  A    between atoms: O_8  and  C_9
REMARK    4  A    between atoms: C_9  and  C_10
REMARK    5  A    between atoms: C_15  and  C_16
REMARK                            x       y       z     vdW  Elec       q    Type
REMARK                         _______ _______ _______ _____ _____    ______ ____
ROOT
ATOM      1  C   UNL     1      46.354   4.478  13.028  0.00  0.00    +0.000 A 
ATOM      2  C   UNL     1      45.184   4.323  12.280  0.00  0.00    +0.000 A 
ATOM      3  C   UNL     1      44.802   5.314  11.389  0.00  0.00    +0.000 A 
ATOM      4  F   UNL     1      43.678   5.161  10.675  0.00  0.00    +0.000 F 
ATOM      5  C   UNL     1      45.549   6.477  11.246  0.00  0.00    +0.000 A 
ATOM      6  C   UNL     1      46.701   6.686  12.018  0.00  0.00    +0.000 A 
ATOM      7  C   UNL     1      47.101   5.662  12.895  0.00  0.00    +0.000 A 
ENDROOT
BRANCH   6   8
ATOM      8  C   UNL     1      47.469   8.005  12.021  0.00  0.00    +0.000 C 
ATOM      9  C   UNL     1      48.951   7.763  12.367  0.00  0.00    +0.000 C 
ATOM     10  C   UNL     1      49.163   7.571  13.868  0.00  0.00    +0.000 C 
ATOM     11  C   UNL     1      48.518   8.689  14.687  0.00  0.00    +0.000 C 
ATOM     12  N   UNL     1      47.112   8.899  14.357  0.00  0.00    +0.000 NA
ATOM     13  C   UNL     1      46.903   9.125  12.923  0.00  0.00    +0.000 C 
ATOM     14  H   UNL     1      46.743   9.687  14.888  0.00  0.00    +0.000 HD
ENDBRANCH   6   8
BRANCH   1  15
ATOM     15  C   UNL     1      46.773   3.415  14.007  0.00  0.00    +0.000 C 
BRANCH  15  16
ATOM     16  O   UNL     1      46.609   3.931  15.325  0.00  0.00    +0.000 OA
BRANCH  16  20
ATOM     17  C   UNL     1      49.962   4.070  17.801  0.00  0.00    +0.000 A 
ATOM     18  C   UNL     1      49.484   2.821  17.393  0.00  0.00    +0.000 A 
ATOM     19  C   UNL     1      48.364   2.733  16.560  0.00  0.00    +0.000 A 
ATOM     20  C   UNL     1      47.710   3.891  16.136  0.00  0.00    +0.000 A 
ATOM     21  C   UNL     1      48.181   5.138  16.554  0.00  0.00    +0.000 A 
ATOM     22  C   UNL     1      49.298   5.231  17.389  0.00  0.00    +0.000 A 
BRANCH  17  24
ATOM     23  N   UNL     1      52.087   3.208  18.616  0.00  0.00    +0.000 N 
ATOM     24  C   UNL     1      51.143   4.195  18.690  0.00  0.00    +0.000 C 
ATOM     25  O   UNL     1      51.290   5.154  19.437  0.00  0.00    +0.000 OA
ATOM     26  H   UNL     1      52.932   3.356  19.154  0.00  0.00    +0.000 HD
ATOM     27  H   UNL     1      52.128   2.551  17.850  0.00  0.00    +0.000 HD
ENDBRANCH  17  24
ENDBRANCH  16  20
ENDBRANCH  15  16
ENDBRANCH   1  15
TORSDOF 5
ENDMDL
MODEL 7
REMARK VINA RESULT:    -6.266      4.323      6.309
REMARK INTER + INTRA:          -8.737
REMARK INTER:                  -8.055
REMARK INTRA:                  -0.681
REMARK UNBOUND:                -0.639
REMARK  Name = 
REMARK  5 active torsions:
REMARK  status: ('A' for Active; 'I' for Inactive)
REMARK    1  A    between atoms: C_2  and  C_4
REMARK    2  A    between atoms: C_7  and  O_8
REMARK    3  A    between atoms: O_8  and  C_9
REMARK    4  A    between atoms: C_9  and  C_10
REMARK    5  A    between atoms: C_15  and  C_16
REMARK                            x       y       z     vdW  Elec       q    Type
REMARK                         _______ _______ _______ _____ _____    ______ ____
ROOT
ATOM      1  C   UNL     1      48.710   7.216  15.739  0.00  0.00    +0.000 A 
ATOM      2  C   UNL     1      48.860   8.462  16.356  0.00  0.00    +0.000 A 
ATOM      3  C   UNL     1      49.260   8.528  17.681  0.00  0.00    +0.000 A 
ATOM      4  F   UNL     1      49.402   9.725  18.267  0.00  0.00    +0.000 F 
ATOM      5  C   UNL     1      49.488   7.374  18.420  0.00  0.00    +0.000 A 
ATOM      6  C   UNL     1      49.297   6.109  17.847  0.00  0.00    +0.000 A 
ATOM      7  C   UNL     1      48.924   6.048  16.492  0.00  0.00    +0.000 A 
ENDROOT
BRANCH   6   8
ATOM      8  C   UNL     1      49.376   4.813  18.651  0.00  0.00    +0.000 C 
ATOM      9  C   UNL     1      50.705   4.740  19.425  0.00  0.00    +0.000 C 
ATOM     10  C   UNL     1      51.868   4.319  18.526  0.00  0.00    +0.000 C 
ATOM     11  C   UNL     1      51.551   3.051  17.734  0.00  0.00    +0.000 C 
ATOM     12  N   UNL     1      50.295   3.139  16.996  0.00  0.00    +0.000 NA
ATOM     13  C   UNL     1      49.165   3.503  17.858  0.00  0.00    +0.000 C 
ATOM     14  H   UNL     1      50.102   2.253  16.530  0.00  0.00    +0.000 HD
ENDBRANCH   6   8
BRANCH   1  15
ATOM     15  C   UNL     1      48.264   7.130  14.305  0.00  0.00    +0.000 C 
BRANCH  15  16
ATOM     16  O   UNL     1      48.128   5.754  13.960  0.00  0.00    +0.000 OA
BRANCH  16  20
ATOM     17  C   UNL     1      44.997   4.573  11.470  0.00  0.00    +0.000 A 
ATOM     18  C   UNL     1      45.632   5.792  11.214  0.00  0.00    +0.000 A 
ATOM     19  C   UNL     1      46.687   6.221  12.024  0.00  0.00    +0.000 A 
ATOM     20  C   UNL     1      47.111   5.440  13.100  0.00  0.00    +0.000 A 
ATOM     21  C   UNL     1      46.469   4.227  13.364  0.00  0.00    +0.000 A 
ATOM     22  C   UNL     1      45.411   3.795  12.557  0.00  0.00    +0.000 A 
BRANCH  17  24
ATOM     23  N   UNL     1      43.827   4.530   9.337  0.00  0.00    +0.000 N 
ATOM     24  C   UNL     1      43.871   4.094  10.633  0.00  0.00    +0.000 C 
ATOM     25  O   UNL     1      43.030   3.315  11.065  0.00  0.00    +0.000 OA
ATOM     26  H   UNL     1      43.110   4.118   8.751  0.00  0.00    +0.000 HD
ATOM     27  H   UNL     1      44.620   4.955   8.880  0.00  0.00    +0.000 HD
ENDBRANCH  17  24
ENDBRANCH  16  20
ENDBRANCH  15  16
ENDBRANCH   1  15
TORSDOF 5
ENDMDL
MODEL 8
REMARK VINA RESULT:    -6.225      3.031      7.246
REMARK INTER + INTRA:          -8.684
REMARK INTER:                  -7.921
REMARK INTRA:                  -0.763
REMARK UNBOUND:                -0.639
REMARK  Name = 
REMARK  5 active torsions:
REMARK  status: ('A' for Active; 'I' for Inactive)
REMARK    1  A    between atoms: C_2  and  C_4
REMARK    2  A    between atoms: C_7  and  O_8
REMARK    3  A    between atoms: O_8  and  C_9
REMARK    4  A    between atoms: C_9  and  C_10
REMARK    5  A    between atoms: C_15  and  C_16
REMARK                            x       y       z     vdW  Elec       q    Type
REMARK                         _______ _______ _______ _____ _____    ______ ____
ROOT
ATOM      1  C   UNL     1      45.573   5.644  11.064  0.00  0.00    +0.000 A 
ATOM      2  C   UNL     1      45.105   4.810  12.083  0.00  0.00    +0.000 A 
ATOM      3  C   UNL     1      44.724   3.511  11.785  0.00  0.00    +0.000 A 
ATOM      4  F   UNL     1      44.275   2.715  12.765  0.00  0.00    +0.000 F 
ATOM      5  C   UNL     1      44.772   3.030  10.482  0.00  0.00    +0.000 A 
ATOM      6  C   UNL     1      45.190   3.856   9.430  0.00  0.00    +0.000 A 
ATOM      7  C   UNL     1      45.607   5.162   9.744  0.00  0.00    +0.000 A 
ENDROOT
BRANCH   6   8
ATOM      8  C   UNL     1      45.113   3.436   7.964  0.00  0.00    +0.000 C 
ATOM      9  C   UNL     1      45.061   1.902   7.846  0.00  0.00    +0.000 C 
ATOM     10  C   UNL     1      46.443   1.270   8.012  0.00  0.00    +0.000 C 
ATOM     11  C   UNL     1      47.485   1.919   7.102  0.00  0.00    +0.000 C 
ATOM     12  N   UNL     1      47.530   3.372   7.233  0.00  0.00    +0.000 NA
ATOM     13  C   UNL     1      46.215   3.992   7.035  0.00  0.00    +0.000 C 
ATOM     14  H   UNL     1      48.199   3.761   6.569  0.00  0.00    +0.000 HD
ENDBRANCH   6   8
BRANCH   1  15
ATOM     15  C   UNL     1      45.978   7.060  11.372  0.00  0.00    +0.000 C 
BRANCH  15  16
ATOM     16  O   UNL     1      46.580   7.083  12.663  0.00  0.00    +0.000 OA
BRANCH  16  20
ATOM     17  C   UNL     1      50.583   8.177  13.078  0.00  0.00    +0.000 A 
ATOM     18  C   UNL     1      49.952   8.403  11.851  0.00  0.00    +0.000 A 
ATOM     19  C   UNL     1      48.610   8.053  11.674  0.00  0.00    +0.000 A 
ATOM     20  C   UNL     1      47.891   7.468  12.718  0.00  0.00    +0.000 A 
ATOM     21  C   UNL     1      48.526   7.231  13.940  0.00  0.00    +0.000 A 
ATOM     22  C   UNL     1      49.869   7.577  14.121  0.00  0.00    +0.000 A 
BRANCH  17  24
ATOM     23  N   UNL     1      52.934   7.887  12.522  0.00  0.00    +0.000 N 
ATOM     24  C   UNL     1      52.007   8.531  13.294  0.00  0.00    +0.000 C 
ATOM     25  O   UNL     1      52.344   9.387  14.103  0.00  0.00    +0.000 OA
ATOM     26  H   UNL     1      53.891   8.210  12.610  0.00  0.00    +0.000 HD
ATOM     27  H   UNL     1      52.687   7.377  11.687  0.00  0.00    +0.000 HD
ENDBRANCH  17  24
ENDBRANCH  16  20
ENDBRANCH  15  16
ENDBRANCH   1  15
TORSDOF 5
ENDMDL
