MODEL 1
REMARK VINA RESULT:    -7.799      0.000      0.000
REMARK INTER + INTRA:         -11.802
REMARK INTER:                 -10.991
REMARK INTRA:                  -0.812
REMARK UNBOUND:                -0.812
REMARK  Name = 
REMARK  7 active torsions:
REMARK  status: ('A' for Active; 'I' for Inactive)
REMARK    1  A    between atoms: C_2  and  C_4
REMARK    2  A    between atoms: C_7  and  C_8
REMARK    3  A    between atoms: N_10  and  C_11
REMARK    4  A    between atoms: C_11  and  C_12
REMARK    5  A    between atoms: C_15  and  C_16
REMARK    6  A    between atoms: C_16  and  N_17
REMARK    7  A    between atoms: C_18  and  C_20
REMARK                            x       y       z     vdW  Elec       q    Type
REMARK                         _______ _______ _______ _____ _____    ______ ____
ROOT
ATOM      1  C   UNL     1      45.230   7.098  12.221  0.00  0.00    +0.000 A 
ATOM      2  C   UNL     1      46.289   6.468  12.841  0.00  0.00    +0.000 A 
ATOM      3  C   UNL     1      47.231   7.187  13.541  0.00  0.00    +0.000 A 
ATOM      4  C   UNL     1      47.146   8.550  13.690  0.00  0.00    +0.000 A 
ATOM      5  C   UNL     1      46.120   9.174  13.004  0.00  0.00    +0.000 A 
ATOM      6  C   UNL     1      45.090   8.458  12.409  0.00  0.00    +0.000 A 
ENDROOT
BRANCH   1   7
ATOM      7  C   UNL     1      44.285   6.295  11.385  0.00  0.00    +0.000 C 
BRANCH   7  10
ATOM      8  C   UNL     1      44.466   4.147  10.093  0.00  0.00    +0.000 C 
ATOM      9  O   UNL     1      43.403   3.765  10.579  0.00  0.00    +0.000 OA
ATOM     10  N   UNL     1      44.982   5.411  10.447  0.00  0.00    +0.000 N 
ATOM     11  H   UNL     1      45.850   5.767  10.068  0.00  0.00    +0.000 HD
BRANCH   8  15
ATOM     12  C   UNL     1      46.695   2.420   7.256  0.00  0.00    +0.000 A 
ATOM     13  C   UNL     1      46.122   1.442   8.041  0.00  0.00    +0.000 A 
ATOM     14  C   UNL     1      45.301   1.948   9.083  0.00  0.00    +0.000 A 
ATOM     15  C   UNL     1      45.243   3.320   9.143  0.00  0.00    +0.000 A 
ATOM     16  S   UNL     1      46.261   3.983   7.888  0.00  0.00    +0.000 S 
BRANCH  12  18
ATOM     17  N   UNL     1      47.346   3.189   5.012  0.00  0.00    +0.000 N 
ATOM     18  C   UNL     1      47.527   2.262   6.047  0.00  0.00    +0.000 C 
ATOM     19  O   UNL     1      48.354   1.362   5.916  0.00  0.00    +0.000 OA
ATOM     20  H   UNL     1      47.910   3.143   4.159  0.00  0.00    +0.000 HD
ATOM     21  H   UNL     1      46.695   3.964   5.051  0.00  0.00    +0.000 HD
ENDBRANCH  12  18
ENDBRANCH   8  15
ENDBRANCH   7  10
ENDBRANCH   1   7
BRANCH   4  22
ATOM     22  C   UNL     1      48.082   9.321  14.583  0.00  0.00    +0.000 C 
BRANCH  22  23
ATOM     23  N   UNL     1      48.058   8.862  15.981  0.00  0.00    +0.000 N 
ATOM     24  C   UNL     1      49.103   8.129  16.551  0.00  0.00    +0.000 C 
ATOM     25  O   UNL     1      50.091   7.845  15.881  0.00  0.00    +0.000 OA
ATOM     26  H   UNL     1      47.266   9.136  16.538  0.00  0.00    +0.000 HD
BRANCH  24  27
ATOM     27  C   UNL     1      48.991   7.658  17.977  0.00  0.00    +0.000 A 
ATOM     28  C   UNL     1      48.936   8.577  19.032  0.00  0.00    +0.000 A 
ATOM     29  S   UNL     1      48.729   7.815  20.567  0.00  0.00    +0.000 S 
ATOM     30  C   UNL     1      48.679   6.229  19.929  0.00  0.00    +0.000 A 
ATOM     31  N   UNL     1      48.531   5.085  20.663  0.00  0.00    +0.000 NA
ATOM     32  C   UNL     1      48.543   4.114  19.899  0.00  0.00    +0.000 A 
ATOM     33  N   UNL     1      48.553   3.114  19.142  0.00  0.00    +0.000 N 
ATOM     34  C   UNL     1      48.808   4.647  17.992  0.00  0.00    +0.000 A 
ATOM     35  O   UNL     1      48.938   4.828  16.770  0.00  0.00    +0.000 OA
ATOM     36  C   UNL     1      48.822   6.207  18.567  0.00  0.00    +0.000 A 
ATOM     37  H   UNL     1      48.398   2.550  20.192  0.00  0.00    +0.000 HD
ENDBRANCH  24  27
ENDBRANCH  22  23
ENDBRANCH   4  22
TORSDOF 7
ENDMDL
MODEL 2
REMARK VINA RESULT:    -7.023      3.237      9.483
REMARK INTER + INTRA:         -10.709
REMARK INTER:                  -9.766
REMARK INTRA:                  -0.943
REMARK UNBOUND:                -0.812
REMARK  Name = 
REMARK  7 active torsions:
REMARK  status: ('A' for Active; 'I' for Inactive)
REMARK    1  A    between atoms: C_2  and  C_4
REMARK    2  A    between atoms: C_7  and  C_8
REMARK    3  A    between atoms: N_10  and  C_11
REMARK    4  A    between atoms: C_11  and  C_12
REMARK    5  A    between atoms: C_15  and  C_16
REMARK    6  A    between atoms: C_16  and  N_17
REMARK    7  A    between atoms: C_18  and  C_20
REMARK                            x       y       z     vdW  Elec       q    Type
REMARK                         _______ _______ _______ _____ _____    ______ ____
ROOT
ATOM      1  C   UNL     1      48.986   7.698  16.027  0.00  0.00    +0.000 A 
ATOM      2  C   UNL     1      48.276   8.830  15.684  0.00  0.00    +0.000 A 
ATOM      3  C   UNL     1      47.747   8.981  14.422  0.00  0.00    +0.000 A 
ATOM      4  C   UNL     1      47.866   8.007  13.461  0.00  0.00    +0.000 A 
ATOM      5  C   UNL     1      48.641   6.912  13.797  0.00  0.00    +0.000 A 
ATOM      6  C   UNL     1      49.064   6.681  15.099  0.00  0.00    +0.000 A 
ENDROOT
BRANCH   1   7
ATOM      7  C   UNL     1      49.631   7.616  17.374  0.00  0.00    +0.000 C 
BRANCH   7  10
ATOM      8  C   UNL     1      50.153   5.229  17.963  0.00  0.00    +0.000 C 
ATOM      9  O   UNL     1      48.986   5.059  18.309  0.00  0.00    +0.000 OA
ATOM     10  N   UNL     1      50.562   6.490  17.480  0.00  0.00    +0.000 N 
ATOM     11  H   UNL     1      51.511   6.673  17.181  0.00  0.00    +0.000 HD
BRANCH   8  15
ATOM     12  C   UNL     1      52.472   1.971  17.943  0.00  0.00    +0.000 A 
ATOM     13  C   UNL     1      53.148   3.005  18.555  0.00  0.00    +0.000 A 
ATOM     14  C   UNL     1      52.410   4.216  18.621  0.00  0.00    +0.000 A 
ATOM     15  C   UNL     1      51.165   4.152  18.041  0.00  0.00    +0.000 A 
ATOM     16  S   UNL     1      50.933   2.554  17.376  0.00  0.00    +0.000 S 
BRANCH  12  18
ATOM     17  N   UNL     1      52.191  -0.410  18.496  0.00  0.00    +0.000 N 
ATOM     18  C   UNL     1      52.893   0.565  17.775  0.00  0.00    +0.000 C 
ATOM     19  O   UNL     1      53.822   0.227  17.045  0.00  0.00    +0.000 OA
ATOM     20  H   UNL     1      52.424  -1.402  18.403  0.00  0.00    +0.000 HD
ATOM     21  H   UNL     1      51.408  -0.211  19.107  0.00  0.00    +0.000 HD
ENDBRANCH  12  18
ENDBRANCH   8  15
ENDBRANCH   7  10
ENDBRANCH   1   7
BRANCH   4  22
ATOM     22  C   UNL     1      47.159   8.097  12.134  0.00  0.00    +0.000 C 
BRANCH  22  23
ATOM     23  N   UNL     1      46.575   6.817  11.701  0.00  0.00    +0.000 N 
ATOM     24  C   UNL     1      45.303   6.397  12.100  0.00  0.00    +0.000 C 
ATOM     25  O   UNL     1      44.626   7.105  12.838  0.00  0.00    +0.000 OA
ATOM     26  H   UNL     1      47.117   6.261  11.061  0.00  0.00    +0.000 HD
BRANCH  24  27
ATOM     27  C   UNL     1      44.786   5.055  11.650  0.00  0.00    +0.000 A 
ATOM     28  C   UNL     1      43.988   4.276  12.496  0.00  0.00    +0.000 A 
ATOM     29  S   UNL     1      43.449   2.819  11.743  0.00  0.00    +0.000 S 
ATOM     30  C   UNL     1      44.218   3.141  10.250  0.00  0.00    +0.000 A 
ATOM     31  N   UNL     1      44.189   2.326   9.153  0.00  0.00    +0.000 NA
ATOM     32  C   UNL     1      44.849   2.848   8.248  0.00  0.00    +0.000 A 
ATOM     33  N   UNL     1      45.514   3.359   7.316  0.00  0.00    +0.000 N 
ATOM     34  C   UNL     1      45.669   4.582   8.805  0.00  0.00    +0.000 A 
ATOM     35  O   UNL     1      46.218   5.680   8.998  0.00  0.00    +0.000 OA
ATOM     36  C   UNL     1      44.905   4.326  10.260  0.00  0.00    +0.000 A 
ATOM     37  H   UNL     1      45.148   2.360   6.756  0.00  0.00    +0.000 HD
ENDBRANCH  24  27
ENDBRANCH  22  23
ENDBRANCH   4  22
TORSDOF 7
ENDMDL
MODEL 3
REMARK VINA RESULT:    -6.985      2.250      2.653
REMARK INTER + INTRA:         -10.655
REMARK INTER:                  -9.866
REMARK INTRA:                  -0.790
REMARK UNBOUND:                -0.812
REMARK  Name = 
REMARK  7 active torsions:
REMARK  status: ('A' for Active; 'I' for Inactive)
REMARK    1  A    between atoms: C_2  and  C_4
REMARK    2  A    between atoms: C_7  and  C_8
REMARK    3  A    between atoms: N_10  and  C_11
REMARK    4  A    between atoms: C_11  and  C_12
REMARK    5  A    between atoms: C_15  and  C_16
REMARK    6  A    between atoms: C_16  and  N_17
REMARK    7  A    between atoms: C_18  and  C_20
REMARK                            x       y       z     vdW  Elec       q    Type
REMARK                         _______ _______ _______ _____ _____    ______ ____
ROOT
ATOM      1  C   UNL     1      46.293   7.238  12.637  0.00  0.00    +0.000 A 
ATOM      2  C   UNL     1      46.201   8.479  13.231  0.00  0.00    +0.000 A 
ATOM      3  C   UNL     1      47.153   8.909  14.127  0.00  0.00    +0.000 A 
ATOM      4  C   UNL     1      48.252   8.148  14.446  0.00  0.00    +0.000 A 
ATOM      5  C   UNL     1      48.292   6.879  13.898  0.00  0.00    +0.000 A 
ATOM      6  C   UNL     1      47.419   6.482  12.893  0.00  0.00    +0.000 A 
ENDROOT
BRANCH   1   7
ATOM      7  C   UNL     1      45.187   6.765  11.748  0.00  0.00    +0.000 C 
BRANCH   7  10
ATOM      8  C   UNL     1      44.750   4.742  10.323  0.00  0.00    +0.000 C 
ATOM      9  O   UNL     1      43.577   4.733  10.693  0.00  0.00    +0.000 OA
ATOM     10  N   UNL     1      45.629   5.733  10.807  0.00  0.00    +0.000 N 
ATOM     11  H   UNL     1      46.600   5.780  10.525  0.00  0.00    +0.000 HD
BRANCH   8  15
ATOM     12  C   UNL     1      46.426   2.481   7.480  0.00  0.00    +0.000 A 
ATOM     13  C   UNL     1      45.691   1.677   8.325  0.00  0.00    +0.000 A 
ATOM     14  C   UNL     1      45.045   2.382   9.375  0.00  0.00    +0.000 A 
ATOM     15  C   UNL     1      45.287   3.735   9.380  0.00  0.00    +0.000 A 
ATOM     16  S   UNL     1      46.368   4.121   8.063  0.00  0.00    +0.000 S 
BRANCH  12  18
ATOM     17  N   UNL     1      46.793   2.762   5.064  0.00  0.00    +0.000 N 
ATOM     18  C   UNL     1      47.151   2.107   6.250  0.00  0.00    +0.000 C 
ATOM     19  O   UNL     1      48.036   1.255   6.227  0.00  0.00    +0.000 OA
ATOM     20  H   UNL     1      47.275   2.560   4.185  0.00  0.00    +0.000 HD
ATOM     21  H   UNL     1      46.083   3.483   5.005  0.00  0.00    +0.000 HD
ENDBRANCH  12  18
ENDBRANCH   8  15
ENDBRANCH   7  10
ENDBRANCH   1   7
BRANCH   4  22
ATOM     22  C   UNL     1      49.374   8.674  15.302  0.00  0.00    +0.000 C 
BRANCH  22  23
ATOM     23  N   UNL     1      50.354   7.640  15.671  0.00  0.00    +0.000 N 
ATOM     24  C   UNL     1      50.450   7.122  16.966  0.00  0.00    +0.000 C 
ATOM     25  O   UNL     1      49.699   7.527  17.847  0.00  0.00    +0.000 OA
ATOM     26  H   UNL     1      50.938   7.281  14.935  0.00  0.00    +0.000 HD
BRANCH  24  27
ATOM     27  C   UNL     1      51.506   6.094  17.280  0.00  0.00    +0.000 A 
ATOM     28  C   UNL     1      52.801   6.486  17.637  0.00  0.00    +0.000 A 
ATOM     29  S   UNL     1      53.816   5.145  18.028  0.00  0.00    +0.000 S 
ATOM     30  C   UNL     1      52.599   3.970  17.771  0.00  0.00    +0.000 A 
ATOM     31  N   UNL     1      52.761   2.620  17.913  0.00  0.00    +0.000 NA
ATOM     32  C   UNL     1      51.693   2.059  17.645  0.00  0.00    +0.000 A 
ATOM     33  N   UNL     1      50.620   1.468  17.378  0.00  0.00    +0.000 N 
ATOM     34  C   UNL     1      50.268   3.349  17.102  0.00  0.00    +0.000 A 
ATOM     35  O   UNL     1      49.281   4.028  16.773  0.00  0.00    +0.000 OA
ATOM     36  C   UNL     1      51.410   4.525  17.379  0.00  0.00    +0.000 A 
ATOM     37  H   UNL     1      51.294   0.511  17.654  0.00  0.00    +0.000 HD
ENDBRANCH  24  27
ENDBRANCH  22  23
ENDBRANCH   4  22
TORSDOF 7
ENDMDL
MODEL 4
REMARK VINA RESULT:    -6.787      2.304      2.708
REMARK INTER + INTRA:         -10.376
REMARK INTER:                  -9.425
REMARK INTRA:                  -0.951
REMARK UNBOUND:                -0.812
REMARK  Name = 
REMARK  7 active torsions:
REMARK  status: ('A' for Active; 'I' for Inactive)
REMARK    1  A    between atoms: C_2  and  C_4
REMARK    2  A    between atoms: C_7  and  C_8
REMARK    3  A    between atoms: N_10  and  C_11
REMARK    4  A    between atoms: C_11  and  C_12
REMARK    5  A    between atoms: C_15  and  C_16
REMARK    6  A    between atoms: C_16  and  N_17
REMARK    7  A    between atoms: C_18  and  C_20
REMARK                            x       y       z     vdW  Elec       q    Type
REMARK                         _______ _______ _______ _____ _____    ______ ____
ROOT
ATOM      1  C   UNL     1      45.751   7.921  12.085  0.00  0.00    +0.000 A 
ATOM      2  C   UNL     1      45.985   9.255  11.824  0.00  0.00    +0.000 A 
ATOM      3  C   UNL     1      46.919   9.965  12.543  0.00  0.00    +0.000 A 
ATOM      4  C   UNL     1      47.684   9.380  13.523  0.00  0.00    +0.000 A 
ATOM      5  C   UNL     1      47.387   8.063  13.821  0.00  0.00    +0.000 A 
ATOM      6  C   UNL     1      46.550   7.297  13.021  0.00  0.00    +0.000 A 
ENDROOT
BRANCH   1   7
ATOM      7  C   UNL     1      44.657   7.210  11.353  0.00  0.00    +0.000 C 
BRANCH   7  10
ATOM      8  C   UNL     1      44.325   4.989  10.224  0.00  0.00    +0.000 C 
ATOM      9  O   UNL     1      43.150   4.981  10.585  0.00  0.00    +0.000 OA
ATOM     10  N   UNL     1      45.154   6.076  10.569  0.00  0.00    +0.000 N 
ATOM     11  H   UNL     1      46.126   6.127  10.289  0.00  0.00    +0.000 HD
BRANCH   8  15
ATOM     12  C   UNL     1      46.164   2.431   7.760  0.00  0.00    +0.000 A 
ATOM     13  C   UNL     1      45.383   1.723   8.649  0.00  0.00    +0.000 A 
ATOM     14  C   UNL     1      44.678   2.539   9.572  0.00  0.00    +0.000 A 
ATOM     15  C   UNL     1      44.917   3.886   9.435  0.00  0.00    +0.000 A 
ATOM     16  S   UNL     1      46.071   4.126   8.146  0.00  0.00    +0.000 S 
BRANCH  12  18
ATOM     17  N   UNL     1      47.381   2.854   5.664  0.00  0.00    +0.000 N 
ATOM     18  C   UNL     1      46.959   1.924   6.624  0.00  0.00    +0.000 C 
ATOM     19  O   UNL     1      47.253   0.738   6.488  0.00  0.00    +0.000 OA
ATOM     20  H   UNL     1      47.953   2.564   4.867  0.00  0.00    +0.000 HD
ATOM     21  H   UNL     1      47.189   3.847   5.713  0.00  0.00    +0.000 HD
ENDBRANCH  12  18
ENDBRANCH   8  15
ENDBRANCH   7  10
ENDBRANCH   1   7
BRANCH   4  22
ATOM     22  C   UNL     1      48.813  10.109  14.204  0.00  0.00    +0.000 C 
BRANCH  22  23
ATOM     23  N   UNL     1      49.712   9.214  14.951  0.00  0.00    +0.000 N 
ATOM     24  C   UNL     1      50.834   8.617  14.368  0.00  0.00    +0.000 C 
ATOM     25  O   UNL     1      51.102   8.830  13.191  0.00  0.00    +0.000 OA
ATOM     26  H   UNL     1      49.512   9.078  15.927  0.00  0.00    +0.000 HD
BRANCH  24  27
ATOM     27  C   UNL     1      51.686   7.680  15.184  0.00  0.00    +0.000 A 
ATOM     28  C   UNL     1      53.083   7.749  15.124  0.00  0.00    +0.000 A 
ATOM     29  S   UNL     1      53.849   6.636  16.199  0.00  0.00    +0.000 S 
ATOM     30  C   UNL     1      52.383   6.013  16.822  0.00  0.00    +0.000 A 
ATOM     31  N   UNL     1      52.280   5.032  17.769  0.00  0.00    +0.000 NA
ATOM     32  C   UNL     1      51.084   4.812  17.989  0.00  0.00    +0.000 A 
ATOM     33  N   UNL     1      49.876   4.572  18.228  0.00  0.00    +0.000 N 
ATOM     34  C   UNL     1      49.881   5.936  16.857  0.00  0.00    +0.000 A 
ATOM     35  O   UNL     1      49.014   6.581  16.244  0.00  0.00    +0.000 OA
ATOM     36  C   UNL     1      51.283   6.596  16.253  0.00  0.00    +0.000 A 
ATOM     37  H   UNL     1      50.375   3.793  18.995  0.00  0.00    +0.000 HD
ENDBRANCH  24  27
ENDBRANCH  22  23
ENDBRANCH   4  22
TORSDOF 7
ENDMDL
MODEL 5
REMARK VINA RESULT:    -6.723      6.127      8.579
REMARK INTER + INTRA:         -10.286
REMARK INTER:                  -9.350
REMARK INTRA:                  -0.936
REMARK UNBOUND:                -0.812
REMARK  Name = 
REMARK  7 active torsions:
REMARK  status: ('A' for Active; 'I' for Inactive)
REMARK    1  A    between atoms: C_2  and  C_4
REMARK    2  A    between atoms: C_7  and  C_8
REMARK    3  A    between atoms: N_10  and  C_11
REMARK    4  A    between atoms: C_11  and  C_12
REMARK    5  A    between atoms: C_15  and  C_16
REMARK    6  A    between atoms: C_16  and  N_17
REMARK    7  A    between atoms: C_18  and  C_20
REMARK                            x       y       z     vdW  Elec       q    Type
REMARK                         _______ _______ _______ _____ _____    ______ ____
ROOT
ATOM      1  C   UNL     1      48.653   3.188  17.117  0.00  0.00    +0.000 A 
ATOM      2  C   UNL     1      49.312   4.166  17.833  0.00  0.00    +0.000 A 
ATOM      3  C   UNL     1      50.642   4.031  18.161  0.00  0.00    +0.000 A 
ATOM      4  C   UNL     1      51.384   2.945  17.764  0.00  0.00    +0.000 A 
ATOM      5  C   UNL     1      50.692   1.942  17.109  0.00  0.00    +0.000 A 
ATOM      6  C   UNL     1      49.392   2.119  16.654  0.00  0.00    +0.000 A 
ENDROOT
BRANCH   1   7
ATOM      7  C   UNL     1      47.184   3.324  16.869  0.00  0.00    +0.000 C 
BRANCH   7  10
ATOM      8  C   UNL     1      46.955   4.179  14.517  0.00  0.00    +0.000 C 
ATOM      9  O   UNL     1      47.294   3.080  14.083  0.00  0.00    +0.000 OA
ATOM     10  N   UNL     1      46.875   4.387  15.910  0.00  0.00    +0.000 N 
ATOM     11  H   UNL     1      46.596   5.274  16.310  0.00  0.00    +0.000 HD
BRANCH   8  15
ATOM     12  C   UNL     1      45.517   7.068  12.154  0.00  0.00    +0.000 A 
ATOM     13  C   UNL     1      46.893   7.138  12.169  0.00  0.00    +0.000 A 
ATOM     14  C   UNL     1      47.511   6.149  12.979  0.00  0.00    +0.000 A 
ATOM     15  C   UNL     1      46.630   5.314  13.625  0.00  0.00    +0.000 A 
ATOM     16  S   UNL     1      44.999   5.802  13.231  0.00  0.00    +0.000 S 
BRANCH  12  18
ATOM     17  N   UNL     1      43.363   7.257  10.979  0.00  0.00    +0.000 N 
ATOM     18  C   UNL     1      44.561   7.872  11.367  0.00  0.00    +0.000 C 
ATOM     19  O   UNL     1      44.776   9.038  11.041  0.00  0.00    +0.000 OA
ATOM     20  H   UNL     1      42.654   7.771  10.451  0.00  0.00    +0.000 HD
ATOM     21  H   UNL     1      43.110   6.306  11.219  0.00  0.00    +0.000 HD
ENDBRANCH  12  18
ENDBRANCH   8  15
ENDBRANCH   7  10
ENDBRANCH   1   7
BRANCH   4  22
ATOM     22  C   UNL     1      52.872   2.865  17.982  0.00  0.00    +0.000 C 
BRANCH  22  23
ATOM     23  N   UNL     1      53.382   1.484  17.994  0.00  0.00    +0.000 N 
ATOM     24  C   UNL     1      54.264   1.016  18.972  0.00  0.00    +0.000 C 
ATOM     25  O   UNL     1      54.642   1.764  19.867  0.00  0.00    +0.000 OA
ATOM     26  H   UNL     1      53.035   0.863  17.283  0.00  0.00    +0.000 HD
BRANCH  24  27
ATOM     27  C   UNL     1      54.777  -0.399  18.897  0.00  0.00    +0.000 A 
ATOM     28  C   UNL     1      54.986  -1.146  20.062  0.00  0.00    +0.000 A 
ATOM     29  S   UNL     1      55.498  -2.762  19.731  0.00  0.00    +0.000 S 
ATOM     30  C   UNL     1      55.453  -2.577  18.032  0.00  0.00    +0.000 A 
ATOM     31  N   UNL     1      55.773  -3.545  17.122  0.00  0.00    +0.000 NA
ATOM     32  C   UNL     1      55.642  -3.084  15.983  0.00  0.00    +0.000 A 
ATOM     33  N   UNL     1      55.516  -2.637  14.818  0.00  0.00    +0.000 N 
ATOM     34  C   UNL     1      55.076  -1.168  15.996  0.00  0.00    +0.000 A 
ATOM     35  O   UNL     1      54.703   0.007  15.848  0.00  0.00    +0.000 OA
ATOM     36  C   UNL     1      55.069  -1.318  17.652  0.00  0.00    +0.000 A 
ATOM     37  H   UNL     1      55.861  -3.757  14.550  0.00  0.00    +0.000 HD
ENDBRANCH  24  27
ENDBRANCH  22  23
ENDBRANCH   4  22
TORSDOF 7
ENDMDL
MODEL 6
REMARK VINA RESULT:    -6.546      6.788      9.420
REMARK INTER + INTRA:         -10.037
REMARK INTER:                  -9.039
REMARK INTRA:                  -0.998
REMARK UNBOUND:                -0.812
REMARK  Name = 
REMARK  7 active torsions:
REMARK  status: ('A' for Active; 'I' for Inactive)
REMARK    1  A    between atoms: C_2  and  C_4
REMARK    2  A    between atoms: C_7  and  C_8
REMARK    3  A    between atoms: N_10  and  C_11
REMARK    4  A    between atoms: C_11  and  C_12
REMARK    5  A    between atoms: C_15  and  C_16
REMARK    6  A    between atoms: C_16  and  N_17
REMARK    7  A    between atoms: C_18  and  C_20
REMARK                            x       y       z     vdW  Elec       q    Type
REMARK                         _______ _______ _______ _____ _____    ______ ____
ROOT
ATOM      1  C   UNL     1      50.178   3.410  17.689  0.00  0.00    +0.000 A 
ATOM      2  C   UNL     1      51.391   3.926  18.094  0.00  0.00    +0.000 A 
ATOM      3  C   UNL     1      52.530   3.153  18.083  0.00  0.00    +0.000 A 
ATOM      4  C   UNL     1      52.525   1.854  17.637  0.00  0.00    +0.000 A 
ATOM      5  C   UNL     1      51.290   1.330  17.303  0.00  0.00    +0.000 A 
ATOM      6  C   UNL     1      50.160   2.128  17.179  0.00  0.00    +0.000 A 
ENDROOT
BRANCH   1   7
ATOM      7  C   UNL     1      48.945   4.248  17.812  0.00  0.00    +0.000 C 
BRANCH   7  10
ATOM      8  C   UNL     1      47.446   4.419  15.802  0.00  0.00    +0.000 C 
ATOM      9  O   UNL     1      46.771   3.483  16.225  0.00  0.00    +0.000 OA
ATOM     10  N   UNL     1      48.560   4.867  16.541  0.00  0.00    +0.000 N 
ATOM     11  H   UNL     1      49.141   5.637  16.233  0.00  0.00    +0.000 HD
BRANCH   8  15
ATOM     12  C   UNL     1      46.203   5.848  12.279  0.00  0.00    +0.000 A 
ATOM     13  C   UNL     1      47.296   6.574  12.703  0.00  0.00    +0.000 A 
ATOM     14  C   UNL     1      47.824   6.146  13.950  0.00  0.00    +0.000 A 
ATOM     15  C   UNL     1      47.139   5.102  14.525  0.00  0.00    +0.000 A 
ATOM     16  S   UNL     1      45.792   4.675  13.497  0.00  0.00    +0.000 S 
BRANCH  12  18
ATOM     17  N   UNL     1      44.205   6.581  11.045  0.00  0.00    +0.000 N 
ATOM     18  C   UNL     1      45.460   5.958  11.008  0.00  0.00    +0.000 C 
ATOM     19  O   UNL     1      45.890   5.526   9.941  0.00  0.00    +0.000 OA
ATOM     20  H   UNL     1      43.654   6.705  10.192  0.00  0.00    +0.000 HD
ATOM     21  H   UNL     1      43.789   6.971  11.882  0.00  0.00    +0.000 HD
ENDBRANCH  12  18
ENDBRANCH   8  15
ENDBRANCH   7  10
ENDBRANCH   1   7
BRANCH   4  22
ATOM     22  C   UNL     1      53.792   1.055  17.475  0.00  0.00    +0.000 C 
BRANCH  22  23
ATOM     23  N   UNL     1      53.607  -0.383  17.731  0.00  0.00    +0.000 N 
ATOM     24  C   UNL     1      54.064  -1.004  18.897  0.00  0.00    +0.000 C 
ATOM     25  O   UNL     1      54.643  -0.349  19.756  0.00  0.00    +0.000 OA
ATOM     26  H   UNL     1      53.092  -0.906  17.043  0.00  0.00    +0.000 HD
BRANCH  24  27
ATOM     27  C   UNL     1      53.874  -2.489  19.072  0.00  0.00    +0.000 A 
ATOM     28  C   UNL     1      53.304  -3.003  20.243  0.00  0.00    +0.000 A 
ATOM     29  S   UNL     1      53.114  -4.718  20.189  0.00  0.00    +0.000 S 
ATOM     30  C   UNL     1      53.752  -4.880  18.611  0.00  0.00    +0.000 A 
ATOM     31  N   UNL     1      53.897  -6.059  17.933  0.00  0.00    +0.000 NA
ATOM     32  C   UNL     1      54.393  -5.826  16.826  0.00  0.00    +0.000 A 
ATOM     33  N   UNL     1      54.897  -5.613  15.697  0.00  0.00    +0.000 N 
ATOM     34  C   UNL     1      54.786  -3.885  16.559  0.00  0.00    +0.000 A 
ATOM     35  O   UNL     1      55.059  -2.716  16.241  0.00  0.00    +0.000 OA
ATOM     36  C   UNL     1      54.135  -3.680  18.075  0.00  0.00    +0.000 A 
ATOM     37  H   UNL     1      54.770  -6.806  15.621  0.00  0.00    +0.000 HD
ENDBRANCH  24  27
ENDBRANCH  22  23
ENDBRANCH   4  22
TORSDOF 7
ENDMDL
MODEL 7
REMARK VINA RESULT:    -6.425      3.569      4.926
REMARK INTER + INTRA:          -9.865
REMARK INTER:                  -8.795
REMARK INTRA:                  -1.071
REMARK UNBOUND:                -0.812
REMARK  Name = 
REMARK  7 active torsions:
REMARK  status: ('A' for Active; 'I' for Inactive)
REMARK    1  A    between atoms: C_2  and  C_4
REMARK    2  A    between atoms: C_7  and  C_8
REMARK    3  A    between atoms: N_10  and  C_11
REMARK    4  A    between atoms: C_11  and  C_12
REMARK    5  A    between atoms: C_15  and  C_16
REMARK    6  A    between atoms: C_16  and  N_17
REMARK    7  A    between atoms: C_18  and  C_20
REMARK                            x       y       z     vdW  Elec       q    Type
REMARK                         _______ _______ _______ _____ _____    ______ ____
ROOT
ATOM      1  C   UNL     1      48.784   8.762  13.571  0.00  0.00    +0.000 A 
ATOM      2  C   UNL     1      48.680   9.711  14.567  0.00  0.00    +0.000 A 
ATOM      3  C   UNL     1      49.258   9.511  15.800  0.00  0.00    +0.000 A 
ATOM      4  C   UNL     1      49.991   8.385  16.088  0.00  0.00    +0.000 A 
ATOM      5  C   UNL     1      50.025   7.414  15.105  0.00  0.00    +0.000 A 
ATOM      6  C   UNL     1      49.567   7.653  13.816  0.00  0.00    +0.000 A 
ENDROOT
BRANCH   1   7
ATOM      7  C   UNL     1      48.058   8.970  12.280  0.00  0.00    +0.000 C 
BRANCH   7  10
ATOM      8  C   UNL     1      45.779   7.911  12.245  0.00  0.00    +0.000 C 
ATOM      9  O   UNL     1      45.304   8.912  12.779  0.00  0.00    +0.000 OA
ATOM     10  N   UNL     1      47.159   7.859  11.959  0.00  0.00    +0.000 N 
ATOM     11  H   UNL     1      47.590   7.057  11.517  0.00  0.00    +0.000 HD
BRANCH   8  15
ATOM     12  C   UNL     1      44.033   4.425  11.352  0.00  0.00    +0.000 A 
ATOM     13  C   UNL     1      43.123   5.445  11.179  0.00  0.00    +0.000 A 
ATOM     14  C   UNL     1      43.642   6.735  11.466  0.00  0.00    +0.000 A 
ATOM     15  C   UNL     1      44.950   6.737  11.890  0.00  0.00    +0.000 A 
ATOM     16  S   UNL     1      45.524   5.089  11.959  0.00  0.00    +0.000 S 
BRANCH  12  18
ATOM     17  N   UNL     1      44.834   2.370  10.262  0.00  0.00    +0.000 N 
ATOM     18  C   UNL     1      43.869   2.985  11.071  0.00  0.00    +0.000 C 
ATOM     19  O   UNL     1      42.932   2.320  11.508  0.00  0.00    +0.000 OA
ATOM     20  H   UNL     1      44.784   1.370  10.051  0.00  0.00    +0.000 HD
ATOM     21  H   UNL     1      45.639   2.848   9.875  0.00  0.00    +0.000 HD
ENDBRANCH  12  18
ENDBRANCH   8  15
ENDBRANCH   7  10
ENDBRANCH   1   7
BRANCH   4  22
ATOM     22  C   UNL     1      50.754   8.231  17.378  0.00  0.00    +0.000 C 
BRANCH  22  23
ATOM     23  N   UNL     1      51.358   6.898  17.538  0.00  0.00    +0.000 N 
ATOM     24  C   UNL     1      51.943   6.476  18.735  0.00  0.00    +0.000 C 
ATOM     25  O   UNL     1      51.967   7.225  19.705  0.00  0.00    +0.000 OA
ATOM     26  H   UNL     1      51.296   6.272  16.752  0.00  0.00    +0.000 HD
BRANCH  24  27
ATOM     27  C   UNL     1      52.578   5.111  18.812  0.00  0.00    +0.000 A 
ATOM     28  C   UNL     1      53.744   4.907  19.559  0.00  0.00    +0.000 A 
ATOM     29  S   UNL     1      54.244   3.255  19.569  0.00  0.00    +0.000 S 
ATOM     30  C   UNL     1      52.941   2.708  18.606  0.00  0.00    +0.000 A 
ATOM     31  N   UNL     1      52.735   1.416  18.212  0.00  0.00    +0.000 NA
ATOM     32  C   UNL     1      51.711   1.365  17.522  0.00  0.00    +0.000 A 
ATOM     33  N   UNL     1      50.675   1.290  16.819  0.00  0.00    +0.000 N 
ATOM     34  C   UNL     1      50.870   3.160  17.272  0.00  0.00    +0.000 A 
ATOM     35  O   UNL     1      50.224   4.198  17.053  0.00  0.00    +0.000 OA
ATOM     36  C   UNL     1      52.100   3.725  18.238  0.00  0.00    +0.000 A 
ATOM     37  H   UNL     1      50.988   0.129  16.812  0.00  0.00    +0.000 HD
ENDBRANCH  24  27
ENDBRANCH  22  23
ENDBRANCH   4  22
TORSDOF 7
ENDMDL
MODEL 8
REMARK VINA RESULT:    -6.315      6.267      8.675
REMARK INTER + INTRA:          -9.710
REMARK INTER:                  -9.322
REMARK INTRA:                  -0.388
REMARK UNBOUND:                -0.812
REMARK  Name = 
REMARK  7 active torsions:
REMARK  status: ('A' for Active; 'I' for Inactive)
REMARK    1  A    between atoms: C_2  and  C_4
REMARK    2  A    between atoms: C_7  and  C_8
REMARK    3  A    between atoms: N_10  and  C_11
REMARK    4  A    between atoms: C_11  and  C_12
REMARK    5  A    between atoms: C_15  and  C_16
REMARK    6  A    between atoms: C_16  and  N_17
REMARK    7  A    between atoms: C_18  and  C_20
REMARK                            x       y       z     vdW  Elec       q    Type
REMARK                         _______ _______ _______ _____ _____    ______ ____
ROOT
ATOM      1  C   UNL     1      48.838   3.194  17.411  0.00  0.00    +0.000 A 
ATOM      2  C   UNL     1      49.676   4.001  18.151  0.00  0.00    +0.000 A 
ATOM      3  C   UNL     1      51.009   3.691  18.302  0.00  0.00    +0.000 A 
ATOM      4  C   UNL     1      51.575   2.595  17.698  0.00  0.00    +0.000 A 
ATOM      5  C   UNL     1      50.708   1.759  17.020  0.00  0.00    +0.000 A 
ATOM      6  C   UNL     1      49.397   2.123  16.745  0.00  0.00    +0.000 A 
ENDROOT
BRANCH   1   7
ATOM      7  C   UNL     1      47.376   3.507  17.355  0.00  0.00    +0.000 C 
BRANCH   7  10
ATOM      8  C   UNL     1      47.418   4.966  15.309  0.00  0.00    +0.000 C 
ATOM      9  O   UNL     1      48.246   5.698  15.847  0.00  0.00    +0.000 OA
ATOM     10  N   UNL     1      46.927   3.839  16.001  0.00  0.00    +0.000 N 
ATOM     11  H   UNL     1      46.248   3.208  15.594  0.00  0.00    +0.000 HD
BRANCH   8  15
ATOM     12  C   UNL     1      45.678   5.196  11.715  0.00  0.00    +0.000 A 
ATOM     13  C   UNL     1      46.668   6.152  11.802  0.00  0.00    +0.000 A 
ATOM     14  C   UNL     1      47.357   6.155  13.043  0.00  0.00    +0.000 A 
ATOM     15  C   UNL     1      46.901   5.226  13.947  0.00  0.00    +0.000 A 
ATOM     16  S   UNL     1      45.563   4.356  13.235  0.00  0.00    +0.000 S 
BRANCH  12  18
ATOM     17  N   UNL     1      43.577   5.481  10.467  0.00  0.00    +0.000 N 
ATOM     18  C   UNL     1      44.826   4.853  10.559  0.00  0.00    +0.000 C 
ATOM     19  O   UNL     1      45.164   4.047   9.694  0.00  0.00    +0.000 OA
ATOM     20  H   UNL     1      42.954   5.299   9.677  0.00  0.00    +0.000 HD
ATOM     21  H   UNL     1      43.235   6.164  11.132  0.00  0.00    +0.000 HD
ENDBRANCH  12  18
ENDBRANCH   8  15
ENDBRANCH   7  10
ENDBRANCH   1   7
BRANCH   4  22
ATOM     22  C   UNL     1      53.059   2.338  17.729  0.00  0.00    +0.000 C 
BRANCH  22  23
ATOM     23  N   UNL     1      53.414   0.953  17.379  0.00  0.00    +0.000 N 
ATOM     24  C   UNL     1      54.121   0.115  18.246  0.00  0.00    +0.000 C 
ATOM     25  O   UNL     1      54.469   0.524  19.348  0.00  0.00    +0.000 OA
ATOM     26  H   UNL     1      53.088   0.608  16.492  0.00  0.00    +0.000 HD
BRANCH  24  27
ATOM     27  C   UNL     1      54.484  -1.279  17.804  0.00  0.00    +0.000 A 
ATOM     28  C   UNL     1      55.276  -1.484  16.667  0.00  0.00    +0.000 A 
ATOM     29  S   UNL     1      55.629  -3.152  16.398  0.00  0.00    +0.000 S 
ATOM     30  C   UNL     1      54.776  -3.700  17.776  0.00  0.00    +0.000 A 
ATOM     31  N   UNL     1      54.650  -5.006  18.161  0.00  0.00    +0.000 NA
ATOM     32  C   UNL     1      53.969  -5.055  19.190  0.00  0.00    +0.000 A 
ATOM     33  N   UNL     1      53.279  -5.130  20.236  0.00  0.00    +0.000 N 
ATOM     34  C   UNL     1      53.345  -3.252  19.781  0.00  0.00    +0.000 A 
ATOM     35  O   UNL     1      52.909  -2.201  20.282  0.00  0.00    +0.000 OA
ATOM     36  C   UNL     1      54.196  -2.675  18.473  0.00  0.00    +0.000 A 
ATOM     37  H   UNL     1      53.513  -6.299  20.085  0.00  0.00    +0.000 HD
ENDBRANCH  24  27
ENDBRANCH  22  23
ENDBRANCH   4  22
TORSDOF 7
ENDMDL
MODEL 9
REMARK VINA RESULT:    -5.946      5.931      9.239
REMARK INTER + INTRA:          -9.190
REMARK INTER:                  -8.267
REMARK INTRA:                  -0.924
REMARK UNBOUND:                -0.812
REMARK  Name = 
REMARK  7 active torsions:
REMARK  status: ('A' for Active; 'I' for Inactive)
REMARK    1  A    between atoms: C_2  and  C_4
REMARK    2  A    between atoms: C_7  and  C_8
REMARK    3  A    between atoms: N_10  and  C_11
REMARK    4  A    between atoms: C_11  and  C_12
REMARK    5  A    between atoms: C_15  and  C_16
REMARK    6  A    between atoms: C_16  and  N_17
REMARK    7  A    between atoms: C_18  and  C_20
REMARK                            x       y       z     vdW  Elec       q    Type
REMARK                         _______ _______ _______ _____ _____    ______ ____
ROOT
ATOM      1  C   UNL     1      49.769   8.950  12.589  0.00  0.00    +0.000 A 
ATOM      2  C   UNL     1      49.978   9.614  11.398  0.00  0.00    +0.000 A 
ATOM      3  C   UNL     1      51.245   9.763  10.882  0.00  0.00    +0.000 A 
ATOM      4  C   UNL     1      52.351   9.231  11.499  0.00  0.00    +0.000 A 
ATOM      5  C   UNL     1      52.133   8.631  12.726  0.00  0.00    +0.000 A 
ATOM      6  C   UNL     1      50.856   8.354  13.195  0.00  0.00    +0.000 A 
ENDROOT
BRANCH   1   7
ATOM      7  C   UNL     1      48.391   8.898  13.169  0.00  0.00    +0.000 C 
BRANCH   7  10
ATOM      8  C   UNL     1      46.553   7.380  12.373  0.00  0.00    +0.000 C 
ATOM      9  O   UNL     1      45.969   8.344  11.881  0.00  0.00    +0.000 OA
ATOM     10  N   UNL     1      47.780   7.573  13.041  0.00  0.00    +0.000 N 
ATOM     11  H   UNL     1      48.296   6.807  13.456  0.00  0.00    +0.000 HD
BRANCH   8  15
ATOM     12  C   UNL     1      44.821   3.843  11.675  0.00  0.00    +0.000 A 
ATOM     13  C   UNL     1      45.467   3.800  12.892  0.00  0.00    +0.000 A 
ATOM     14  C   UNL     1      46.117   5.013  13.243  0.00  0.00    +0.000 A 
ATOM     15  C   UNL     1      46.009   6.006  12.299  0.00  0.00    +0.000 A 
ATOM     16  S   UNL     1      45.104   5.394  10.936  0.00  0.00    +0.000 S 
BRANCH  12  18
ATOM     17  N   UNL     1      44.430   2.271   9.824  0.00  0.00    +0.000 N 
ATOM     18  C   UNL     1      43.983   2.808  11.038  0.00  0.00    +0.000 C 
ATOM     19  O   UNL     1      42.925   2.411  11.523  0.00  0.00    +0.000 OA
ATOM     20  H   UNL     1      43.903   1.535   9.348  0.00  0.00    +0.000 HD
ATOM     21  H   UNL     1      45.296   2.537   9.370  0.00  0.00    +0.000 HD
ENDBRANCH  12  18
ENDBRANCH   8  15
ENDBRANCH   7  10
ENDBRANCH   1   7
BRANCH   4  22
ATOM     22  C   UNL     1      53.716   9.253  10.862  0.00  0.00    +0.000 C 
BRANCH  22  23
ATOM     23  N   UNL     1      53.769   8.531   9.581  0.00  0.00    +0.000 N 
ATOM     24  C   UNL     1      54.811   8.700   8.665  0.00  0.00    +0.000 C 
ATOM     25  O   UNL     1      55.730   9.472   8.914  0.00  0.00    +0.000 OA
ATOM     26  H   UNL     1      53.036   7.866   9.401  0.00  0.00    +0.000 HD
BRANCH  24  27
ATOM     27  C   UNL     1      54.778   7.956   7.354  0.00  0.00    +0.000 A 
ATOM     28  C   UNL     1      55.269   8.548   6.184  0.00  0.00    +0.000 A 
ATOM     29  S   UNL     1      55.201   7.485   4.825  0.00  0.00    +0.000 S 
ATOM     30  C   UNL     1      54.541   6.175   5.705  0.00  0.00    +0.000 A 
ATOM     31  N   UNL     1      54.221   4.953   5.183  0.00  0.00    +0.000 NA
ATOM     32  C   UNL     1      53.761   4.242   6.082  0.00  0.00    +0.000 A 
ATOM     33  N   UNL     1      53.291   3.501   6.979  0.00  0.00    +0.000 N 
ATOM     34  C   UNL     1      53.661   5.196   7.834  0.00  0.00    +0.000 A 
ATOM     35  O   UNL     1      53.564   5.648   8.988  0.00  0.00    +0.000 OA
ATOM     36  C   UNL     1      54.339   6.480   7.025  0.00  0.00    +0.000 A 
ATOM     37  H   UNL     1      53.239   2.731   6.058  0.00  0.00    +0.000 HD
ENDBRANCH  24  27
ENDBRANCH  22  23
ENDBRANCH   4  22
TORSDOF 7
ENDMDL
