MODEL 1
REMARK VINA RESULT:    -7.563      0.000      0.000
REMARK INTER + INTRA:         -11.060
REMARK INTER:                 -10.215
REMARK INTRA:                  -0.845
REMARK UNBOUND:                -0.845
REMARK  Name = 
REMARK  6 active torsions:
REMARK  status: ('A' for Active; 'I' for Inactive)
REMARK    1  A    between atoms: C_2  and  C_3
REMARK    2  A    between atoms: C_7  and  O_8
REMARK    3  A    between atoms: O_8  and  C_9
REMARK    4  A    between atoms: C_12  and  C_13
REMARK    5  A    between atoms: C_13  and  N_14
REMARK    6  A    between atoms: C_15  and  C_17
REMARK                            x       y       z     vdW  Elec       q    Type
REMARK                         _______ _______ _______ _____ _____    ______ ____
ROOT
ATOM      1  C   UNL     1      47.477   8.360  13.646  0.00  0.00    +0.000 C 
ENDROOT
BRANCH   1   5
ATOM      2  C   UNL     1      44.800   6.312  11.079  0.00  0.00    +0.000 A 
ATOM      3  C   UNL     1      46.082   5.800  11.201  0.00  0.00    +0.000 A 
ATOM      4  C   UNL     1      46.985   6.468  12.025  0.00  0.00    +0.000 A 
ATOM      5  C   UNL     1      46.577   7.622  12.702  0.00  0.00    +0.000 A 
ATOM      6  C   UNL     1      45.294   8.093  12.448  0.00  0.00    +0.000 A 
ATOM      7  N   UNL     1      44.403   7.473  11.651  0.00  0.00    +0.000 NA
BRANCH   2   8
ATOM      8  O   UNL     1      43.894   5.581  10.321  0.00  0.00    +0.000 OA
BRANCH   8  13
ATOM      9  C   UNL     1      45.509   3.183   8.089  0.00  0.00    +0.000 A 
ATOM     10  C   UNL     1      45.252   1.967   8.732  0.00  0.00    +0.000 A 
ATOM     11  C   UNL     1      44.541   1.948   9.932  0.00  0.00    +0.000 A 
ATOM     12  C   UNL     1      44.086   3.143  10.488  0.00  0.00    +0.000 A 
ATOM     13  C   UNL     1      44.305   4.359   9.831  0.00  0.00    +0.000 A 
ATOM     14  C   UNL     1      45.041   4.381   8.644  0.00  0.00    +0.000 A 
BRANCH   9  16
ATOM     15  N   UNL     1      46.843   3.216   5.865  0.00  0.00    +0.000 NA
ATOM     16  C   UNL     1      46.247   3.201   6.862  0.00  0.00    +0.000 C 
ENDBRANCH   9  16
ENDBRANCH   8  13
ENDBRANCH   2   8
ENDBRANCH   1   5
BRANCH   1  17
ATOM     17  N   UNL     1      47.792   7.561  14.798  0.00  0.00    +0.000 N 
ATOM     18  C   UNL     1      49.061   7.082  15.000  0.00  0.00    +0.000 C 
ATOM     19  O   UNL     1      49.985   7.346  14.235  0.00  0.00    +0.000 OA
ATOM     20  H   UNL     1      47.019   7.134  15.299  0.00  0.00    +0.000 HD
BRANCH  18  21
ATOM     21  C   UNL     1      49.270   6.296  16.220  0.00  0.00    +0.000 A 
ATOM     22  C   UNL     1      50.266   6.666  17.115  0.00  0.00    +0.000 A 
ATOM     23  S   UNL     1      50.315   5.697  18.517  0.00  0.00    +0.000 S 
ATOM     24  C   UNL     1      49.048   4.714  17.951  0.00  0.00    +0.000 A 
ATOM     25  N   UNL     1      48.598   3.658  18.681  0.00  0.00    +0.000 NA
ATOM     26  C   UNL     1      47.661   2.974  18.113  0.00  0.00    +0.000 A 
ATOM     27  N   UNL     1      47.130   3.254  16.880  0.00  0.00    +0.000 N 
ATOM     28  C   UNL     1      47.526   4.329  16.123  0.00  0.00    +0.000 A 
ATOM     29  O   UNL     1      46.996   4.585  15.046  0.00  0.00    +0.000 OA
ATOM     30  C   UNL     1      48.586   5.124  16.713  0.00  0.00    +0.000 A 
ATOM     31  H   UNL     1      46.393   2.680  16.493  0.00  0.00    +0.000 HD
ENDBRANCH  18  21
ENDBRANCH   1  17
TORSDOF 6
ENDMDL
MODEL 2
REMARK VINA RESULT:    -7.371      2.642      4.402
REMARK INTER + INTRA:         -10.801
REMARK INTER:                  -9.726
REMARK INTRA:                  -1.075
REMARK UNBOUND:                -0.845
REMARK  Name = 
REMARK  6 active torsions:
REMARK  status: ('A' for Active; 'I' for Inactive)
REMARK    1  A    between atoms: C_2  and  C_3
REMARK    2  A    between atoms: C_7  and  O_8
REMARK    3  A    between atoms: O_8  and  C_9
REMARK    4  A    between atoms: C_12  and  C_13
REMARK    5  A    between atoms: C_13  and  N_14
REMARK    6  A    between atoms: C_15  and  C_17
REMARK                            x       y       z     vdW  Elec       q    Type
REMARK                         _______ _______ _______ _____ _____    ______ ____
ROOT
ATOM      1  C   UNL     1      47.141   5.156  14.790  0.00  0.00    +0.000 C 
ENDROOT
BRANCH   1   5
ATOM      2  C   UNL     1      45.069   4.225  11.214  0.00  0.00    +0.000 A 
ATOM      3  C   UNL     1      45.372   5.557  11.445  0.00  0.00    +0.000 A 
ATOM      4  C   UNL     1      46.037   5.889  12.624  0.00  0.00    +0.000 A 
ATOM      5  C   UNL     1      46.379   4.880  13.529  0.00  0.00    +0.000 A 
ATOM      6  C   UNL     1      45.958   3.588  13.238  0.00  0.00    +0.000 A 
ATOM      7  N   UNL     1      45.309   3.239  12.111  0.00  0.00    +0.000 NA
BRANCH   2   8
ATOM      8  O   UNL     1      44.485   3.909   9.994  0.00  0.00    +0.000 OA
BRANCH   8  13
ATOM      9  C   UNL     1      46.360   1.661   7.811  0.00  0.00    +0.000 A 
ATOM     10  C   UNL     1      46.942   2.554   6.903  0.00  0.00    +0.000 A 
ATOM     11  C   UNL     1      46.694   3.922   7.013  0.00  0.00    +0.000 A 
ATOM     12  C   UNL     1      45.869   4.398   8.031  0.00  0.00    +0.000 A 
ATOM     13  C   UNL     1      45.316   3.515   8.966  0.00  0.00    +0.000 A 
ATOM     14  C   UNL     1      45.541   2.143   8.838  0.00  0.00    +0.000 A 
BRANCH   9  16
ATOM     15  N   UNL     1      46.812  -0.884   7.591  0.00  0.00    +0.000 NA
ATOM     16  C   UNL     1      46.608   0.256   7.689  0.00  0.00    +0.000 C 
ENDBRANCH   9  16
ENDBRANCH   8  13
ENDBRANCH   2   8
ENDBRANCH   1   5
BRANCH   1  17
ATOM     17  N   UNL     1      47.832   6.414  14.716  0.00  0.00    +0.000 N 
ATOM     18  C   UNL     1      48.980   6.634  15.434  0.00  0.00    +0.000 C 
ATOM     19  O   UNL     1      49.486   5.760  16.133  0.00  0.00    +0.000 OA
ATOM     20  H   UNL     1      47.318   7.212  14.354  0.00  0.00    +0.000 HD
BRANCH  18  21
ATOM     21  C   UNL     1      49.609   7.948  15.264  0.00  0.00    +0.000 A 
ATOM     22  C   UNL     1      49.885   8.727  16.379  0.00  0.00    +0.000 A 
ATOM     23  S   UNL     1      50.692  10.183  16.009  0.00  0.00    +0.000 S 
ATOM     24  C   UNL     1      50.647   9.850  14.342  0.00  0.00    +0.000 A 
ATOM     25  N   UNL     1      51.166  10.722  13.437  0.00  0.00    +0.000 NA
ATOM     26  C   UNL     1      51.026  10.362  12.204  0.00  0.00    +0.000 A 
ATOM     27  N   UNL     1      50.417   9.204  11.795  0.00  0.00    +0.000 N 
ATOM     28  C   UNL     1      49.911   8.276  12.672  0.00  0.00    +0.000 A 
ATOM     29  O   UNL     1      49.417   7.224  12.279  0.00  0.00    +0.000 OA
ATOM     30  C   UNL     1      50.033   8.640  14.071  0.00  0.00    +0.000 A 
ATOM     31  H   UNL     1      50.345   8.978  10.812  0.00  0.00    +0.000 HD
ENDBRANCH  18  21
ENDBRANCH   1  17
TORSDOF 6
ENDMDL
MODEL 3
REMARK VINA RESULT:    -6.897      3.460      8.708
REMARK INTER + INTRA:         -10.161
REMARK INTER:                  -9.138
REMARK INTRA:                  -1.023
REMARK UNBOUND:                -0.845
REMARK  Name = 
REMARK  6 active torsions:
REMARK  status: ('A' for Active; 'I' for Inactive)
REMARK    1  A    between atoms: C_2  and  C_3
REMARK    2  A    between atoms: C_7  and  O_8
REMARK    3  A    between atoms: O_8  and  C_9
REMARK    4  A    between atoms: C_12  and  C_13
REMARK    5  A    between atoms: C_13  and  N_14
REMARK    6  A    between atoms: C_15  and  C_17
REMARK                            x       y       z     vdW  Elec       q    Type
REMARK                         _______ _______ _______ _____ _____    ______ ____
ROOT
ATOM      1  C   UNL     1      47.291   3.414  16.677  0.00  0.00    +0.000 C 
ENDROOT
BRANCH   1   5
ATOM      2  C   UNL     1      51.074   4.633  18.145  0.00  0.00    +0.000 A 
ATOM      3  C   UNL     1      50.952   3.322  17.711  0.00  0.00    +0.000 A 
ATOM      4  C   UNL     1      49.712   2.894  17.242  0.00  0.00    +0.000 A 
ATOM      5  C   UNL     1      48.638   3.789  17.219  0.00  0.00    +0.000 A 
ATOM      6  C   UNL     1      48.848   5.056  17.750  0.00  0.00    +0.000 A 
ATOM      7  N   UNL     1      50.032   5.495  18.216  0.00  0.00    +0.000 NA
BRANCH   2   8
ATOM      8  O   UNL     1      52.340   5.060  18.526  0.00  0.00    +0.000 OA
BRANCH   8  13
ATOM      9  C   UNL     1      53.963   6.534  15.606  0.00  0.00    +0.000 A 
ATOM     10  C   UNL     1      55.125   5.762  15.496  0.00  0.00    +0.000 A 
ATOM     11  C   UNL     1      55.375   4.744  16.416  0.00  0.00    +0.000 A 
ATOM     12  C   UNL     1      54.466   4.497  17.443  0.00  0.00    +0.000 A 
ATOM     13  C   UNL     1      53.283   5.240  17.536  0.00  0.00    +0.000 A 
ATOM     14  C   UNL     1      53.045   6.277  16.632  0.00  0.00    +0.000 A 
BRANCH   9  16
ATOM     15  N   UNL     1      53.510   8.440  13.906  0.00  0.00    +0.000 NA
ATOM     16  C   UNL     1      53.712   7.585  14.666  0.00  0.00    +0.000 C 
ENDBRANCH   9  16
ENDBRANCH   8  13
ENDBRANCH   2   8
ENDBRANCH   1   5
BRANCH   1  17
ATOM     17  N   UNL     1      46.797   4.413  15.770  0.00  0.00    +0.000 N 
ATOM     18  C   UNL     1      46.815   4.208  14.414  0.00  0.00    +0.000 C 
ATOM     19  O   UNL     1      47.213   3.155  13.922  0.00  0.00    +0.000 OA
ATOM     20  H   UNL     1      46.697   5.359  16.123  0.00  0.00    +0.000 HD
BRANCH  18  21
ATOM     21  C   UNL     1      46.266   5.288  13.588  0.00  0.00    +0.000 A 
ATOM     22  C   UNL     1      47.005   6.447  13.392  0.00  0.00    +0.000 A 
ATOM     23  S   UNL     1      46.257   7.560  12.339  0.00  0.00    +0.000 S 
ATOM     24  C   UNL     1      44.895   6.559  12.157  0.00  0.00    +0.000 A 
ATOM     25  N   UNL     1      43.845   6.937  11.380  0.00  0.00    +0.000 NA
ATOM     26  C   UNL     1      42.861   6.100  11.364  0.00  0.00    +0.000 A 
ATOM     27  N   UNL     1      42.835   4.915  12.054  0.00  0.00    +0.000 N 
ATOM     28  C   UNL     1      43.885   4.474  12.822  0.00  0.00    +0.000 A 
ATOM     29  O   UNL     1      43.855   3.386  13.387  0.00  0.00    +0.000 OA
ATOM     30  C   UNL     1      45.012   5.386  12.881  0.00  0.00    +0.000 A 
ATOM     31  H   UNL     1      42.034   4.301  11.995  0.00  0.00    +0.000 HD
ENDBRANCH  18  21
ENDBRANCH   1  17
TORSDOF 6
ENDMDL
MODEL 4
REMARK VINA RESULT:    -6.870      2.530      8.316
REMARK INTER + INTRA:         -10.124
REMARK INTER:                  -9.314
REMARK INTRA:                  -0.811
REMARK UNBOUND:                -0.845
REMARK  Name = 
REMARK  6 active torsions:
REMARK  status: ('A' for Active; 'I' for Inactive)
REMARK    1  A    between atoms: C_2  and  C_3
REMARK    2  A    between atoms: C_7  and  O_8
REMARK    3  A    between atoms: O_8  and  C_9
REMARK    4  A    between atoms: C_12  and  C_13
REMARK    5  A    between atoms: C_13  and  N_14
REMARK    6  A    between atoms: C_15  and  C_17
REMARK                            x       y       z     vdW  Elec       q    Type
REMARK                         _______ _______ _______ _____ _____    ______ ____
ROOT
ATOM      1  C   UNL     1      46.694   7.900  12.022  0.00  0.00    +0.000 C 
ENDROOT
BRANCH   1   5
ATOM      2  C   UNL     1      49.325   7.738  15.338  0.00  0.00    +0.000 A 
ATOM      3  C   UNL     1      48.381   8.752  15.324  0.00  0.00    +0.000 A 
ATOM      4  C   UNL     1      47.517   8.836  14.235  0.00  0.00    +0.000 A 
ATOM      5  C   UNL     1      47.624   7.904  13.198  0.00  0.00    +0.000 A 
ATOM      6  C   UNL     1      48.656   6.977  13.274  0.00  0.00    +0.000 A 
ATOM      7  N   UNL     1      49.509   6.876  14.311  0.00  0.00    +0.000 NA
BRANCH   2   8
ATOM      8  O   UNL     1      50.116   7.623  16.475  0.00  0.00    +0.000 OA
BRANCH   8  13
ATOM      9  C   UNL     1      48.300   4.883  18.064  0.00  0.00    +0.000 A 
ATOM     10  C   UNL     1      48.740   4.970  19.390  0.00  0.00    +0.000 A 
ATOM     11  C   UNL     1      49.664   5.949  19.755  0.00  0.00    +0.000 A 
ATOM     12  C   UNL     1      50.146   6.840  18.798  0.00  0.00    +0.000 A 
ATOM     13  C   UNL     1      49.681   6.783  17.478  0.00  0.00    +0.000 A 
ATOM     14  C   UNL     1      48.778   5.786  17.106  0.00  0.00    +0.000 A 
BRANCH   9  16
ATOM     15  N   UNL     1      46.597   3.048  17.382  0.00  0.00    +0.000 NA
ATOM     16  C   UNL     1      47.358   3.870  17.689  0.00  0.00    +0.000 C 
ENDBRANCH   9  16
ENDBRANCH   8  13
ENDBRANCH   2   8
ENDBRANCH   1   5
BRANCH   1  17
ATOM     17  N   UNL     1      46.230   6.572  11.728  0.00  0.00    +0.000 N 
ATOM     18  C   UNL     1      44.897   6.316  11.531  0.00  0.00    +0.000 C 
ATOM     19  O   UNL     1      44.054   7.208  11.556  0.00  0.00    +0.000 OA
ATOM     20  H   UNL     1      46.854   5.800  11.940  0.00  0.00    +0.000 HD
BRANCH  18  21
ATOM     21  C   UNL     1      44.544   4.928  11.216  0.00  0.00    +0.000 A 
ATOM     22  C   UNL     1      43.780   4.193  12.113  0.00  0.00    +0.000 A 
ATOM     23  S   UNL     1      43.390   2.630  11.553  0.00  0.00    +0.000 S 
ATOM     24  C   UNL     1      44.279   2.860  10.121  0.00  0.00    +0.000 A 
ATOM     25  N   UNL     1      44.374   1.875   9.188  0.00  0.00    +0.000 NA
ATOM     26  C   UNL     1      45.113   2.171   8.170  0.00  0.00    +0.000 A 
ATOM     27  N   UNL     1      45.764   3.366   8.001  0.00  0.00    +0.000 N 
ATOM     28  C   UNL     1      45.669   4.402   8.897  0.00  0.00    +0.000 A 
ATOM     29  O   UNL     1      46.221   5.479   8.694  0.00  0.00    +0.000 OA
ATOM     30  C   UNL     1      44.858   4.115  10.066  0.00  0.00    +0.000 A 
ATOM     31  H   UNL     1      46.324   3.536   7.177  0.00  0.00    +0.000 HD
ENDBRANCH  18  21
ENDBRANCH   1  17
TORSDOF 6
ENDMDL
MODEL 5
REMARK VINA RESULT:    -6.866      1.721      2.283
REMARK INTER + INTRA:         -10.120
REMARK INTER:                  -8.939
REMARK INTRA:                  -1.181
REMARK UNBOUND:                -0.845
REMARK  Name = 
REMARK  6 active torsions:
REMARK  status: ('A' for Active; 'I' for Inactive)
REMARK    1  A    between atoms: C_2  and  C_3
REMARK    2  A    between atoms: C_7  and  O_8
REMARK    3  A    between atoms: O_8  and  C_9
REMARK    4  A    between atoms: C_12  and  C_13
REMARK    5  A    between atoms: C_13  and  N_14
REMARK    6  A    between atoms: C_15  and  C_17
REMARK                            x       y       z     vdW  Elec       q    Type
REMARK                         _______ _______ _______ _____ _____    ______ ____
ROOT
ATOM      1  C   UNL     1      49.389   8.581  14.163  0.00  0.00    +0.000 C 
ENDROOT
BRANCH   1   5
ATOM      2  C   UNL     1      45.982   7.462  11.907  0.00  0.00    +0.000 A 
ATOM      3  C   UNL     1      47.098   6.645  11.822  0.00  0.00    +0.000 A 
ATOM      4  C   UNL     1      48.237   7.004  12.540  0.00  0.00    +0.000 A 
ATOM      5  C   UNL     1      48.221   8.163  13.321  0.00  0.00    +0.000 A 
ATOM      6  C   UNL     1      47.078   8.952  13.274  0.00  0.00    +0.000 A 
ATOM      7  N   UNL     1      45.966   8.635  12.583  0.00  0.00    +0.000 NA
BRANCH   2   8
ATOM      8  O   UNL     1      44.833   7.037  11.251  0.00  0.00    +0.000 OA
BRANCH   8  13
ATOM      9  C   UNL     1      44.262   3.473  10.703  0.00  0.00    +0.000 A 
ATOM     10  C   UNL     1      43.592   3.101  11.874  0.00  0.00    +0.000 A 
ATOM     11  C   UNL     1      43.339   4.050  12.865  0.00  0.00    +0.000 A 
ATOM     12  C   UNL     1      43.753   5.368  12.684  0.00  0.00    +0.000 A 
ATOM     13  C   UNL     1      44.388   5.756  11.499  0.00  0.00    +0.000 A 
ATOM     14  C   UNL     1      44.667   4.800  10.519  0.00  0.00    +0.000 A 
BRANCH   9  16
ATOM     15  N   UNL     1      44.742   1.699   8.871  0.00  0.00    +0.000 NA
ATOM     16  C   UNL     1      44.529   2.494   9.691  0.00  0.00    +0.000 C 
ENDBRANCH   9  16
ENDBRANCH   8  13
ENDBRANCH   2   8
ENDBRANCH   1   5
BRANCH   1  17
ATOM     17  N   UNL     1      49.490   7.778  15.350  0.00  0.00    +0.000 N 
ATOM     18  C   UNL     1      48.853   8.144  16.509  0.00  0.00    +0.000 C 
ATOM     19  O   UNL     1      48.142   9.143  16.570  0.00  0.00    +0.000 OA
ATOM     20  H   UNL     1      50.248   7.103  15.397  0.00  0.00    +0.000 HD
BRANCH  18  21
ATOM     21  C   UNL     1      49.012   7.238  17.650  0.00  0.00    +0.000 A 
ATOM     22  C   UNL     1      49.441   7.738  18.871  0.00  0.00    +0.000 A 
ATOM     23  S   UNL     1      49.488   6.565  20.108  0.00  0.00    +0.000 S 
ATOM     24  C   UNL     1      48.994   5.337  19.040  0.00  0.00    +0.000 A 
ATOM     25  N   UNL     1      48.850   4.053  19.466  0.00  0.00    +0.000 NA
ATOM     26  C   UNL     1      48.510   3.218  18.541  0.00  0.00    +0.000 A 
ATOM     27  N   UNL     1      48.297   3.552  17.228  0.00  0.00    +0.000 N 
ATOM     28  C   UNL     1      48.395   4.840  16.760  0.00  0.00    +0.000 A 
ATOM     29  O   UNL     1      48.149   5.118  15.591  0.00  0.00    +0.000 OA
ATOM     30  C   UNL     1      48.787   5.816  17.759  0.00  0.00    +0.000 A 
ATOM     31  H   UNL     1      48.027   2.850  16.554  0.00  0.00    +0.000 HD
ENDBRANCH  18  21
ENDBRANCH   1  17
TORSDOF 6
ENDMDL
MODEL 6
REMARK VINA RESULT:    -6.852      2.985      7.764
REMARK INTER + INTRA:         -10.100
REMARK INTER:                  -9.167
REMARK INTRA:                  -0.933
REMARK UNBOUND:                -0.845
REMARK  Name = 
REMARK  6 active torsions:
REMARK  status: ('A' for Active; 'I' for Inactive)
REMARK    1  A    between atoms: C_2  and  C_3
REMARK    2  A    between atoms: C_7  and  O_8
REMARK    3  A    between atoms: O_8  and  C_9
REMARK    4  A    between atoms: C_12  and  C_13
REMARK    5  A    between atoms: C_13  and  N_14
REMARK    6  A    between atoms: C_15  and  C_17
REMARK                            x       y       z     vdW  Elec       q    Type
REMARK                         _______ _______ _______ _____ _____    ______ ____
ROOT
ATOM      1  C   UNL     1      48.196   8.361  11.808  0.00  0.00    +0.000 C 
ENDROOT
BRANCH   1   5
ATOM      2  C   UNL     1      49.904   7.508  15.589  0.00  0.00    +0.000 A 
ATOM      3  C   UNL     1      48.581   7.919  15.567  0.00  0.00    +0.000 A 
ATOM      4  C   UNL     1      48.004   8.224  14.336  0.00  0.00    +0.000 A 
ATOM      5  C   UNL     1      48.766   8.103  13.170  0.00  0.00    +0.000 A 
ATOM      6  C   UNL     1      50.105   7.759  13.312  0.00  0.00    +0.000 A 
ATOM      7  N   UNL     1      50.691   7.466  14.488  0.00  0.00    +0.000 NA
BRANCH   2   8
ATOM      8  O   UNL     1      50.430   7.127  16.818  0.00  0.00    +0.000 OA
BRANCH   8  13
ATOM      9  C   UNL     1      49.049   3.813  17.485  0.00  0.00    +0.000 A 
ATOM     10  C   UNL     1      50.204   3.060  17.729  0.00  0.00    +0.000 A 
ATOM     11  C   UNL     1      51.459   3.663  17.656  0.00  0.00    +0.000 A 
ATOM     12  C   UNL     1      51.561   5.017  17.344  0.00  0.00    +0.000 A 
ATOM     13  C   UNL     1      50.410   5.786  17.138  0.00  0.00    +0.000 A 
ATOM     14  C   UNL     1      49.154   5.176  17.183  0.00  0.00    +0.000 A 
BRANCH   9  16
ATOM     15  N   UNL     1      46.718   2.681  17.602  0.00  0.00    +0.000 NA
ATOM     16  C   UNL     1      47.762   3.190  17.551  0.00  0.00    +0.000 C 
ENDBRANCH   9  16
ENDBRANCH   8  13
ENDBRANCH   2   8
ENDBRANCH   1   5
BRANCH   1  17
ATOM     17  N   UNL     1      47.534   7.195  11.290  0.00  0.00    +0.000 N 
ATOM     18  C   UNL     1      46.167   7.085  11.322  0.00  0.00    +0.000 C 
ATOM     19  O   UNL     1      45.453   7.986  11.753  0.00  0.00    +0.000 OA
ATOM     20  H   UNL     1      48.093   6.357  11.161  0.00  0.00    +0.000 HD
BRANCH  18  21
ATOM     21  C   UNL     1      45.603   5.860  10.747  0.00  0.00    +0.000 A 
ATOM     22  C   UNL     1      45.810   5.571   9.405  0.00  0.00    +0.000 A 
ATOM     23  S   UNL     1      45.159   4.071   8.923  0.00  0.00    +0.000 S 
ATOM     24  C   UNL     1      44.526   3.783  10.475  0.00  0.00    +0.000 A 
ATOM     25  N   UNL     1      43.819   2.653  10.747  0.00  0.00    +0.000 NA
ATOM     26  C   UNL     1      43.362   2.584  11.953  0.00  0.00    +0.000 A 
ATOM     27  N   UNL     1      43.552   3.543  12.915  0.00  0.00    +0.000 N 
ATOM     28  C   UNL     1      44.288   4.682  12.698  0.00  0.00    +0.000 A 
ATOM     29  O   UNL     1      44.485   5.499  13.593  0.00  0.00    +0.000 OA
ATOM     30  C   UNL     1      44.815   4.813  11.353  0.00  0.00    +0.000 A 
ATOM     31  H   UNL     1      43.171   3.425  13.843  0.00  0.00    +0.000 HD
ENDBRANCH  18  21
ENDBRANCH   1  17
TORSDOF 6
ENDMDL
MODEL 7
REMARK VINA RESULT:    -6.611      3.353      4.509
REMARK INTER + INTRA:          -9.775
REMARK INTER:                  -8.856
REMARK INTRA:                  -0.920
REMARK UNBOUND:                -0.845
REMARK  Name = 
REMARK  6 active torsions:
REMARK  status: ('A' for Active; 'I' for Inactive)
REMARK    1  A    between atoms: C_2  and  C_3
REMARK    2  A    between atoms: C_7  and  O_8
REMARK    3  A    between atoms: O_8  and  C_9
REMARK    4  A    between atoms: C_12  and  C_13
REMARK    5  A    between atoms: C_13  and  N_14
REMARK    6  A    between atoms: C_15  and  C_17
REMARK                            x       y       z     vdW  Elec       q    Type
REMARK                         _______ _______ _______ _____ _____    ______ ____
ROOT
ATOM      1  C   UNL     1      46.745   7.598  13.638  0.00  0.00    +0.000 C 
ENDROOT
BRANCH   1   5
ATOM      2  C   UNL     1      44.959   4.718  11.096  0.00  0.00    +0.000 A 
ATOM      3  C   UNL     1      44.599   6.043  10.908  0.00  0.00    +0.000 A 
ATOM      4  C   UNL     1      45.160   7.006  11.745  0.00  0.00    +0.000 A 
ATOM      5  C   UNL     1      46.063   6.613  12.738  0.00  0.00    +0.000 A 
ATOM      6  C   UNL     1      46.294   5.251  12.892  0.00  0.00    +0.000 A 
ATOM      7  N   UNL     1      45.761   4.299  12.103  0.00  0.00    +0.000 NA
BRANCH   2   8
ATOM      8  O   UNL     1      44.454   3.790  10.194  0.00  0.00    +0.000 OA
BRANCH   8  13
ATOM      9  C   UNL     1      46.289   1.635   7.886  0.00  0.00    +0.000 A 
ATOM     10  C   UNL     1      46.802   2.559   6.969  0.00  0.00    +0.000 A 
ATOM     11  C   UNL     1      46.521   3.917   7.116  0.00  0.00    +0.000 A 
ATOM     12  C   UNL     1      45.731   4.352   8.179  0.00  0.00    +0.000 A 
ATOM     13  C   UNL     1      45.247   3.438   9.122  0.00  0.00    +0.000 A 
ATOM     14  C   UNL     1      45.505   2.075   8.959  0.00  0.00    +0.000 A 
BRANCH   9  16
ATOM     15  N   UNL     1      46.799  -0.893   7.603  0.00  0.00    +0.000 NA
ATOM     16  C   UNL     1      46.571   0.240   7.728  0.00  0.00    +0.000 C 
ENDBRANCH   9  16
ENDBRANCH   8  13
ENDBRANCH   2   8
ENDBRANCH   1   5
BRANCH   1  17
ATOM     17  N   UNL     1      48.141   7.717  13.318  0.00  0.00    +0.000 N 
ATOM     18  C   UNL     1      48.673   8.912  12.905  0.00  0.00    +0.000 C 
ATOM     19  O   UNL     1      47.995   9.933  12.831  0.00  0.00    +0.000 OA
ATOM     20  H   UNL     1      48.656   6.861  13.137  0.00  0.00    +0.000 HD
BRANCH  18  21
ATOM     21  C   UNL     1      50.113   8.919  12.627  0.00  0.00    +0.000 A 
ATOM     22  C   UNL     1      50.579   9.449  11.431  0.00  0.00    +0.000 A 
ATOM     23  S   UNL     1      52.280   9.454  11.308  0.00  0.00    +0.000 S 
ATOM     24  C   UNL     1      52.449   8.694  12.820  0.00  0.00    +0.000 A 
ATOM     25  N   UNL     1      53.677   8.387  13.318  0.00  0.00    +0.000 NA
ATOM     26  C   UNL     1      53.656   7.775  14.456  0.00  0.00    +0.000 A 
ATOM     27  N   UNL     1      52.515   7.447  15.143  0.00  0.00    +0.000 N 
ATOM     28  C   UNL     1      51.256   7.769  14.698  0.00  0.00    +0.000 A 
ATOM     29  O   UNL     1      50.256   7.509  15.360  0.00  0.00    +0.000 OA
ATOM     30  C   UNL     1      51.226   8.448  13.416  0.00  0.00    +0.000 A 
ATOM     31  H   UNL     1      52.568   6.972  16.034  0.00  0.00    +0.000 HD
ENDBRANCH  18  21
ENDBRANCH   1  17
TORSDOF 6
ENDMDL
MODEL 8
REMARK VINA RESULT:    -6.323      3.539      4.910
REMARK INTER + INTRA:          -9.386
REMARK INTER:                  -8.398
REMARK INTRA:                  -0.988
REMARK UNBOUND:                -0.845
REMARK  Name = 
REMARK  6 active torsions:
REMARK  status: ('A' for Active; 'I' for Inactive)
REMARK    1  A    between atoms: C_2  and  C_3
REMARK    2  A    between atoms: C_7  and  O_8
REMARK    3  A    between atoms: O_8  and  C_9
REMARK    4  A    between atoms: C_12  and  C_13
REMARK    5  A    between atoms: C_13  and  N_14
REMARK    6  A    between atoms: C_15  and  C_17
REMARK                            x       y       z     vdW  Elec       q    Type
REMARK                         _______ _______ _______ _____ _____    ______ ____
ROOT
ATOM      1  C   UNL     1      48.714   6.995  14.636  0.00  0.00    +0.000 C 
ENDROOT
BRANCH   1   5
ATOM      2  C   UNL     1      45.734   6.099  11.761  0.00  0.00    +0.000 A 
ATOM      3  C   UNL     1      46.110   5.084  12.626  0.00  0.00    +0.000 A 
ATOM      4  C   UNL     1      47.101   5.350  13.568  0.00  0.00    +0.000 A 
ATOM      5  C   UNL     1      47.681   6.621  13.616  0.00  0.00    +0.000 A 
ATOM      6  C   UNL     1      47.288   7.542  12.652  0.00  0.00    +0.000 A 
ATOM      7  N   UNL     1      46.338   7.310  11.726  0.00  0.00    +0.000 NA
BRANCH   2   8
ATOM      8  O   UNL     1      44.684   5.835  10.890  0.00  0.00    +0.000 OA
BRANCH   8  13
ATOM      9  C   UNL     1      45.494   3.422   8.272  0.00  0.00    +0.000 A 
ATOM     10  C   UNL     1      44.863   2.262   8.738  0.00  0.00    +0.000 A 
ATOM     11  C   UNL     1      44.170   2.284   9.948  0.00  0.00    +0.000 A 
ATOM     12  C   UNL     1      44.105   3.462  10.690  0.00  0.00    +0.000 A 
ATOM     13  C   UNL     1      44.699   4.635  10.211  0.00  0.00    +0.000 A 
ATOM     14  C   UNL     1      45.417   4.607   9.013  0.00  0.00    +0.000 A 
BRANCH   9  16
ATOM     15  N   UNL     1      46.800   3.375   6.031  0.00  0.00    +0.000 NA
ATOM     16  C   UNL     1      46.213   3.396   7.033  0.00  0.00    +0.000 C 
ENDBRANCH   9  16
ENDBRANCH   8  13
ENDBRANCH   2   8
ENDBRANCH   1   5
BRANCH   1  17
ATOM     17  N   UNL     1      49.971   7.308  14.015  0.00  0.00    +0.000 N 
ATOM     18  C   UNL     1      50.486   8.579  14.061  0.00  0.00    +0.000 C 
ATOM     19  O   UNL     1      49.921   9.487  14.665  0.00  0.00    +0.000 OA
ATOM     20  H   UNL     1      50.327   6.658  13.321  0.00  0.00    +0.000 HD
BRANCH  18  21
ATOM     21  C   UNL     1      51.786   8.775  13.411  0.00  0.00    +0.000 A 
ATOM     22  C   UNL     1      52.826   9.362  14.118  0.00  0.00    +0.000 A 
ATOM     23  S   UNL     1      54.287   9.436  13.242  0.00  0.00    +0.000 S 
ATOM     24  C   UNL     1      53.564   8.742  11.868  0.00  0.00    +0.000 A 
ATOM     25  N   UNL     1      54.276   8.537  10.728  0.00  0.00    +0.000 NA
ATOM     26  C   UNL     1      53.592   8.041   9.751  0.00  0.00    +0.000 A 
ATOM     27  N   UNL     1      52.259   7.727   9.813  0.00  0.00    +0.000 N 
ATOM     28  C   UNL     1      51.507   7.882  10.953  0.00  0.00    +0.000 A 
ATOM     29  O   UNL     1      50.329   7.545  10.995  0.00  0.00    +0.000 OA
ATOM     30  C   UNL     1      52.229   8.448  12.077  0.00  0.00    +0.000 A 
ATOM     31  H   UNL     1      51.783   7.336   9.012  0.00  0.00    +0.000 HD
ENDBRANCH  18  21
ENDBRANCH   1  17
TORSDOF 6
ENDMDL
MODEL 9
REMARK VINA RESULT:    -6.313      3.698      9.889
REMARK INTER + INTRA:          -9.373
REMARK INTER:                  -8.504
REMARK INTRA:                  -0.869
REMARK UNBOUND:                -0.845
REMARK  Name = 
REMARK  6 active torsions:
REMARK  status: ('A' for Active; 'I' for Inactive)
REMARK    1  A    between atoms: C_2  and  C_3
REMARK    2  A    between atoms: C_7  and  O_8
REMARK    3  A    between atoms: O_8  and  C_9
REMARK    4  A    between atoms: C_12  and  C_13
REMARK    5  A    between atoms: C_13  and  N_14
REMARK    6  A    between atoms: C_15  and  C_17
REMARK                            x       y       z     vdW  Elec       q    Type
REMARK                         _______ _______ _______ _____ _____    ______ ____
ROOT
ATOM      1  C   UNL     1      47.357   3.572  16.652  0.00  0.00    +0.000 C 
ENDROOT
BRANCH   1   5
ATOM      2  C   UNL     1      50.166   5.416  19.233  0.00  0.00    +0.000 A 
ATOM      3  C   UNL     1      50.413   5.484  17.871  0.00  0.00    +0.000 A 
ATOM      4  C   UNL     1      49.512   4.868  17.004  0.00  0.00    +0.000 A 
ATOM      5  C   UNL     1      48.395   4.209  17.526  0.00  0.00    +0.000 A 
ATOM      6  C   UNL     1      48.285   4.133  18.909  0.00  0.00    +0.000 A 
ATOM      7  N   UNL     1      49.143   4.712  19.771  0.00  0.00    +0.000 NA
BRANCH   2   8
ATOM      8  O   UNL     1      51.031   6.111  20.070  0.00  0.00    +0.000 OA
BRANCH   8  13
ATOM      9  C   UNL     1      54.095   4.143  20.344  0.00  0.00    +0.000 A 
ATOM     10  C   UNL     1      55.059   5.036  19.863  0.00  0.00    +0.000 A 
ATOM     11  C   UNL     1      54.680   6.307  19.430  0.00  0.00    +0.000 A 
ATOM     12  C   UNL     1      53.339   6.685  19.479  0.00  0.00    +0.000 A 
ATOM     13  C   UNL     1      52.375   5.812  19.996  0.00  0.00    +0.000 A 
ATOM     14  C   UNL     1      52.751   4.530  20.403  0.00  0.00    +0.000 A 
BRANCH   9  16
ATOM     15  N   UNL     1      54.801   1.774  21.130  0.00  0.00    +0.000 NA
ATOM     16  C   UNL     1      54.486   2.836  20.779  0.00  0.00    +0.000 C 
ENDBRANCH   9  16
ENDBRANCH   8  13
ENDBRANCH   2   8
ENDBRANCH   1   5
BRANCH   1  17
ATOM     17  N   UNL     1      46.789   4.525  15.739  0.00  0.00    +0.000 N 
ATOM     18  C   UNL     1      46.771   4.287  14.388  0.00  0.00    +0.000 C 
ATOM     19  O   UNL     1      47.200   3.241  13.908  0.00  0.00    +0.000 OA
ATOM     20  H   UNL     1      46.658   5.475  16.073  0.00  0.00    +0.000 HD
BRANCH  18  21
ATOM     21  C   UNL     1      46.147   5.320  13.556  0.00  0.00    +0.000 A 
ATOM     22  C   UNL     1      46.813   6.517  13.332  0.00  0.00    +0.000 A 
ATOM     23  S   UNL     1      45.984   7.569  12.276  0.00  0.00    +0.000 S 
ATOM     24  C   UNL     1      44.680   6.486  12.130  0.00  0.00    +0.000 A 
ATOM     25  N   UNL     1      43.598   6.790  11.365  0.00  0.00    +0.000 NA
ATOM     26  C   UNL     1      42.665   5.897  11.377  0.00  0.00    +0.000 A 
ATOM     27  N   UNL     1      42.720   4.723  12.084  0.00  0.00    +0.000 N 
ATOM     28  C   UNL     1      43.806   4.357  12.841  0.00  0.00    +0.000 A 
ATOM     29  O   UNL     1      43.848   3.277  13.422  0.00  0.00    +0.000 OA
ATOM     30  C   UNL     1      44.878   5.334  12.869  0.00  0.00    +0.000 A 
ATOM     31  H   UNL     1      41.956   4.062  12.047  0.00  0.00    +0.000 HD
ENDBRANCH  18  21
ENDBRANCH   1  17
TORSDOF 6
ENDMDL
