MODEL 1
REMARK VINA RESULT:    -7.902      0.000      0.000
REMARK INTER + INTRA:         -13.412
REMARK INTER:                 -12.290
REMARK INTRA:                  -1.122
REMARK UNBOUND:                -1.122
REMARK  Name = 
REMARK  10 active torsions:
REMARK  status: ('A' for Active; 'I' for Inactive)
REMARK    1  A    between atoms: N_1  and  C_2
REMARK    2  A    between atoms: C_2  and  C_3
REMARK    3  A    between atoms: C_3  and  N_4
REMARK    4  A    between atoms: C_3  and  C_20
REMARK    5  A    between atoms: N_4  and  C_5
REMARK    6  A    between atoms: C_5  and  C_6
REMARK    7  A    between atoms: C_9  and  C_10
REMARK    8  A    between atoms: C_10  and  O_11
REMARK    9  A    between atoms: O_11  and  C_12
REMARK   10  A    between atoms: C_12  and  C_13
REMARK                            x       y       z     vdW  Elec       q    Type
REMARK                         _______ _______ _______ _____ _____    ______ ____
ROOT
ATOM      1  N   UNL     1      48.029   5.974  15.949  0.00  0.00    +0.000 NA
ATOM      2  H   UNL     1      48.728   6.594  16.354  0.00  0.00    +0.000 HD
ENDROOT
BRANCH   1   3
ATOM      3  C   UNL     1      48.177   4.651  16.592  0.00  0.00    +0.000 C 
BRANCH   3   4
ATOM      4  C   UNL     1      49.545   4.613  17.265  0.00  0.00    +0.000 A 
ATOM      5  C   UNL     1      50.130   5.669  17.952  0.00  0.00    +0.000 A 
ATOM      6  S   UNL     1      51.655   5.282  18.613  0.00  0.00    +0.000 S 
ATOM      7  C   UNL     1      51.564   3.681  18.041  0.00  0.00    +0.000 A 
ATOM      8  N   UNL     1      52.552   2.782  18.290  0.00  0.00    +0.000 NA
ATOM      9  C   UNL     1      52.329   1.604  17.811  0.00  0.00    +0.000 A 
ATOM     10  N   UNL     1      51.213   1.241  17.098  0.00  0.00    +0.000 N 
ATOM     11  C   UNL     1      50.188   2.116  16.815  0.00  0.00    +0.000 A 
ATOM     12  O   UNL     1      49.201   1.767  16.179  0.00  0.00    +0.000 OA
ATOM     13  C   UNL     1      50.395   3.455  17.339  0.00  0.00    +0.000 A 
ATOM     14  H   UNL     1      51.100   0.300  16.757  0.00  0.00    +0.000 HD
ENDBRANCH   3   4
BRANCH   3  15
ATOM     15  C   UNL     1      47.050   4.297  17.616  0.00  0.00    +0.000 C 
BRANCH  15  16
ATOM     16  N   UNL     1      46.675   2.876  17.632  0.00  0.00    +0.000 NA
ATOM     17  H   UNL     1      45.670   2.785  17.765  0.00  0.00    +0.000 HD
ATOM     18  H   UNL     1      47.132   2.436  18.432  0.00  0.00    +0.000 HD
ENDBRANCH  15  16
ENDBRANCH   3  15
ENDBRANCH   1   3
BRANCH   1  19
ATOM     19  C   UNL     1      48.239   5.919  14.498  0.00  0.00    +0.000 C 
BRANCH  19  20
ATOM     20  C   UNL     1      47.007   5.467  13.738  0.00  0.00    +0.000 A 
ATOM     21  C   UNL     1      46.758   4.112  13.519  0.00  0.00    +0.000 A 
ATOM     22  C   UNL     1      45.608   3.743  12.825  0.00  0.00    +0.000 A 
ATOM     23  C   UNL     1      44.726   4.726  12.372  0.00  0.00    +0.000 A 
ATOM     24  C   UNL     1      45.050   6.047  12.646  0.00  0.00    +0.000 A 
ATOM     25  N   UNL     1      46.160   6.437  13.312  0.00  0.00    +0.000 NA
BRANCH  23  26
ATOM     26  C   UNL     1      43.478   4.376  11.618  0.00  0.00    +0.000 C 
BRANCH  26  27
ATOM     27  O   UNL     1      43.832   3.496  10.559  0.00  0.00    +0.000 OA
BRANCH  27  28
ATOM     28  C   UNL     1      44.199   4.217   9.380  0.00  0.00    +0.000 C 
BRANCH  28  29
ATOM     29  C   UNL     1      45.224   3.478   8.589  0.00  0.00    +0.000 A 
ATOM     30  C   UNL     1      45.579   2.145   8.656  0.00  0.00    +0.000 A 
ATOM     31  N   UNL     1      46.565   1.984   7.727  0.00  0.00    +0.000 N 
ATOM     32  C   UNL     1      46.768   3.194   7.128  0.00  0.00    +0.000 A 
ATOM     33  N   UNL     1      45.969   4.114   7.619  0.00  0.00    +0.000 NA
ATOM     34  H   UNL     1      47.061   1.129   7.519  0.00  0.00    +0.000 HD
ENDBRANCH  28  29
ENDBRANCH  27  28
ENDBRANCH  26  27
ENDBRANCH  23  26
ENDBRANCH  19  20
ENDBRANCH   1  19
TORSDOF 10
ENDMDL
MODEL 2
REMARK VINA RESULT:    -7.033      1.882      2.637
REMARK INTER + INTRA:         -12.060
REMARK INTER:                 -10.938
REMARK INTRA:                  -1.122
REMARK UNBOUND:                -1.122
REMARK  Name = 
REMARK  10 active torsions:
REMARK  status: ('A' for Active; 'I' for Inactive)
REMARK    1  A    between atoms: N_1  and  C_2
REMARK    2  A    between atoms: C_2  and  C_3
REMARK    3  A    between atoms: C_3  and  N_4
REMARK    4  A    between atoms: C_3  and  C_20
REMARK    5  A    between atoms: N_4  and  C_5
REMARK    6  A    between atoms: C_5  and  C_6
REMARK    7  A    between atoms: C_9  and  C_10
REMARK    8  A    between atoms: C_10  and  O_11
REMARK    9  A    between atoms: O_11  and  C_12
REMARK   10  A    between atoms: C_12  and  C_13
REMARK                            x       y       z     vdW  Elec       q    Type
REMARK                         _______ _______ _______ _____ _____    ______ ____
ROOT
ATOM      1  N   UNL     1      48.137   5.922  14.916  0.00  0.00    +0.000 NA
ATOM      2  H   UNL     1      47.226   5.638  15.273  0.00  0.00    +0.000 HD
ENDROOT
BRANCH   1   3
ATOM      3  C   UNL     1      48.661   6.972  15.814  0.00  0.00    +0.000 C 
BRANCH   3   4
ATOM      4  C   UNL     1      50.121   6.646  16.108  0.00  0.00    +0.000 A 
ATOM      5  C   UNL     1      51.213   7.369  15.647  0.00  0.00    +0.000 A 
ATOM      6  S   UNL     1      52.710   6.751  16.188  0.00  0.00    +0.000 S 
ATOM      7  C   UNL     1      51.946   5.526  17.089  0.00  0.00    +0.000 A 
ATOM      8  N   UNL     1      52.662   4.642  17.833  0.00  0.00    +0.000 NA
ATOM      9  C   UNL     1      51.942   3.787  18.479  0.00  0.00    +0.000 A 
ATOM     10  N   UNL     1      50.571   3.726  18.443  0.00  0.00    +0.000 N 
ATOM     11  C   UNL     1      49.801   4.594  17.702  0.00  0.00    +0.000 A 
ATOM     12  O   UNL     1      48.579   4.520  17.689  0.00  0.00    +0.000 OA
ATOM     13  C   UNL     1      50.571   5.577  16.961  0.00  0.00    +0.000 A 
ATOM     14  H   UNL     1      50.070   3.034  18.977  0.00  0.00    +0.000 HD
ENDBRANCH   3   4
BRANCH   3  15
ATOM     15  C   UNL     1      48.524   8.428  15.260  0.00  0.00    +0.000 C 
BRANCH  15  16
ATOM     16  N   UNL     1      47.627   9.289  16.043  0.00  0.00    +0.000 NA
ATOM     17  H   UNL     1      48.113   9.637  16.866  0.00  0.00    +0.000 HD
ATOM     18  H   UNL     1      46.843   8.721  16.367  0.00  0.00    +0.000 HD
ENDBRANCH  15  16
ENDBRANCH   3  15
ENDBRANCH   1   3
BRANCH   1  19
ATOM     19  C   UNL     1      47.969   6.396  13.537  0.00  0.00    +0.000 C 
BRANCH  19  20
ATOM     20  C   UNL     1      46.892   5.643  12.780  0.00  0.00    +0.000 A 
ATOM     21  C   UNL     1      46.350   6.159  11.603  0.00  0.00    +0.000 A 
ATOM     22  C   UNL     1      45.370   5.428  10.937  0.00  0.00    +0.000 A 
ATOM     23  C   UNL     1      44.957   4.195  11.447  0.00  0.00    +0.000 A 
ATOM     24  C   UNL     1      45.560   3.757  12.616  0.00  0.00    +0.000 A 
ATOM     25  N   UNL     1      46.509   4.445  13.289  0.00  0.00    +0.000 NA
BRANCH  23  26
ATOM     26  C   UNL     1      43.904   3.375  10.765  0.00  0.00    +0.000 C 
BRANCH  26  27
ATOM     27  O   UNL     1      44.241   3.276   9.387  0.00  0.00    +0.000 OA
BRANCH  27  28
ATOM     28  C   UNL     1      45.052   2.127   9.128  0.00  0.00    +0.000 C 
BRANCH  28  29
ATOM     29  C   UNL     1      46.098   2.420   8.106  0.00  0.00    +0.000 A 
ATOM     30  C   UNL     1      46.431   3.627   7.524  0.00  0.00    +0.000 A 
ATOM     31  N   UNL     1      47.444   3.345   6.656  0.00  0.00    +0.000 N 
ATOM     32  C   UNL     1      47.699   2.007   6.742  0.00  0.00    +0.000 A 
ATOM     33  N   UNL     1      46.911   1.421   7.614  0.00  0.00    +0.000 NA
ATOM     34  H   UNL     1      47.920   4.001   6.053  0.00  0.00    +0.000 HD
ENDBRANCH  28  29
ENDBRANCH  27  28
ENDBRANCH  26  27
ENDBRANCH  23  26
ENDBRANCH  19  20
ENDBRANCH   1  19
TORSDOF 10
ENDMDL
MODEL 3
REMARK VINA RESULT:    -6.785      2.679      8.860
REMARK INTER + INTRA:         -11.675
REMARK INTER:                 -10.583
REMARK INTRA:                  -1.092
REMARK UNBOUND:                -1.122
REMARK  Name = 
REMARK  10 active torsions:
REMARK  status: ('A' for Active; 'I' for Inactive)
REMARK    1  A    between atoms: N_1  and  C_2
REMARK    2  A    between atoms: C_2  and  C_3
REMARK    3  A    between atoms: C_3  and  N_4
REMARK    4  A    between atoms: C_3  and  C_20
REMARK    5  A    between atoms: N_4  and  C_5
REMARK    6  A    between atoms: C_5  and  C_6
REMARK    7  A    between atoms: C_9  and  C_10
REMARK    8  A    between atoms: C_10  and  O_11
REMARK    9  A    between atoms: O_11  and  C_12
REMARK   10  A    between atoms: C_12  and  C_13
REMARK                            x       y       z     vdW  Elec       q    Type
REMARK                         _______ _______ _______ _____ _____    ______ ____
ROOT
ATOM      1  N   UNL     1      46.755   6.439  11.394  0.00  0.00    +0.000 NA
ATOM      2  H   UNL     1      47.334   6.775  10.626  0.00  0.00    +0.000 HD
ENDROOT
BRANCH   1   3
ATOM      3  C   UNL     1      45.343   6.544  10.970  0.00  0.00    +0.000 C 
BRANCH   3   4
ATOM      4  C   UNL     1      44.740   5.145  11.013  0.00  0.00    +0.000 A 
ATOM      5  C   UNL     1      43.908   4.661  12.015  0.00  0.00    +0.000 A 
ATOM      6  S   UNL     1      43.381   3.061  11.741  0.00  0.00    +0.000 S 
ATOM      7  C   UNL     1      44.211   2.978  10.257  0.00  0.00    +0.000 A 
ATOM      8  N   UNL     1      44.156   1.867   9.475  0.00  0.00    +0.000 NA
ATOM      9  C   UNL     1      44.818   1.964   8.371  0.00  0.00    +0.000 A 
ATOM     10  N   UNL     1      45.539   3.064   7.978  0.00  0.00    +0.000 N 
ATOM     11  C   UNL     1      45.629   4.210   8.735  0.00  0.00    +0.000 A 
ATOM     12  O   UNL     1      46.276   5.181   8.361  0.00  0.00    +0.000 OA
ATOM     13  C   UNL     1      44.896   4.148   9.987  0.00  0.00    +0.000 A 
ATOM     14  H   UNL     1      46.029   3.075   7.097  0.00  0.00    +0.000 HD
ENDBRANCH   3   4
BRANCH   3  15
ATOM     15  C   UNL     1      44.484   7.540  11.815  0.00  0.00    +0.000 C 
BRANCH  15  16
ATOM     16  N   UNL     1      43.555   8.358  11.022  0.00  0.00    +0.000 NA
ATOM     17  H   UNL     1      43.598   9.327  11.329  0.00  0.00    +0.000 HD
ATOM     18  H   UNL     1      42.606   8.022  11.199  0.00  0.00    +0.000 HD
ENDBRANCH  15  16
ENDBRANCH   3  15
ENDBRANCH   1   3
BRANCH   1  19
ATOM     19  C   UNL     1      47.045   7.249  12.583  0.00  0.00    +0.000 C 
BRANCH  19  20
ATOM     20  C   UNL     1      47.382   6.411  13.802  0.00  0.00    +0.000 A 
ATOM     21  C   UNL     1      46.800   5.158  13.993  0.00  0.00    +0.000 A 
ATOM     22  C   UNL     1      47.148   4.420  15.121  0.00  0.00    +0.000 A 
ATOM     23  C   UNL     1      48.074   4.936  16.030  0.00  0.00    +0.000 A 
ATOM     24  C   UNL     1      48.609   6.185  15.752  0.00  0.00    +0.000 A 
ATOM     25  N   UNL     1      48.287   6.928  14.669  0.00  0.00    +0.000 NA
BRANCH  23  26
ATOM     26  C   UNL     1      48.476   4.179  17.259  0.00  0.00    +0.000 C 
BRANCH  26  27
ATOM     27  O   UNL     1      49.573   3.338  16.924  0.00  0.00    +0.000 OA
BRANCH  27  28
ATOM     28  C   UNL     1      50.778   3.773  17.559  0.00  0.00    +0.000 C 
BRANCH  28  29
ATOM     29  C   UNL     1      51.704   2.630  17.804  0.00  0.00    +0.000 A 
ATOM     30  C   UNL     1      52.914   2.620  18.471  0.00  0.00    +0.000 A 
ATOM     31  N   UNL     1      53.353   1.330  18.407  0.00  0.00    +0.000 N 
ATOM     32  C   UNL     1      52.412   0.608  17.730  0.00  0.00    +0.000 A 
ATOM     33  N   UNL     1      51.401   1.361  17.360  0.00  0.00    +0.000 NA
ATOM     34  H   UNL     1      54.217   0.969  18.786  0.00  0.00    +0.000 HD
ENDBRANCH  28  29
ENDBRANCH  27  28
ENDBRANCH  26  27
ENDBRANCH  23  26
ENDBRANCH  19  20
ENDBRANCH   1  19
TORSDOF 10
ENDMDL
MODEL 4
REMARK VINA RESULT:    -6.575      3.048      8.507
REMARK INTER + INTRA:         -11.349
REMARK INTER:                 -10.203
REMARK INTRA:                  -1.146
REMARK UNBOUND:                -1.122
REMARK  Name = 
REMARK  10 active torsions:
REMARK  status: ('A' for Active; 'I' for Inactive)
REMARK    1  A    between atoms: N_1  and  C_2
REMARK    2  A    between atoms: C_2  and  C_3
REMARK    3  A    between atoms: C_3  and  N_4
REMARK    4  A    between atoms: C_3  and  C_20
REMARK    5  A    between atoms: N_4  and  C_5
REMARK    6  A    between atoms: C_5  and  C_6
REMARK    7  A    between atoms: C_9  and  C_10
REMARK    8  A    between atoms: C_10  and  O_11
REMARK    9  A    between atoms: O_11  and  C_12
REMARK   10  A    between atoms: C_12  and  C_13
REMARK                            x       y       z     vdW  Elec       q    Type
REMARK                         _______ _______ _______ _____ _____    ______ ____
ROOT
ATOM      1  N   UNL     1      47.092   6.660  11.635  0.00  0.00    +0.000 NA
ATOM      2  H   UNL     1      47.674   6.307  10.878  0.00  0.00    +0.000 HD
ENDROOT
BRANCH   1   3
ATOM      3  C   UNL     1      45.711   6.779  11.120  0.00  0.00    +0.000 C 
BRANCH   3   4
ATOM      4  C   UNL     1      45.030   5.428  11.305  0.00  0.00    +0.000 A 
ATOM      5  C   UNL     1      44.330   5.030  12.438  0.00  0.00    +0.000 A 
ATOM      6  S   UNL     1      43.662   3.465  12.304  0.00  0.00    +0.000 S 
ATOM      7  C   UNL     1      44.247   3.286  10.716  0.00  0.00    +0.000 A 
ATOM      8  N   UNL     1      43.998   2.163   9.992  0.00  0.00    +0.000 NA
ATOM      9  C   UNL     1      44.487   2.184   8.797  0.00  0.00    +0.000 A 
ATOM     10  N   UNL     1      45.211   3.219   8.260  0.00  0.00    +0.000 N 
ATOM     11  C   UNL     1      45.494   4.375   8.954  0.00  0.00    +0.000 A 
ATOM     12  O   UNL     1      46.139   5.286   8.451  0.00  0.00    +0.000 OA
ATOM     13  C   UNL     1      44.959   4.396  10.304  0.00  0.00    +0.000 A 
ATOM     14  H   UNL     1      45.560   3.173   7.316  0.00  0.00    +0.000 HD
ENDBRANCH   3   4
BRANCH   3  15
ATOM     15  C   UNL     1      44.867   7.916  11.783  0.00  0.00    +0.000 C 
BRANCH  15  16
ATOM     16  N   UNL     1      43.668   8.296  11.024  0.00  0.00    +0.000 NA
ATOM     17  H   UNL     1      42.880   7.720  11.312  0.00  0.00    +0.000 HD
ATOM     18  H   UNL     1      43.843   8.105  10.036  0.00  0.00    +0.000 HD
ENDBRANCH  15  16
ENDBRANCH   3  15
ENDBRANCH   1   3
BRANCH   1  19
ATOM     19  C   UNL     1      47.637   7.948  12.080  0.00  0.00    +0.000 C 
BRANCH  19  20
ATOM     20  C   UNL     1      48.193   7.900  13.490  0.00  0.00    +0.000 A 
ATOM     21  C   UNL     1      47.911   8.914  14.406  0.00  0.00    +0.000 A 
ATOM     22  C   UNL     1      48.434   8.823  15.693  0.00  0.00    +0.000 A 
ATOM     23  C   UNL     1      49.218   7.723  16.047  0.00  0.00    +0.000 A 
ATOM     24  C   UNL     1      49.436   6.758  15.074  0.00  0.00    +0.000 A 
ATOM     25  N   UNL     1      48.947   6.821  13.815  0.00  0.00    +0.000 NA
BRANCH  23  26
ATOM     26  C   UNL     1      49.804   7.584  17.419  0.00  0.00    +0.000 C 
BRANCH  26  27
ATOM     27  O   UNL     1      48.839   6.956  18.253  0.00  0.00    +0.000 OA
BRANCH  27  28
ATOM     28  C   UNL     1      49.241   5.632  18.614  0.00  0.00    +0.000 C 
BRANCH  28  29
ATOM     29  C   UNL     1      48.512   4.607  17.813  0.00  0.00    +0.000 A 
ATOM     30  C   UNL     1      47.151   4.412  17.682  0.00  0.00    +0.000 A 
ATOM     31  N   UNL     1      47.016   3.345  16.844  0.00  0.00    +0.000 N 
ATOM     32  C   UNL     1      48.270   2.940  16.488  0.00  0.00    +0.000 A 
ATOM     33  N   UNL     1      49.195   3.685  17.048  0.00  0.00    +0.000 NA
ATOM     34  H   UNL     1      46.149   2.924  16.541  0.00  0.00    +0.000 HD
ENDBRANCH  28  29
ENDBRANCH  27  28
ENDBRANCH  26  27
ENDBRANCH  23  26
ENDBRANCH  19  20
ENDBRANCH   1  19
TORSDOF 10
ENDMDL
MODEL 5
REMARK VINA RESULT:    -6.304      2.794      8.862
REMARK INTER + INTRA:         -10.926
REMARK INTER:                 -10.060
REMARK INTRA:                  -0.867
REMARK UNBOUND:                -1.122
REMARK  Name = 
REMARK  10 active torsions:
REMARK  status: ('A' for Active; 'I' for Inactive)
REMARK    1  A    between atoms: N_1  and  C_2
REMARK    2  A    between atoms: C_2  and  C_3
REMARK    3  A    between atoms: C_3  and  N_4
REMARK    4  A    between atoms: C_3  and  C_20
REMARK    5  A    between atoms: N_4  and  C_5
REMARK    6  A    between atoms: C_5  and  C_6
REMARK    7  A    between atoms: C_9  and  C_10
REMARK    8  A    between atoms: C_10  and  O_11
REMARK    9  A    between atoms: O_11  and  C_12
REMARK   10  A    between atoms: C_12  and  C_13
REMARK                            x       y       z     vdW  Elec       q    Type
REMARK                         _______ _______ _______ _____ _____    ______ ____
ROOT
ATOM      1  N   UNL     1      46.651   6.744  12.878  0.00  0.00    +0.000 NA
ATOM      2  H   UNL     1      46.647   5.820  13.306  0.00  0.00    +0.000 HD
ENDROOT
BRANCH   1   3
ATOM      3  C   UNL     1      45.826   6.674  11.653  0.00  0.00    +0.000 C 
BRANCH   3   4
ATOM      4  C   UNL     1      45.125   5.320  11.643  0.00  0.00    +0.000 A 
ATOM      5  C   UNL     1      44.433   4.767  12.713  0.00  0.00    +0.000 A 
ATOM      6  S   UNL     1      43.738   3.250  12.356  0.00  0.00    +0.000 S 
ATOM      7  C   UNL     1      44.301   3.303  10.750  0.00  0.00    +0.000 A 
ATOM      8  N   UNL     1      44.026   2.305   9.869  0.00  0.00    +0.000 NA
ATOM      9  C   UNL     1      44.501   2.499   8.684  0.00  0.00    +0.000 A 
ATOM     10  N   UNL     1      45.234   3.593   8.298  0.00  0.00    +0.000 N 
ATOM     11  C   UNL     1      45.544   4.626   9.153  0.00  0.00    +0.000 A 
ATOM     12  O   UNL     1      46.198   5.594   8.784  0.00  0.00    +0.000 OA
ATOM     13  C   UNL     1      45.026   4.453  10.499  0.00  0.00    +0.000 A 
ATOM     14  H   UNL     1      45.571   3.684   7.353  0.00  0.00    +0.000 HD
ENDBRANCH   3   4
BRANCH   3  15
ATOM     15  C   UNL     1      44.787   7.833  11.504  0.00  0.00    +0.000 C 
BRANCH  15  16
ATOM     16  N   UNL     1      44.816   8.813  12.599  0.00  0.00    +0.000 NA
ATOM     17  H   UNL     1      43.881   9.182  12.758  0.00  0.00    +0.000 HD
ATOM     18  H   UNL     1      45.409   9.593  12.311  0.00  0.00    +0.000 HD
ENDBRANCH  15  16
ENDBRANCH   3  15
ENDBRANCH   1   3
BRANCH   1  19
ATOM     19  C   UNL     1      48.042   7.119  12.596  0.00  0.00    +0.000 C 
BRANCH  19  20
ATOM     20  C   UNL     1      48.934   7.045  13.821  0.00  0.00    +0.000 A 
ATOM     21  C   UNL     1      50.131   7.760  13.879  0.00  0.00    +0.000 A 
ATOM     22  C   UNL     1      50.912   7.670  15.028  0.00  0.00    +0.000 A 
ATOM     23  C   UNL     1      50.485   6.881  16.098  0.00  0.00    +0.000 A 
ATOM     24  C   UNL     1      49.277   6.215  15.954  0.00  0.00    +0.000 A 
ATOM     25  N   UNL     1      48.499   6.278  14.850  0.00  0.00    +0.000 NA
BRANCH  23  26
ATOM     26  C   UNL     1      51.295   6.752  17.352  0.00  0.00    +0.000 C 
BRANCH  26  27
ATOM     27  O   UNL     1      52.031   5.537  17.283  0.00  0.00    +0.000 OA
BRANCH  27  28
ATOM     28  C   UNL     1      51.687   4.655  18.355  0.00  0.00    +0.000 C 
BRANCH  28  29
ATOM     29  C   UNL     1      51.451   3.268  17.862  0.00  0.00    +0.000 A 
ATOM     30  C   UNL     1      50.304   2.722  17.319  0.00  0.00    +0.000 A 
ATOM     31  N   UNL     1      50.617   1.424  17.040  0.00  0.00    +0.000 N 
ATOM     32  C   UNL     1      51.918   1.227  17.403  0.00  0.00    +0.000 A 
ATOM     33  N   UNL     1      52.453   2.321  17.894  0.00  0.00    +0.000 NA
ATOM     34  H   UNL     1      50.001   0.729  16.642  0.00  0.00    +0.000 HD
ENDBRANCH  28  29
ENDBRANCH  27  28
ENDBRANCH  26  27
ENDBRANCH  23  26
ENDBRANCH  19  20
ENDBRANCH   1  19
TORSDOF 10
ENDMDL
MODEL 6
REMARK VINA RESULT:    -6.263      2.373      3.382
REMARK INTER + INTRA:         -10.863
REMARK INTER:                  -9.856
REMARK INTRA:                  -1.007
REMARK UNBOUND:                -1.122
REMARK  Name = 
REMARK  10 active torsions:
REMARK  status: ('A' for Active; 'I' for Inactive)
REMARK    1  A    between atoms: N_1  and  C_2
REMARK    2  A    between atoms: C_2  and  C_3
REMARK    3  A    between atoms: C_3  and  N_4
REMARK    4  A    between atoms: C_3  and  C_20
REMARK    5  A    between atoms: N_4  and  C_5
REMARK    6  A    between atoms: C_5  and  C_6
REMARK    7  A    between atoms: C_9  and  C_10
REMARK    8  A    between atoms: C_10  and  O_11
REMARK    9  A    between atoms: O_11  and  C_12
REMARK   10  A    between atoms: C_12  and  C_13
REMARK                            x       y       z     vdW  Elec       q    Type
REMARK                         _______ _______ _______ _____ _____    ______ ____
ROOT
ATOM      1  N   UNL     1      49.746   6.714  14.800  0.00  0.00    +0.000 NA
ATOM      2  H   UNL     1      49.133   6.079  15.308  0.00  0.00    +0.000 HD
ENDROOT
BRANCH   1   3
ATOM      3  C   UNL     1      50.052   7.850  15.695  0.00  0.00    +0.000 C 
BRANCH   3   4
ATOM      4  C   UNL     1      49.222   7.680  16.962  0.00  0.00    +0.000 A 
ATOM      5  C   UNL     1      48.315   8.607  17.459  0.00  0.00    +0.000 A 
ATOM      6  S   UNL     1      47.529   8.089  18.882  0.00  0.00    +0.000 S 
ATOM      7  C   UNL     1      48.342   6.594  18.858  0.00  0.00    +0.000 A 
ATOM      8  N   UNL     1      48.107   5.643  19.801  0.00  0.00    +0.000 NA
ATOM      9  C   UNL     1      48.782   4.555  19.636  0.00  0.00    +0.000 A 
ATOM     10  N   UNL     1      49.678   4.330  18.621  0.00  0.00    +0.000 N 
ATOM     11  C   UNL     1      49.956   5.261  17.646  0.00  0.00    +0.000 A 
ATOM     12  O   UNL     1      50.758   5.035  16.749  0.00  0.00    +0.000 OA
ATOM     13  C   UNL     1      49.215   6.502  17.790  0.00  0.00    +0.000 A 
ATOM     14  H   UNL     1      50.168   3.453  18.548  0.00  0.00    +0.000 HD
ENDBRANCH   3   4
BRANCH   3  15
ATOM     15  C   UNL     1      51.567   8.010  16.046  0.00  0.00    +0.000 C 
BRANCH  15  16
ATOM     16  N   UNL     1      52.440   7.011  15.414  0.00  0.00    +0.000 NA
ATOM     17  H   UNL     1      53.214   7.476  14.944  0.00  0.00    +0.000 HD
ATOM     18  H   UNL     1      51.898   6.521  14.701  0.00  0.00    +0.000 HD
ENDBRANCH  15  16
ENDBRANCH   3  15
ENDBRANCH   1   3
BRANCH   1  19
ATOM     19  C   UNL     1      49.063   7.136  13.571  0.00  0.00    +0.000 C 
BRANCH  19  20
ATOM     20  C   UNL     1      47.872   6.262  13.227  0.00  0.00    +0.000 A 
ATOM     21  C   UNL     1      47.038   6.578  12.154  0.00  0.00    +0.000 A 
ATOM     22  C   UNL     1      45.963   5.741  11.869  0.00  0.00    +0.000 A 
ATOM     23  C   UNL     1      45.744   4.602  12.648  0.00  0.00    +0.000 A 
ATOM     24  C   UNL     1      46.631   4.362  13.686  0.00  0.00    +0.000 A 
ATOM     25  N   UNL     1      47.681   5.158  13.991  0.00  0.00    +0.000 NA
BRANCH  23  26
ATOM     26  C   UNL     1      44.598   3.675  12.379  0.00  0.00    +0.000 C 
BRANCH  26  27
ATOM     27  O   UNL     1      44.135   3.911  11.055  0.00  0.00    +0.000 OA
BRANCH  27  28
ATOM     28  C   UNL     1      44.171   2.718  10.268  0.00  0.00    +0.000 C 
BRANCH  28  29
ATOM     29  C   UNL     1      45.079   2.869   9.095  0.00  0.00    +0.000 A 
ATOM     30  C   UNL     1      45.354   3.998   8.348  0.00  0.00    +0.000 A 
ATOM     31  N   UNL     1      46.242   3.595   7.394  0.00  0.00    +0.000 N 
ATOM     32  C   UNL     1      46.484   2.266   7.592  0.00  0.00    +0.000 A 
ATOM     33  N   UNL     1      45.805   1.800   8.615  0.00  0.00    +0.000 NA
ATOM     34  H   UNL     1      46.646   4.169   6.668  0.00  0.00    +0.000 HD
ENDBRANCH  28  29
ENDBRANCH  27  28
ENDBRANCH  26  27
ENDBRANCH  23  26
ENDBRANCH  19  20
ENDBRANCH   1  19
TORSDOF 10
ENDMDL
MODEL 7
REMARK VINA RESULT:    -6.208      3.570      8.061
REMARK INTER + INTRA:         -10.777
REMARK INTER:                  -8.858
REMARK INTRA:                  -1.920
REMARK UNBOUND:                -1.122
REMARK  Name = 
REMARK  10 active torsions:
REMARK  status: ('A' for Active; 'I' for Inactive)
REMARK    1  A    between atoms: N_1  and  C_2
REMARK    2  A    between atoms: C_2  and  C_3
REMARK    3  A    between atoms: C_3  and  N_4
REMARK    4  A    between atoms: C_3  and  C_20
REMARK    5  A    between atoms: N_4  and  C_5
REMARK    6  A    between atoms: C_5  and  C_6
REMARK    7  A    between atoms: C_9  and  C_10
REMARK    8  A    between atoms: C_10  and  O_11
REMARK    9  A    between atoms: O_11  and  C_12
REMARK   10  A    between atoms: C_12  and  C_13
REMARK                            x       y       z     vdW  Elec       q    Type
REMARK                         _______ _______ _______ _____ _____    ______ ____
ROOT
ATOM      1  N   UNL     1      47.154   8.931  14.219  0.00  0.00    +0.000 NA
ATOM      2  H   UNL     1      46.416   8.726  14.891  0.00  0.00    +0.000 HD
ENDROOT
BRANCH   1   3
ATOM      3  C   UNL     1      47.520   7.662  13.557  0.00  0.00    +0.000 C 
BRANCH   3   4
ATOM      4  C   UNL     1      46.277   7.130  12.852  0.00  0.00    +0.000 A 
ATOM      5  C   UNL     1      45.366   7.902  12.141  0.00  0.00    +0.000 A 
ATOM      6  S   UNL     1      44.103   6.988  11.448  0.00  0.00    +0.000 S 
ATOM      7  C   UNL     1      44.754   5.529  12.037  0.00  0.00    +0.000 A 
ATOM      8  N   UNL     1      44.165   4.333  11.774  0.00  0.00    +0.000 NA
ATOM      9  C   UNL     1      44.788   3.316  12.269  0.00  0.00    +0.000 A 
ATOM     10  N   UNL     1      45.941   3.383  13.012  0.00  0.00    +0.000 N 
ATOM     11  C   UNL     1      46.572   4.570  13.310  0.00  0.00    +0.000 A 
ATOM     12  O   UNL     1      47.601   4.603  13.972  0.00  0.00    +0.000 OA
ATOM     13  C   UNL     1      45.907   5.742  12.769  0.00  0.00    +0.000 A 
ATOM     14  H   UNL     1      46.379   2.547  13.364  0.00  0.00    +0.000 HD
ENDBRANCH   3   4
BRANCH   3  15
ATOM     15  C   UNL     1      48.715   7.775  12.554  0.00  0.00    +0.000 C 
BRANCH  15  16
ATOM     16  N   UNL     1      49.695   6.685  12.659  0.00  0.00    +0.000 NA
ATOM     17  H   UNL     1      50.374   6.756  11.904  0.00  0.00    +0.000 HD
ATOM     18  H   UNL     1      49.199   5.799  12.543  0.00  0.00    +0.000 HD
ENDBRANCH  15  16
ENDBRANCH   3  15
ENDBRANCH   1   3
BRANCH   1  19
ATOM     19  C   UNL     1      48.283   9.535  14.938  0.00  0.00    +0.000 C 
BRANCH  19  20
ATOM     20  C   UNL     1      48.625   8.804  16.222  0.00  0.00    +0.000 A 
ATOM     21  C   UNL     1      49.714   7.934  16.283  0.00  0.00    +0.000 A 
ATOM     22  C   UNL     1      49.996   7.293  17.486  0.00  0.00    +0.000 A 
ATOM     23  C   UNL     1      49.198   7.536  18.606  0.00  0.00    +0.000 A 
ATOM     24  C   UNL     1      48.144   8.425  18.454  0.00  0.00    +0.000 A 
ATOM     25  N   UNL     1      47.841   9.058  17.299  0.00  0.00    +0.000 NA
BRANCH  23  26
ATOM     26  C   UNL     1      49.463   6.866  19.921  0.00  0.00    +0.000 C 
BRANCH  26  27
ATOM     27  O   UNL     1      48.466   5.872  20.121  0.00  0.00    +0.000 OA
BRANCH  27  28
ATOM     28  C   UNL     1      48.964   4.565  19.822  0.00  0.00    +0.000 C 
BRANCH  28  29
ATOM     29  C   UNL     1      48.370   4.033  18.562  0.00  0.00    +0.000 A 
ATOM     30  C   UNL     1      47.256   4.472  17.873  0.00  0.00    +0.000 A 
ATOM     31  N   UNL     1      47.145   3.643  16.796  0.00  0.00    +0.000 N 
ATOM     32  C   UNL     1      48.178   2.752  16.854  0.00  0.00    +0.000 A 
ATOM     33  N   UNL     1      48.941   2.965  17.901  0.00  0.00    +0.000 NA
ATOM     34  H   UNL     1      46.429   3.674  16.084  0.00  0.00    +0.000 HD
ENDBRANCH  28  29
ENDBRANCH  27  28
ENDBRANCH  26  27
ENDBRANCH  23  26
ENDBRANCH  19  20
ENDBRANCH   1  19
TORSDOF 10
ENDMDL
MODEL 8
REMARK VINA RESULT:    -5.735      2.504      3.559
REMARK INTER + INTRA:         -10.042
REMARK INTER:                  -9.088
REMARK INTRA:                  -0.954
REMARK UNBOUND:                -1.122
REMARK  Name = 
REMARK  10 active torsions:
REMARK  status: ('A' for Active; 'I' for Inactive)
REMARK    1  A    between atoms: N_1  and  C_2
REMARK    2  A    between atoms: C_2  and  C_3
REMARK    3  A    between atoms: C_3  and  N_4
REMARK    4  A    between atoms: C_3  and  C_20
REMARK    5  A    between atoms: N_4  and  C_5
REMARK    6  A    between atoms: C_5  and  C_6
REMARK    7  A    between atoms: C_9  and  C_10
REMARK    8  A    between atoms: C_10  and  O_11
REMARK    9  A    between atoms: O_11  and  C_12
REMARK   10  A    between atoms: C_12  and  C_13
REMARK                            x       y       z     vdW  Elec       q    Type
REMARK                         _______ _______ _______ _____ _____    ______ ____
ROOT
ATOM      1  N   UNL     1      50.157   6.655  15.072  0.00  0.00    +0.000 NA
ATOM      2  H   UNL     1      49.637   5.842  15.396  0.00  0.00    +0.000 HD
ENDROOT
BRANCH   1   3
ATOM      3  C   UNL     1      50.805   7.271  16.249  0.00  0.00    +0.000 C 
BRANCH   3   4
ATOM      4  C   UNL     1      50.824   6.232  17.365  0.00  0.00    +0.000 A 
ATOM      5  C   UNL     1      51.859   5.339  17.611  0.00  0.00    +0.000 A 
ATOM      6  S   UNL     1      51.576   4.331  18.959  0.00  0.00    +0.000 S 
ATOM      7  C   UNL     1      50.083   5.083  19.282  0.00  0.00    +0.000 A 
ATOM      8  N   UNL     1      49.317   4.711  20.342  0.00  0.00    +0.000 NA
ATOM      9  C   UNL     1      48.224   5.388  20.469  0.00  0.00    +0.000 A 
ATOM     10  N   UNL     1      47.820   6.397  19.630  0.00  0.00    +0.000 N 
ATOM     11  C   UNL     1      48.557   6.806  18.541  0.00  0.00    +0.000 A 
ATOM     12  O   UNL     1      48.177   7.711  17.810  0.00  0.00    +0.000 OA
ATOM     13  C   UNL     1      49.798   6.073  18.361  0.00  0.00    +0.000 A 
ATOM     14  H   UNL     1      46.956   6.890  19.791  0.00  0.00    +0.000 HD
ENDBRANCH   3   4
BRANCH   3  15
ATOM     15  C   UNL     1      52.245   7.820  15.984  0.00  0.00    +0.000 C 
BRANCH  15  16
ATOM     16  N   UNL     1      52.827   7.390  14.705  0.00  0.00    +0.000 NA
ATOM     17  H   UNL     1      53.244   6.468  14.807  0.00  0.00    +0.000 HD
ATOM     18  H   UNL     1      53.577   8.041  14.463  0.00  0.00    +0.000 HD
ENDBRANCH  15  16
ENDBRANCH   3  15
ENDBRANCH   1   3
BRANCH   1  19
ATOM     19  C   UNL     1      49.222   7.569  14.405  0.00  0.00    +0.000 C 
BRANCH  19  20
ATOM     20  C   UNL     1      48.023   6.856  13.808  0.00  0.00    +0.000 A 
ATOM     21  C   UNL     1      47.106   7.542  13.011  0.00  0.00    +0.000 A 
ATOM     22  C   UNL     1      46.027   6.844  12.475  0.00  0.00    +0.000 A 
ATOM     23  C   UNL     1      45.886   5.479  12.734  0.00  0.00    +0.000 A 
ATOM     24  C   UNL     1      46.852   4.880  13.528  0.00  0.00    +0.000 A 
ATOM     25  N   UNL     1      47.907   5.530  14.067  0.00  0.00    +0.000 NA
BRANCH  23  26
ATOM     26  C   UNL     1      44.738   4.689  12.182  0.00  0.00    +0.000 C 
BRANCH  26  27
ATOM     27  O   UNL     1      44.458   5.168  10.872  0.00  0.00    +0.000 OA
BRANCH  27  28
ATOM     28  C   UNL     1      43.867   4.152  10.059  0.00  0.00    +0.000 C 
BRANCH  28  29
ATOM     29  C   UNL     1      44.853   3.587   9.093  0.00  0.00    +0.000 A 
ATOM     30  C   UNL     1      45.293   2.285   8.961  0.00  0.00    +0.000 A 
ATOM     31  N   UNL     1      46.192   2.307   7.936  0.00  0.00    +0.000 N 
ATOM     32  C   UNL     1      46.261   3.591   7.477  0.00  0.00    +0.000 A 
ATOM     33  N   UNL     1      45.459   4.386   8.147  0.00  0.00    +0.000 NA
ATOM     34  H   UNL     1      46.717   1.521   7.579  0.00  0.00    +0.000 HD
ENDBRANCH  28  29
ENDBRANCH  27  28
ENDBRANCH  26  27
ENDBRANCH  23  26
ENDBRANCH  19  20
ENDBRANCH   1  19
TORSDOF 10
ENDMDL
MODEL 9
REMARK VINA RESULT:    -5.294      2.683      4.323
REMARK INTER + INTRA:          -9.355
REMARK INTER:                  -8.205
REMARK INTRA:                  -1.150
REMARK UNBOUND:                -1.122
REMARK  Name = 
REMARK  10 active torsions:
REMARK  status: ('A' for Active; 'I' for Inactive)
REMARK    1  A    between atoms: N_1  and  C_2
REMARK    2  A    between atoms: C_2  and  C_3
REMARK    3  A    between atoms: C_3  and  N_4
REMARK    4  A    between atoms: C_3  and  C_20
REMARK    5  A    between atoms: N_4  and  C_5
REMARK    6  A    between atoms: C_5  and  C_6
REMARK    7  A    between atoms: C_9  and  C_10
REMARK    8  A    between atoms: C_10  and  O_11
REMARK    9  A    between atoms: O_11  and  C_12
REMARK   10  A    between atoms: C_12  and  C_13
REMARK                            x       y       z     vdW  Elec       q    Type
REMARK                         _______ _______ _______ _____ _____    ______ ____
ROOT
ATOM      1  N   UNL     1      51.631   6.519  16.334  0.00  0.00    +0.000 NA
ATOM      2  H   UNL     1      50.915   5.844  16.070  0.00  0.00    +0.000 HD
ENDROOT
BRANCH   1   3
ATOM      3  C   UNL     1      51.503   6.761  17.786  0.00  0.00    +0.000 C 
BRANCH   3   4
ATOM      4  C   UNL     1      50.029   6.628  18.151  0.00  0.00    +0.000 A 
ATOM      5  C   UNL     1      49.245   7.633  18.703  0.00  0.00    +0.000 A 
ATOM      6  S   UNL     1      47.624   7.162  18.960  0.00  0.00    +0.000 S 
ATOM      7  C   UNL     1      47.907   5.616  18.304  0.00  0.00    +0.000 A 
ATOM      8  N   UNL     1      46.910   4.699  18.195  0.00  0.00    +0.000 NA
ATOM      9  C   UNL     1      47.273   3.583  17.657  0.00  0.00    +0.000 A 
ATOM     10  N   UNL     1      48.543   3.294  17.224  0.00  0.00    +0.000 N 
ATOM     11  C   UNL     1      49.588   4.186  17.317  0.00  0.00    +0.000 A 
ATOM     12  O   UNL     1      50.712   3.905  16.921  0.00  0.00    +0.000 OA
ATOM     13  C   UNL     1      49.224   5.459  17.914  0.00  0.00    +0.000 A 
ATOM     14  H   UNL     1      48.758   2.402  16.807  0.00  0.00    +0.000 HD
ENDBRANCH   3   4
BRANCH   3  15
ATOM     15  C   UNL     1      52.378   5.823  18.680  0.00  0.00    +0.000 C 
BRANCH  15  16
ATOM     16  N   UNL     1      53.343   5.005  17.932  0.00  0.00    +0.000 NA
ATOM     17  H   UNL     1      52.911   4.126  17.657  0.00  0.00    +0.000 HD
ATOM     18  H   UNL     1      54.121   4.783  18.554  0.00  0.00    +0.000 HD
ENDBRANCH  15  16
ENDBRANCH   3  15
ENDBRANCH   1   3
BRANCH   1  19
ATOM     19  C   UNL     1      51.435   7.739  15.542  0.00  0.00    +0.000 C 
BRANCH  19  20
ATOM     20  C   UNL     1      50.356   7.592  14.486  0.00  0.00    +0.000 A 
ATOM     21  C   UNL     1      50.453   8.259  13.265  0.00  0.00    +0.000 A 
ATOM     22  C   UNL     1      49.444   8.086  12.322  0.00  0.00    +0.000 A 
ATOM     23  C   UNL     1      48.363   7.247  12.607  0.00  0.00    +0.000 A 
ATOM     24  C   UNL     1      48.357   6.618  13.843  0.00  0.00    +0.000 A 
ATOM     25  N   UNL     1      49.319   6.769  14.781  0.00  0.00    +0.000 NA
BRANCH  23  26
ATOM     26  C   UNL     1      47.252   7.034  11.624  0.00  0.00    +0.000 C 
BRANCH  26  27
ATOM     27  O   UNL     1      46.532   5.872  12.014  0.00  0.00    +0.000 OA
BRANCH  27  28
ATOM     28  C   UNL     1      45.235   5.834  11.412  0.00  0.00    +0.000 C 
BRANCH  28  29
ATOM     29  C   UNL     1      44.563   4.524  11.654  0.00  0.00    +0.000 A 
ATOM     30  C   UNL     1      44.395   3.840  12.841  0.00  0.00    +0.000 A 
ATOM     31  N   UNL     1      43.722   2.700  12.511  0.00  0.00    +0.000 N 
ATOM     32  C   UNL     1      43.496   2.731  11.165  0.00  0.00    +0.000 A 
ATOM     33  N   UNL     1      43.982   3.822  10.619  0.00  0.00    +0.000 NA
ATOM     34  H   UNL     1      43.443   1.962  13.142  0.00  0.00    +0.000 HD
ENDBRANCH  28  29
ENDBRANCH  27  28
ENDBRANCH  26  27
ENDBRANCH  23  26
ENDBRANCH  19  20
ENDBRANCH   1  19
TORSDOF 10
ENDMDL
