MODEL 1
REMARK VINA RESULT:    -8.148      0.000      0.000
REMARK INTER + INTRA:         -13.175
REMARK INTER:                 -11.959
REMARK INTRA:                  -1.217
REMARK UNBOUND:                -1.217
REMARK  Name = 
REMARK  9 active torsions:
REMARK  status: ('A' for Active; 'I' for Inactive)
REMARK    1  A    between atoms: C_1  and  O_2
REMARK    2  A    between atoms: O_2  and  C_3
REMARK    3  A    between atoms: C_10  and  C_11
REMARK    4  A    between atoms: N_13  and  C_14
REMARK    5  A    between atoms: C_14  and  C_15
REMARK    6  A    between atoms: C_18  and  C_19
REMARK    7  A    between atoms: C_19  and  O_20
REMARK    8  A    between atoms: O_20  and  C_21
REMARK    9  A    between atoms: C_21  and  C_22
REMARK                            x       y       z     vdW  Elec       q    Type
REMARK                         _______ _______ _______ _____ _____    ______ ____
ROOT
ATOM      1  C   UNL     1      47.990   6.877  13.233  0.00  0.00    +0.000 C 
ENDROOT
BRANCH   1   2
ATOM      2  C   UNL     1      46.888   6.018  12.669  0.00  0.00    +0.000 A 
ATOM      3  C   UNL     1      46.355   4.954  13.407  0.00  0.00    +0.000 A 
ATOM      4  C   UNL     1      45.301   4.189  12.896  0.00  0.00    +0.000 A 
ATOM      5  C   UNL     1      44.764   4.464  11.630  0.00  0.00    +0.000 A 
ATOM      6  C   UNL     1      45.326   5.503  10.875  0.00  0.00    +0.000 A 
ATOM      7  C   UNL     1      46.380   6.267  11.387  0.00  0.00    +0.000 A 
BRANCH   5   8
ATOM      8  C   UNL     1      43.602   3.662  11.096  0.00  0.00    +0.000 C 
BRANCH   8   9
ATOM      9  O   UNL     1      43.840   3.370   9.722  0.00  0.00    +0.000 OA
BRANCH   9  10
ATOM     10  C   UNL     1      44.508   2.116   9.552  0.00  0.00    +0.000 C 
BRANCH  10  11
ATOM     11  C   UNL     1      45.556   2.201   8.464  0.00  0.00    +0.000 A 
ATOM     12  C   UNL     1      45.770   3.391   7.769  0.00  0.00    +0.000 A 
ATOM     13  C   UNL     1      46.747   3.433   6.779  0.00  0.00    +0.000 A 
ATOM     14  C   UNL     1      47.496   2.294   6.515  0.00  0.00    +0.000 A 
ATOM     15  C   UNL     1      47.241   1.157   7.264  0.00  0.00    +0.000 A 
ATOM     16  N   UNL     1      46.299   1.086   8.231  0.00  0.00    +0.000 NA
ENDBRANCH  10  11
ENDBRANCH   9  10
ENDBRANCH   8   9
ENDBRANCH   5   8
ENDBRANCH   1   2
BRANCH   1  19
ATOM     17  C   UNL     1      49.135   6.945  15.404  0.00  0.00    +0.000 C 
ATOM     18  O   UNL     1      50.232   6.981  14.854  0.00  0.00    +0.000 OA
ATOM     19  N   UNL     1      47.979   6.880  14.674  0.00  0.00    +0.000 N 
ATOM     20  H   UNL     1      47.084   6.795  15.138  0.00  0.00    +0.000 HD
BRANCH  17  28
ATOM     21  C   UNL     1      48.887   4.517  17.843  0.00  0.00    +0.000 A 
ATOM     22  N   UNL     1      48.696   3.801  18.971  0.00  0.00    +0.000 NA
ATOM     23  C   UNL     1      48.532   4.462  20.118  0.00  0.00    +0.000 A 
ATOM     24  N   UNL     1      48.542   5.782  20.289  0.00  0.00    +0.000 NA
ATOM     25  C   UNL     1      48.722   6.458  19.143  0.00  0.00    +0.000 A 
ATOM     26  S   UNL     1      48.776   8.154  19.177  0.00  0.00    +0.000 S 
ATOM     27  C   UNL     1      48.984   8.230  17.494  0.00  0.00    +0.000 A 
ATOM     28  C   UNL     1      49.012   6.987  16.872  0.00  0.00    +0.000 A 
ATOM     29  C   UNL     1      48.885   5.924  17.868  0.00  0.00    +0.000 A 
BRANCH  21  31
ATOM     30  C   UNL     1      47.982   3.081  16.217  0.00  0.00    +0.000 C 
ATOM     31  O   UNL     1      49.109   3.834  16.664  0.00  0.00    +0.000 OA
ENDBRANCH  21  31
ENDBRANCH  17  28
ENDBRANCH   1  19
TORSDOF 8
ENDMDL
MODEL 2
REMARK VINA RESULT:    -7.860      1.430      2.395
REMARK INTER + INTRA:         -12.753
REMARK INTER:                 -11.663
REMARK INTRA:                  -1.089
REMARK UNBOUND:                -1.217
REMARK  Name = 
REMARK  9 active torsions:
REMARK  status: ('A' for Active; 'I' for Inactive)
REMARK    1  A    between atoms: C_1  and  O_2
REMARK    2  A    between atoms: O_2  and  C_3
REMARK    3  A    between atoms: C_10  and  C_11
REMARK    4  A    between atoms: N_13  and  C_14
REMARK    5  A    between atoms: C_14  and  C_15
REMARK    6  A    between atoms: C_18  and  C_19
REMARK    7  A    between atoms: C_19  and  O_20
REMARK    8  A    between atoms: O_20  and  C_21
REMARK    9  A    between atoms: C_21  and  C_22
REMARK                            x       y       z     vdW  Elec       q    Type
REMARK                         _______ _______ _______ _____ _____    ______ ____
ROOT
ATOM      1  C   UNL     1      48.013   6.651  13.715  0.00  0.00    +0.000 C 
ENDROOT
BRANCH   1   2
ATOM      2  C   UNL     1      46.883   6.036  12.931  0.00  0.00    +0.000 A 
ATOM      3  C   UNL     1      46.067   5.049  13.498  0.00  0.00    +0.000 A 
ATOM      4  C   UNL     1      44.991   4.514  12.781  0.00  0.00    +0.000 A 
ATOM      5  C   UNL     1      44.714   4.946  11.475  0.00  0.00    +0.000 A 
ATOM      6  C   UNL     1      45.558   5.903  10.894  0.00  0.00    +0.000 A 
ATOM      7  C   UNL     1      46.633   6.437  11.612  0.00  0.00    +0.000 A 
BRANCH   5   8
ATOM      8  C   UNL     1      43.531   4.396  10.717  0.00  0.00    +0.000 C 
BRANCH   8   9
ATOM      9  O   UNL     1      43.978   3.926   9.449  0.00  0.00    +0.000 OA
BRANCH   9  10
ATOM     10  C   UNL     1      44.544   2.614   9.536  0.00  0.00    +0.000 C 
BRANCH  10  11
ATOM     11  C   UNL     1      45.576   2.394   8.451  0.00  0.00    +0.000 A 
ATOM     12  C   UNL     1      45.980   3.443   7.626  0.00  0.00    +0.000 A 
ATOM     13  C   UNL     1      46.936   3.203   6.643  0.00  0.00    +0.000 A 
ATOM     14  C   UNL     1      47.475   1.930   6.515  0.00  0.00    +0.000 A 
ATOM     15  C   UNL     1      47.039   0.947   7.388  0.00  0.00    +0.000 A 
ATOM     16  N   UNL     1      46.113   1.149   8.352  0.00  0.00    +0.000 NA
ENDBRANCH  10  11
ENDBRANCH   9  10
ENDBRANCH   8   9
ENDBRANCH   5   8
ENDBRANCH   1   2
BRANCH   1  19
ATOM     17  C   UNL     1      48.977   6.372  15.955  0.00  0.00    +0.000 C 
ATOM     18  O   UNL     1      50.110   6.561  15.520  0.00  0.00    +0.000 OA
ATOM     19  N   UNL     1      47.888   6.388  15.126  0.00  0.00    +0.000 N 
ATOM     20  H   UNL     1      46.967   6.176  15.485  0.00  0.00    +0.000 HD
BRANCH  17  28
ATOM     21  C   UNL     1      47.872   8.369  18.544  0.00  0.00    +0.000 A 
ATOM     22  N   UNL     1      47.551   8.925  19.731  0.00  0.00    +0.000 NA
ATOM     23  C   UNL     1      47.612   8.161  20.823  0.00  0.00    +0.000 A 
ATOM     24  N   UNL     1      47.953   6.876  20.882  0.00  0.00    +0.000 NA
ATOM     25  C   UNL     1      48.276   6.363  19.683  0.00  0.00    +0.000 A 
ATOM     26  S   UNL     1      48.724   4.730  19.570  0.00  0.00    +0.000 S 
ATOM     27  C   UNL     1      48.976   4.864  17.897  0.00  0.00    +0.000 A 
ATOM     28  C   UNL     1      48.736   6.137  17.390  0.00  0.00    +0.000 A 
ATOM     29  C   UNL     1      48.286   7.027  18.460  0.00  0.00    +0.000 A 
BRANCH  21  31
ATOM     30  C   UNL     1      48.926   9.913  17.119  0.00  0.00    +0.000 C 
ATOM     31  O   UNL     1      47.759   9.143  17.406  0.00  0.00    +0.000 OA
ENDBRANCH  21  31
ENDBRANCH  17  28
ENDBRANCH   1  19
TORSDOF 8
ENDMDL
MODEL 3
REMARK VINA RESULT:    -7.205      1.599      2.372
REMARK INTER + INTRA:         -11.792
REMARK INTER:                 -10.814
REMARK INTRA:                  -0.978
REMARK UNBOUND:                -1.217
REMARK  Name = 
REMARK  9 active torsions:
REMARK  status: ('A' for Active; 'I' for Inactive)
REMARK    1  A    between atoms: C_1  and  O_2
REMARK    2  A    between atoms: O_2  and  C_3
REMARK    3  A    between atoms: C_10  and  C_11
REMARK    4  A    between atoms: N_13  and  C_14
REMARK    5  A    between atoms: C_14  and  C_15
REMARK    6  A    between atoms: C_18  and  C_19
REMARK    7  A    between atoms: C_19  and  O_20
REMARK    8  A    between atoms: O_20  and  C_21
REMARK    9  A    between atoms: C_21  and  C_22
REMARK                            x       y       z     vdW  Elec       q    Type
REMARK                         _______ _______ _______ _____ _____    ______ ____
ROOT
ATOM      1  C   UNL     1      47.428   4.241  14.991  0.00  0.00    +0.000 C 
ENDROOT
BRANCH   1   2
ATOM      2  C   UNL     1      46.498   4.367  13.812  0.00  0.00    +0.000 A 
ATOM      3  C   UNL     1      46.055   3.232  13.120  0.00  0.00    +0.000 A 
ATOM      4  C   UNL     1      45.156   3.353  12.054  0.00  0.00    +0.000 A 
ATOM      5  C   UNL     1      44.689   4.613  11.649  0.00  0.00    +0.000 A 
ATOM      6  C   UNL     1      45.167   5.750  12.316  0.00  0.00    +0.000 A 
ATOM      7  C   UNL     1      46.065   5.628  13.380  0.00  0.00    +0.000 A 
BRANCH   5   8
ATOM      8  C   UNL     1      43.691   4.738  10.524  0.00  0.00    +0.000 C 
BRANCH   8   9
ATOM      9  O   UNL     1      44.044   3.820   9.494  0.00  0.00    +0.000 OA
BRANCH   9  10
ATOM     10  C   UNL     1      45.035   4.361   8.615  0.00  0.00    +0.000 C 
BRANCH  10  11
ATOM     11  C   UNL     1      45.849   3.259   7.970  0.00  0.00    +0.000 A 
ATOM     12  C   UNL     1      46.694   3.531   6.894  0.00  0.00    +0.000 A 
ATOM     13  C   UNL     1      47.431   2.493   6.332  0.00  0.00    +0.000 A 
ATOM     14  C   UNL     1      47.319   1.215   6.863  0.00  0.00    +0.000 A 
ATOM     15  C   UNL     1      46.478   1.030   7.947  0.00  0.00    +0.000 A 
ATOM     16  N   UNL     1      45.749   2.017   8.514  0.00  0.00    +0.000 NA
ENDBRANCH  10  11
ENDBRANCH   9  10
ENDBRANCH   8   9
ENDBRANCH   5   8
ENDBRANCH   1   2
BRANCH   1  19
ATOM     17  C   UNL     1      48.583   5.750  16.545  0.00  0.00    +0.000 C 
ATOM     18  O   UNL     1      49.501   4.946  16.685  0.00  0.00    +0.000 OA
ATOM     19  N   UNL     1      47.515   5.472  15.735  0.00  0.00    +0.000 N 
ATOM     20  H   UNL     1      46.739   6.116  15.671  0.00  0.00    +0.000 HD
BRANCH  17  28
ATOM     21  C   UNL     1      47.830   6.767  19.756  0.00  0.00    +0.000 A 
ATOM     22  N   UNL     1      47.529   7.443  20.884  0.00  0.00    +0.000 NA
ATOM     23  C   UNL     1      47.661   8.770  20.879  0.00  0.00    +0.000 A 
ATOM     24  N   UNL     1      48.073   9.529  19.866  0.00  0.00    +0.000 NA
ATOM     25  C   UNL     1      48.350   8.821  18.759  0.00  0.00    +0.000 A 
ATOM     26  S   UNL     1      48.903   9.628  17.372  0.00  0.00    +0.000 S 
ATOM     27  C   UNL     1      48.987   8.174  16.500  0.00  0.00    +0.000 A 
ATOM     28  C   UNL     1      48.597   7.056  17.228  0.00  0.00    +0.000 A 
ATOM     29  C   UNL     1      48.244   7.443  18.593  0.00  0.00    +0.000 A 
BRANCH  21  31
ATOM     30  C   UNL     1      48.923   4.749  20.262  0.00  0.00    +0.000 C 
ATOM     31  O   UNL     1      47.744   5.389  19.775  0.00  0.00    +0.000 OA
ENDBRANCH  21  31
ENDBRANCH  17  28
ENDBRANCH   1  19
TORSDOF 8
ENDMDL
MODEL 4
REMARK VINA RESULT:    -7.163      1.689      3.118
REMARK INTER + INTRA:         -11.729
REMARK INTER:                 -10.352
REMARK INTRA:                  -1.378
REMARK UNBOUND:                -1.217
REMARK  Name = 
REMARK  9 active torsions:
REMARK  status: ('A' for Active; 'I' for Inactive)
REMARK    1  A    between atoms: C_1  and  O_2
REMARK    2  A    between atoms: O_2  and  C_3
REMARK    3  A    between atoms: C_10  and  C_11
REMARK    4  A    between atoms: N_13  and  C_14
REMARK    5  A    between atoms: C_14  and  C_15
REMARK    6  A    between atoms: C_18  and  C_19
REMARK    7  A    between atoms: C_19  and  O_20
REMARK    8  A    between atoms: O_20  and  C_21
REMARK    9  A    between atoms: C_21  and  C_22
REMARK                            x       y       z     vdW  Elec       q    Type
REMARK                         _______ _______ _______ _____ _____    ______ ____
ROOT
ATOM      1  C   UNL     1      47.507   4.008  15.026  0.00  0.00    +0.000 C 
ENDROOT
BRANCH   1   2
ATOM      2  C   UNL     1      46.533   4.216  13.895  0.00  0.00    +0.000 A 
ATOM      3  C   UNL     1      46.124   3.144  13.091  0.00  0.00    +0.000 A 
ATOM      4  C   UNL     1      45.185   3.335  12.072  0.00  0.00    +0.000 A 
ATOM      5  C   UNL     1      44.643   4.605  11.825  0.00  0.00    +0.000 A 
ATOM      6  C   UNL     1      45.085   5.684  12.603  0.00  0.00    +0.000 A 
ATOM      7  C   UNL     1      46.024   5.492  13.622  0.00  0.00    +0.000 A 
BRANCH   5   8
ATOM      8  C   UNL     1      43.602   4.802  10.751  0.00  0.00    +0.000 C 
BRANCH   8   9
ATOM      9  O   UNL     1      43.881   3.912   9.674  0.00  0.00    +0.000 OA
BRANCH   9  10
ATOM     10  C   UNL     1      44.784   4.490   8.725  0.00  0.00    +0.000 C 
BRANCH  10  11
ATOM     11  C   UNL     1      45.640   3.427   8.073  0.00  0.00    +0.000 A 
ATOM     12  C   UNL     1      45.662   2.123   8.567  0.00  0.00    +0.000 A 
ATOM     13  C   UNL     1      46.458   1.171   7.937  0.00  0.00    +0.000 A 
ATOM     14  C   UNL     1      47.200   1.537   6.822  0.00  0.00    +0.000 A 
ATOM     15  C   UNL     1      47.107   2.845   6.376  0.00  0.00    +0.000 A 
ATOM     16  N   UNL     1      46.344   3.791   6.967  0.00  0.00    +0.000 NA
ENDBRANCH  10  11
ENDBRANCH   9  10
ENDBRANCH   8   9
ENDBRANCH   5   8
ENDBRANCH   1   2
BRANCH   1  19
ATOM     17  C   UNL     1      48.639   5.337  16.752  0.00  0.00    +0.000 C 
ATOM     18  O   UNL     1      49.502   4.474  16.888  0.00  0.00    +0.000 OA
ATOM     19  N   UNL     1      47.612   5.177  15.860  0.00  0.00    +0.000 N 
ATOM     20  H   UNL     1      46.877   5.869  15.796  0.00  0.00    +0.000 HD
BRANCH  17  28
ATOM     21  C   UNL     1      48.638   8.677  15.882  0.00  0.00    +0.000 A 
ATOM     22  N   UNL     1      48.731  10.022  15.830  0.00  0.00    +0.000 NA
ATOM     23  C   UNL     1      48.857  10.690  16.978  0.00  0.00    +0.000 A 
ATOM     24  N   UNL     1      48.894  10.174  18.204  0.00  0.00    +0.000 NA
ATOM     25  C   UNL     1      48.812   8.834  18.212  0.00  0.00    +0.000 A 
ATOM     26  S   UNL     1      48.830   8.007  19.694  0.00  0.00    +0.000 S 
ATOM     27  C   UNL     1      48.724   6.504  18.914  0.00  0.00    +0.000 A 
ATOM     28  C   UNL     1      48.679   6.590  17.527  0.00  0.00    +0.000 A 
ATOM     29  C   UNL     1      48.700   7.992  17.109  0.00  0.00    +0.000 A 
BRANCH  21  31
ATOM     30  C   UNL     1      49.676   7.613  14.060  0.00  0.00    +0.000 C 
ATOM     31  O   UNL     1      48.456   7.987  14.700  0.00  0.00    +0.000 OA
ENDBRANCH  21  31
ENDBRANCH  17  28
ENDBRANCH   1  19
TORSDOF 8
ENDMDL
MODEL 5
REMARK VINA RESULT:    -6.936      2.247      3.313
REMARK INTER + INTRA:         -11.397
REMARK INTER:                 -10.342
REMARK INTRA:                  -1.055
REMARK UNBOUND:                -1.217
REMARK  Name = 
REMARK  9 active torsions:
REMARK  status: ('A' for Active; 'I' for Inactive)
REMARK    1  A    between atoms: C_1  and  O_2
REMARK    2  A    between atoms: O_2  and  C_3
REMARK    3  A    between atoms: C_10  and  C_11
REMARK    4  A    between atoms: N_13  and  C_14
REMARK    5  A    between atoms: C_14  and  C_15
REMARK    6  A    between atoms: C_18  and  C_19
REMARK    7  A    between atoms: C_19  and  O_20
REMARK    8  A    between atoms: O_20  and  C_21
REMARK    9  A    between atoms: C_21  and  C_22
REMARK                            x       y       z     vdW  Elec       q    Type
REMARK                         _______ _______ _______ _____ _____    ______ ____
ROOT
ATOM      1  C   UNL     1      47.068   7.543  13.128  0.00  0.00    +0.000 C 
ENDROOT
BRANCH   1   2
ATOM      2  C   UNL     1      46.092   6.511  12.623  0.00  0.00    +0.000 A 
ATOM      3  C   UNL     1      45.404   6.699  11.417  0.00  0.00    +0.000 A 
ATOM      4  C   UNL     1      44.535   5.717  10.932  0.00  0.00    +0.000 A 
ATOM      5  C   UNL     1      44.323   4.529  11.647  0.00  0.00    +0.000 A 
ATOM      6  C   UNL     1      44.980   4.360  12.874  0.00  0.00    +0.000 A 
ATOM      7  C   UNL     1      45.849   5.343  13.359  0.00  0.00    +0.000 A 
BRANCH   5   8
ATOM      8  C   UNL     1      43.414   3.454  11.103  0.00  0.00    +0.000 C 
BRANCH   8   9
ATOM      9  O   UNL     1      43.830   3.130   9.780  0.00  0.00    +0.000 OA
BRANCH   9  10
ATOM     10  C   UNL     1      44.821   2.098   9.770  0.00  0.00    +0.000 C 
BRANCH  10  11
ATOM     11  C   UNL     1      45.689   2.189   8.534  0.00  0.00    +0.000 A 
ATOM     12  C   UNL     1      45.820   3.391   7.839  0.00  0.00    +0.000 A 
ATOM     13  C   UNL     1      46.632   3.438   6.710  0.00  0.00    +0.000 A 
ATOM     14  C   UNL     1      47.304   2.291   6.309  0.00  0.00    +0.000 A 
ATOM     15  C   UNL     1      47.143   1.142   7.065  0.00  0.00    +0.000 A 
ATOM     16  N   UNL     1      46.362   1.066   8.165  0.00  0.00    +0.000 NA
ENDBRANCH  10  11
ENDBRANCH   9  10
ENDBRANCH   8   9
ENDBRANCH   5   8
ENDBRANCH   1   2
BRANCH   1  19
ATOM     17  C   UNL     1      48.619   7.601  15.030  0.00  0.00    +0.000 C 
ATOM     18  O   UNL     1      48.244   8.730  15.335  0.00  0.00    +0.000 OA
ATOM     19  N   UNL     1      48.095   6.950  13.945  0.00  0.00    +0.000 N 
ATOM     20  H   UNL     1      48.450   6.044  13.671  0.00  0.00    +0.000 HD
BRANCH  17  28
ATOM     21  C   UNL     1      52.064   7.742  15.170  0.00  0.00    +0.000 A 
ATOM     22  N   UNL     1      53.381   7.531  15.373  0.00  0.00    +0.000 NA
ATOM     23  C   UNL     1      53.743   6.584  16.239  0.00  0.00    +0.000 A 
ATOM     24  N   UNL     1      52.936   5.805  16.956  0.00  0.00    +0.000 NA
ATOM     25  C   UNL     1      51.635   6.037  16.717  0.00  0.00    +0.000 A 
ATOM     26  S   UNL     1      50.462   5.142  17.556  0.00  0.00    +0.000 S 
ATOM     27  C   UNL     1      49.202   5.939  16.746  0.00  0.00    +0.000 A 
ATOM     28  C   UNL     1      49.635   6.889  15.826  0.00  0.00    +0.000 A 
ATOM     29  C   UNL     1      51.095   6.967  15.833  0.00  0.00    +0.000 A 
BRANCH  21  31
ATOM     30  C   UNL     1      52.000   8.496  12.945  0.00  0.00    +0.000 C 
ATOM     31  O   UNL     1      51.688   8.756  14.313  0.00  0.00    +0.000 OA
ENDBRANCH  21  31
ENDBRANCH  17  28
ENDBRANCH   1  19
TORSDOF 8
ENDMDL
MODEL 6
REMARK VINA RESULT:    -6.778      4.525      9.378
REMARK INTER + INTRA:         -11.164
REMARK INTER:                 -10.184
REMARK INTRA:                  -0.980
REMARK UNBOUND:                -1.217
REMARK  Name = 
REMARK  9 active torsions:
REMARK  status: ('A' for Active; 'I' for Inactive)
REMARK    1  A    between atoms: C_1  and  O_2
REMARK    2  A    between atoms: O_2  and  C_3
REMARK    3  A    between atoms: C_10  and  C_11
REMARK    4  A    between atoms: N_13  and  C_14
REMARK    5  A    between atoms: C_14  and  C_15
REMARK    6  A    between atoms: C_18  and  C_19
REMARK    7  A    between atoms: C_19  and  O_20
REMARK    8  A    between atoms: O_20  and  C_21
REMARK    9  A    between atoms: C_21  and  C_22
REMARK                            x       y       z     vdW  Elec       q    Type
REMARK                         _______ _______ _______ _____ _____    ______ ____
ROOT
ATOM      1  C   UNL     1      47.305   3.322  16.686  0.00  0.00    +0.000 C 
ENDROOT
BRANCH   1   2
ATOM      2  C   UNL     1      48.765   3.412  17.050  0.00  0.00    +0.000 A 
ATOM      3  C   UNL     1      49.341   4.636  17.415  0.00  0.00    +0.000 A 
ATOM      4  C   UNL     1      50.686   4.705  17.795  0.00  0.00    +0.000 A 
ATOM      5  C   UNL     1      51.488   3.554  17.808  0.00  0.00    +0.000 A 
ATOM      6  C   UNL     1      50.920   2.338  17.403  0.00  0.00    +0.000 A 
ATOM      7  C   UNL     1      49.576   2.270  17.023  0.00  0.00    +0.000 A 
BRANCH   5   8
ATOM      8  C   UNL     1      52.927   3.624  18.256  0.00  0.00    +0.000 C 
BRANCH   8   9
ATOM      9  O   UNL     1      53.152   2.611  19.231  0.00  0.00    +0.000 OA
BRANCH   9  10
ATOM     10  C   UNL     1      54.508   2.151  19.220  0.00  0.00    +0.000 C 
BRANCH  10  11
ATOM     11  C   UNL     1      54.621   0.808  18.532  0.00  0.00    +0.000 A 
ATOM     12  C   UNL     1      54.752   0.722  17.147  0.00  0.00    +0.000 A 
ATOM     13  C   UNL     1      54.859  -0.531  16.551  0.00  0.00    +0.000 A 
ATOM     14  C   UNL     1      54.846  -1.666  17.350  0.00  0.00    +0.000 A 
ATOM     15  C   UNL     1      54.737  -1.498  18.721  0.00  0.00    +0.000 A 
ATOM     16  N   UNL     1      54.632  -0.295  19.328  0.00  0.00    +0.000 NA
ENDBRANCH  10  11
ENDBRANCH   9  10
ENDBRANCH   8   9
ENDBRANCH   5   8
ENDBRANCH   1   2
BRANCH   1  19
ATOM     17  C   UNL     1      46.898   4.264  14.456  0.00  0.00    +0.000 C 
ATOM     18  O   UNL     1      47.257   3.219  13.920  0.00  0.00    +0.000 OA
ATOM     19  N   UNL     1      46.904   4.400  15.818  0.00  0.00    +0.000 N 
ATOM     20  H   UNL     1      46.660   5.283  16.246  0.00  0.00    +0.000 HD
BRANCH  17  28
ATOM     21  C   UNL     1      44.055   4.871  12.596  0.00  0.00    +0.000 A 
ATOM     22  N   UNL     1      43.111   5.337  11.753  0.00  0.00    +0.000 NA
ATOM     23  C   UNL     1      43.295   6.536  11.199  0.00  0.00    +0.000 A 
ATOM     24  N   UNL     1      44.326   7.356  11.391  0.00  0.00    +0.000 NA
ATOM     25  C   UNL     1      45.249   6.851  12.226  0.00  0.00    +0.000 A 
ATOM     26  S   UNL     1      46.628   7.769  12.595  0.00  0.00    +0.000 S 
ATOM     27  C   UNL     1      47.242   6.538  13.589  0.00  0.00    +0.000 A 
ATOM     28  C   UNL     1      46.430   5.412  13.660  0.00  0.00    +0.000 A 
ATOM     29  C   UNL     1      45.219   5.615  12.865  0.00  0.00    +0.000 A 
BRANCH  21  31
ATOM     30  C   UNL     1      43.516   2.602  12.302  0.00  0.00    +0.000 C 
ATOM     31  O   UNL     1      43.842   3.653  13.211  0.00  0.00    +0.000 OA
ENDBRANCH  21  31
ENDBRANCH  17  28
ENDBRANCH   1  19
TORSDOF 8
ENDMDL
MODEL 7
REMARK VINA RESULT:    -6.707      1.995      2.770
REMARK INTER + INTRA:         -11.060
REMARK INTER:                 -10.053
REMARK INTRA:                  -1.007
REMARK UNBOUND:                -1.217
REMARK  Name = 
REMARK  9 active torsions:
REMARK  status: ('A' for Active; 'I' for Inactive)
REMARK    1  A    between atoms: C_1  and  O_2
REMARK    2  A    between atoms: O_2  and  C_3
REMARK    3  A    between atoms: C_10  and  C_11
REMARK    4  A    between atoms: N_13  and  C_14
REMARK    5  A    between atoms: C_14  and  C_15
REMARK    6  A    between atoms: C_18  and  C_19
REMARK    7  A    between atoms: C_19  and  O_20
REMARK    8  A    between atoms: O_20  and  C_21
REMARK    9  A    between atoms: C_21  and  C_22
REMARK                            x       y       z     vdW  Elec       q    Type
REMARK                         _______ _______ _______ _____ _____    ______ ____
ROOT
ATOM      1  C   UNL     1      47.273   4.166  15.533  0.00  0.00    +0.000 C 
ENDROOT
BRANCH   1   2
ATOM      2  C   UNL     1      46.760   4.591  14.181  0.00  0.00    +0.000 A 
ATOM      3  C   UNL     1      45.935   3.747  13.427  0.00  0.00    +0.000 A 
ATOM      4  C   UNL     1      45.425   4.166  12.193  0.00  0.00    +0.000 A 
ATOM      5  C   UNL     1      45.738   5.433  11.680  0.00  0.00    +0.000 A 
ATOM      6  C   UNL     1      46.598   6.260  12.417  0.00  0.00    +0.000 A 
ATOM      7  C   UNL     1      47.108   5.840  13.650  0.00  0.00    +0.000 A 
BRANCH   5   8
ATOM      8  C   UNL     1      45.157   5.898  10.368  0.00  0.00    +0.000 C 
BRANCH   8   9
ATOM      9  O   UNL     1      45.849   5.249   9.305  0.00  0.00    +0.000 OA
BRANCH   9  10
ATOM     10  C   UNL     1      45.002   4.340   8.595  0.00  0.00    +0.000 C 
BRANCH  10  11
ATOM     11  C   UNL     1      45.818   3.291   7.870  0.00  0.00    +0.000 A 
ATOM     12  C   UNL     1      45.995   2.020   8.416  0.00  0.00    +0.000 A 
ATOM     13  C   UNL     1      46.747   1.080   7.718  0.00  0.00    +0.000 A 
ATOM     14  C   UNL     1      47.291   1.424   6.487  0.00  0.00    +0.000 A 
ATOM     15  C   UNL     1      47.051   2.698   6.000  0.00  0.00    +0.000 A 
ATOM     16  N   UNL     1      46.325   3.632   6.655  0.00  0.00    +0.000 NA
ENDBRANCH  10  11
ENDBRANCH   9  10
ENDBRANCH   8   9
ENDBRANCH   5   8
ENDBRANCH   1   2
BRANCH   1  19
ATOM     17  C   UNL     1      47.921   5.317  17.602  0.00  0.00    +0.000 C 
ATOM     18  O   UNL     1      47.392   4.445  18.285  0.00  0.00    +0.000 OA
ATOM     19  N   UNL     1      47.896   5.259  16.234  0.00  0.00    +0.000 N 
ATOM     20  H   UNL     1      48.287   6.011  15.683  0.00  0.00    +0.000 HD
BRANCH  17  28
ATOM     21  C   UNL     1      51.234   6.271  17.769  0.00  0.00    +0.000 A 
ATOM     22  N   UNL     1      52.429   6.826  18.059  0.00  0.00    +0.000 NA
ATOM     23  C   UNL     1      52.449   7.916  18.829  0.00  0.00    +0.000 A 
ATOM     24  N   UNL     1      51.399   8.544  19.353  0.00  0.00    +0.000 NA
ATOM     25  C   UNL     1      50.231   7.954  19.052  0.00  0.00    +0.000 A 
ATOM     26  S   UNL     1      48.785   8.630  19.628  0.00  0.00    +0.000 S 
ATOM     27  C   UNL     1      47.864   7.401  18.905  0.00  0.00    +0.000 A 
ATOM     28  C   UNL     1      48.622   6.456  18.222  0.00  0.00    +0.000 A 
ATOM     29  C   UNL     1      50.040   6.807  18.286  0.00  0.00    +0.000 A 
BRANCH  21  31
ATOM     30  C   UNL     1      51.370   3.930  17.610  0.00  0.00    +0.000 C 
ATOM     31  O   UNL     1      51.207   5.174  16.931  0.00  0.00    +0.000 OA
ENDBRANCH  21  31
ENDBRANCH  17  28
ENDBRANCH   1  19
TORSDOF 8
ENDMDL
MODEL 8
REMARK VINA RESULT:    -6.678      2.246      2.941
REMARK INTER + INTRA:         -11.018
REMARK INTER:                  -9.823
REMARK INTRA:                  -1.194
REMARK UNBOUND:                -1.217
REMARK  Name = 
REMARK  9 active torsions:
REMARK  status: ('A' for Active; 'I' for Inactive)
REMARK    1  A    between atoms: C_1  and  O_2
REMARK    2  A    between atoms: O_2  and  C_3
REMARK    3  A    between atoms: C_10  and  C_11
REMARK    4  A    between atoms: N_13  and  C_14
REMARK    5  A    between atoms: C_14  and  C_15
REMARK    6  A    between atoms: C_18  and  C_19
REMARK    7  A    between atoms: C_19  and  O_20
REMARK    8  A    between atoms: O_20  and  C_21
REMARK    9  A    between atoms: C_21  and  C_22
REMARK                            x       y       z     vdW  Elec       q    Type
REMARK                         _______ _______ _______ _____ _____    ______ ____
ROOT
ATOM      1  C   UNL     1      48.848   8.043  15.280  0.00  0.00    +0.000 C 
ENDROOT
BRANCH   1   2
ATOM      2  C   UNL     1      47.894   7.583  14.208  0.00  0.00    +0.000 A 
ATOM      3  C   UNL     1      47.023   8.486  13.583  0.00  0.00    +0.000 A 
ATOM      4  C   UNL     1      46.173   8.062  12.557  0.00  0.00    +0.000 A 
ATOM      5  C   UNL     1      46.164   6.723  12.140  0.00  0.00    +0.000 A 
ATOM      6  C   UNL     1      47.006   5.812  12.795  0.00  0.00    +0.000 A 
ATOM      7  C   UNL     1      47.856   6.237  13.821  0.00  0.00    +0.000 A 
BRANCH   5   8
ATOM      8  C   UNL     1      45.274   6.275  11.007  0.00  0.00    +0.000 C 
BRANCH   8   9
ATOM      9  O   UNL     1      45.205   4.852  11.014  0.00  0.00    +0.000 OA
BRANCH   9  10
ATOM     10  C   UNL     1      44.415   4.351   9.931  0.00  0.00    +0.000 C 
BRANCH  10  11
ATOM     11  C   UNL     1      45.261   3.548   8.967  0.00  0.00    +0.000 A 
ATOM     12  C   UNL     1      46.003   4.180   7.970  0.00  0.00    +0.000 A 
ATOM     13  C   UNL     1      46.774   3.409   7.105  0.00  0.00    +0.000 A 
ATOM     14  C   UNL     1      46.798   2.030   7.264  0.00  0.00    +0.000 A 
ATOM     15  C   UNL     1      46.054   1.478   8.293  0.00  0.00    +0.000 A 
ATOM     16  N   UNL     1      45.295   2.200   9.147  0.00  0.00    +0.000 NA
ENDBRANCH  10  11
ENDBRANCH   9  10
ENDBRANCH   8   9
ENDBRANCH   5   8
ENDBRANCH   1   2
BRANCH   1  19
ATOM     17  C   UNL     1      50.247   6.922  16.957  0.00  0.00    +0.000 C 
ATOM     18  O   UNL     1      49.974   7.777  17.795  0.00  0.00    +0.000 OA
ATOM     19  N   UNL     1      49.741   6.988  15.687  0.00  0.00    +0.000 N 
ATOM     20  H   UNL     1      50.017   6.310  14.990  0.00  0.00    +0.000 HD
BRANCH  17  28
ATOM     21  C   UNL     1      49.807   3.500  16.893  0.00  0.00    +0.000 A 
ATOM     22  N   UNL     1      49.888   2.161  17.042  0.00  0.00    +0.000 NA
ATOM     23  C   UNL     1      51.019   1.646  17.525  0.00  0.00    +0.000 A 
ATOM     24  N   UNL     1      52.114   2.314  17.880  0.00  0.00    +0.000 NA
ATOM     25  C   UNL     1      51.990   3.643  17.730  0.00  0.00    +0.000 A 
ATOM     26  S   UNL     1      53.298   4.650  18.123  0.00  0.00    +0.000 S 
ATOM     27  C   UNL     1      52.413   6.040  17.717  0.00  0.00    +0.000 A 
ATOM     28  C   UNL     1      51.117   5.778  17.284  0.00  0.00    +0.000 A 
ATOM     29  C   UNL     1      50.877   4.336  17.263  0.00  0.00    +0.000 A 
BRANCH  21  31
ATOM     30  C   UNL     1      47.619   4.255  17.298  0.00  0.00    +0.000 C 
ATOM     31  O   UNL     1      48.657   4.030  16.345  0.00  0.00    +0.000 OA
ENDBRANCH  21  31
ENDBRANCH  17  28
ENDBRANCH   1  19
TORSDOF 8
ENDMDL
MODEL 9
REMARK VINA RESULT:    -6.343      4.319      9.167
REMARK INTER + INTRA:         -10.526
REMARK INTER:                  -9.323
REMARK INTRA:                  -1.203
REMARK UNBOUND:                -1.217
REMARK  Name = 
REMARK  9 active torsions:
REMARK  status: ('A' for Active; 'I' for Inactive)
REMARK    1  A    between atoms: C_1  and  O_2
REMARK    2  A    between atoms: O_2  and  C_3
REMARK    3  A    between atoms: C_10  and  C_11
REMARK    4  A    between atoms: N_13  and  C_14
REMARK    5  A    between atoms: C_14  and  C_15
REMARK    6  A    between atoms: C_18  and  C_19
REMARK    7  A    between atoms: C_19  and  O_20
REMARK    8  A    between atoms: O_20  and  C_21
REMARK    9  A    between atoms: C_21  and  C_22
REMARK                            x       y       z     vdW  Elec       q    Type
REMARK                         _______ _______ _______ _____ _____    ______ ____
ROOT
ATOM      1  C   UNL     1      47.305   3.310  16.821  0.00  0.00    +0.000 C 
ENDROOT
BRANCH   1   2
ATOM      2  C   UNL     1      48.766   3.487  17.146  0.00  0.00    +0.000 A 
ATOM      3  C   UNL     1      49.282   4.746  17.480  0.00  0.00    +0.000 A 
ATOM      4  C   UNL     1      50.630   4.896  17.824  0.00  0.00    +0.000 A 
ATOM      5  C   UNL     1      51.495   3.792  17.830  0.00  0.00    +0.000 A 
ATOM      6  C   UNL     1      50.987   2.540  17.455  0.00  0.00    +0.000 A 
ATOM      7  C   UNL     1      49.639   2.392  17.111  0.00  0.00    +0.000 A 
BRANCH   5   8
ATOM      8  C   UNL     1      52.939   3.948  18.239  0.00  0.00    +0.000 C 
BRANCH   8   9
ATOM      9  O   UNL     1      53.248   2.959  19.216  0.00  0.00    +0.000 OA
BRANCH   9  10
ATOM     10  C   UNL     1      54.588   2.475  19.080  0.00  0.00    +0.000 C 
BRANCH  10  11
ATOM     11  C   UNL     1      54.605   1.084  18.482  0.00  0.00    +0.000 A 
ATOM     12  C   UNL     1      54.658   0.901  17.101  0.00  0.00    +0.000 A 
ATOM     13  C   UNL     1      54.678  -0.393  16.588  0.00  0.00    +0.000 A 
ATOM     14  C   UNL     1      54.659  -1.471  17.463  0.00  0.00    +0.000 A 
ATOM     15  C   UNL     1      54.630  -1.207  18.823  0.00  0.00    +0.000 A 
ATOM     16  N   UNL     1      54.610   0.037  19.350  0.00  0.00    +0.000 NA
ENDBRANCH  10  11
ENDBRANCH   9  10
ENDBRANCH   8   9
ENDBRANCH   5   8
ENDBRANCH   1   2
BRANCH   1  19
ATOM     17  C   UNL     1      46.861   4.109  14.543  0.00  0.00    +0.000 C 
ATOM     18  O   UNL     1      47.301   3.067  14.064  0.00  0.00    +0.000 OA
ATOM     19  N   UNL     1      46.839   4.312  15.897  0.00  0.00    +0.000 N 
ATOM     20  H   UNL     1      46.527   5.195  16.277  0.00  0.00    +0.000 HD
BRANCH  17  28
ATOM     21  C   UNL     1      48.112   7.126  13.428  0.00  0.00    +0.000 A 
ATOM     22  N   UNL     1      48.307   8.362  12.925  0.00  0.00    +0.000 NA
ATOM     23  C   UNL     1      47.315   8.928  12.237  0.00  0.00    +0.000 A 
ATOM     24  N   UNL     1      46.122   8.400  11.972  0.00  0.00    +0.000 NA
ATOM     25  C   UNL     1      45.962   7.176  12.500  0.00  0.00    +0.000 A 
ATOM     26  S   UNL     1      44.503   6.346  12.249  0.00  0.00    +0.000 S 
ATOM     27  C   UNL     1      45.040   5.024  13.168  0.00  0.00    +0.000 A 
ATOM     28  C   UNL     1      46.321   5.179  13.686  0.00  0.00    +0.000 A 
ATOM     29  C   UNL     1      46.884   6.459  13.258  0.00  0.00    +0.000 A 
BRANCH  21  31
ATOM     30  C   UNL     1      49.889   7.403  14.941  0.00  0.00    +0.000 C 
ATOM     31  O   UNL     1      49.155   6.518  14.096  0.00  0.00    +0.000 OA
ENDBRANCH  21  31
ENDBRANCH  17  28
ENDBRANCH   1  19
TORSDOF 8
ENDMDL
