MODEL 1
REMARK VINA RESULT:    -7.521      0.000      0.000
REMARK INTER + INTRA:         -11.670
REMARK INTER:                 -10.598
REMARK INTRA:                  -1.072
REMARK UNBOUND:                -1.072
REMARK  Name = 
REMARK  7 active torsions:
REMARK  status: ('A' for Active; 'I' for Inactive)
REMARK    1  A    between atoms: C_2  and  C_19
REMARK    2  A    between atoms: N_3  and  C_4
REMARK    3  A    between atoms: C_4  and  C_5
REMARK    4  A    between atoms: C_8  and  C_9
REMARK    5  A    between atoms: C_9  and  N_10
REMARK    6  A    between atoms: N_10  and  C_11
REMARK    7  A    between atoms: C_11  and  C_12
REMARK                            x       y       z     vdW  Elec       q    Type
REMARK                         _______ _______ _______ _____ _____    ______ ____
ROOT
ATOM      1  C   UNL     1      46.986   7.670  13.248  0.00  0.00    +0.000 C 
ENDROOT
BRANCH   1   2
ATOM      2  C   UNL     1      46.243   6.667  12.420  0.00  0.00    +0.000 A 
ATOM      3  C   UNL     1      45.422   5.710  13.019  0.00  0.00    +0.000 A 
ATOM      4  C   UNL     1      44.714   4.813  12.228  0.00  0.00    +0.000 A 
ATOM      5  C   UNL     1      44.841   4.893  10.844  0.00  0.00    +0.000 A 
ATOM      6  N   UNL     1      45.657   5.793  10.236  0.00  0.00    +0.000 NA
ATOM      7  C   UNL     1      46.337   6.648  11.034  0.00  0.00    +0.000 A 
BRANCH   5   8
ATOM      8  C   UNL     1      44.074   3.933   9.954  0.00  0.00    +0.000 C 
BRANCH   8   9
ATOM      9  N   UNL     1      44.191   4.209   8.515  0.00  0.00    +0.000 NA
ATOM     10  H   UNL     1      44.797   5.028   8.418  0.00  0.00    +0.000 HD
BRANCH   9  11
ATOM     11  C   UNL     1      44.824   3.090   7.802  0.00  0.00    +0.000 C 
BRANCH  11  12
ATOM     12  C   UNL     1      46.355   3.306   7.717  0.00  0.00    +0.000 C 
ATOM     13  C   UNL     1      47.110   2.000   7.547  0.00  0.00    +0.000 C 
ATOM     14  C   UNL     1      46.994   1.729   6.060  0.00  0.00    +0.000 C 
ATOM     15  C   UNL     1      46.927   3.114   5.427  0.00  0.00    +0.000 C 
ATOM     16  N   UNL     1      46.753   4.072   6.524  0.00  0.00    +0.000 NA
ATOM     17  H   UNL     1      46.007   4.740   6.307  0.00  0.00    +0.000 HD
ENDBRANCH  11  12
ENDBRANCH   9  11
ENDBRANCH   8   9
ENDBRANCH   5   8
ENDBRANCH   1   2
BRANCH   1  20
ATOM     18  O   UNL     1      49.570   6.828  13.904  0.00  0.00    +0.000 OA
ATOM     19  C   UNL     1      48.694   6.785  14.766  0.00  0.00    +0.000 C 
ATOM     20  N   UNL     1      47.393   7.140  14.518  0.00  0.00    +0.000 N 
ATOM     21  H   UNL     1      46.768   7.313  15.301  0.00  0.00    +0.000 HD
BRANCH  19  22
ATOM     22  C   UNL     1      48.984   6.311  16.115  0.00  0.00    +0.000 A 
ATOM     23  C   UNL     1      49.736   7.074  17.000  0.00  0.00    +0.000 A 
ATOM     24  S   UNL     1      49.915   6.339  18.531  0.00  0.00    +0.000 S 
ATOM     25  C   UNL     1      48.981   4.998  18.060  0.00  0.00    +0.000 A 
ATOM     26  N   UNL     1      48.711   3.981  18.925  0.00  0.00    +0.000 NA
ATOM     27  C   UNL     1      47.961   3.049  18.427  0.00  0.00    +0.000 A 
ATOM     28  N   UNL     1      47.464   3.031  17.149  0.00  0.00    +0.000 N 
ATOM     29  C   UNL     1      47.766   3.995  16.225  0.00  0.00    +0.000 A 
ATOM     30  O   UNL     1      47.422   3.872  15.056  0.00  0.00    +0.000 OA
ATOM     31  C   UNL     1      48.560   5.093  16.747  0.00  0.00    +0.000 A 
ATOM     32  H   UNL     1      46.922   2.251  16.809  0.00  0.00    +0.000 HD
ENDBRANCH  19  22
ENDBRANCH   1  20
TORSDOF 7
ENDMDL
MODEL 2
REMARK VINA RESULT:    -7.090      2.120      2.686
REMARK INTER + INTRA:         -11.062
REMARK INTER:                 -10.331
REMARK INTRA:                  -0.731
REMARK UNBOUND:                -1.072
REMARK  Name = 
REMARK  7 active torsions:
REMARK  status: ('A' for Active; 'I' for Inactive)
REMARK    1  A    between atoms: C_2  and  C_19
REMARK    2  A    between atoms: N_3  and  C_4
REMARK    3  A    between atoms: C_4  and  C_5
REMARK    4  A    between atoms: C_8  and  C_9
REMARK    5  A    between atoms: C_9  and  N_10
REMARK    6  A    between atoms: N_10  and  C_11
REMARK    7  A    between atoms: C_11  and  C_12
REMARK                            x       y       z     vdW  Elec       q    Type
REMARK                         _______ _______ _______ _____ _____    ______ ____
ROOT
ATOM      1  C   UNL     1      47.912   7.358  13.716  0.00  0.00    +0.000 C 
ENDROOT
BRANCH   1   2
ATOM      2  C   UNL     1      46.771   6.439  13.399  0.00  0.00    +0.000 A 
ATOM      3  C   UNL     1      45.688   6.879  12.636  0.00  0.00    +0.000 A 
ATOM      4  C   UNL     1      44.659   5.998  12.323  0.00  0.00    +0.000 A 
ATOM      5  C   UNL     1      44.736   4.686  12.782  0.00  0.00    +0.000 A 
ATOM      6  N   UNL     1      45.762   4.240  13.553  0.00  0.00    +0.000 NA
ATOM      7  C   UNL     1      46.745   5.124  13.844  0.00  0.00    +0.000 A 
BRANCH   5   8
ATOM      8  C   UNL     1      43.632   3.699  12.450  0.00  0.00    +0.000 C 
BRANCH   8   9
ATOM      9  N   UNL     1      44.067   2.543  11.652  0.00  0.00    +0.000 NA
ATOM     10  H   UNL     1      43.228   2.150  11.218  0.00  0.00    +0.000 HD
BRANCH   9  11
ATOM     11  C   UNL     1      44.985   2.946  10.578  0.00  0.00    +0.000 C 
BRANCH  11  12
ATOM     12  C   UNL     1      44.501   2.385   9.219  0.00  0.00    +0.000 C 
ATOM     13  C   UNL     1      44.645   3.396   8.095  0.00  0.00    +0.000 C 
ATOM     14  C   UNL     1      46.105   3.269   7.708  0.00  0.00    +0.000 C 
ATOM     15  C   UNL     1      46.450   1.814   8.002  0.00  0.00    +0.000 C 
ATOM     16  N   UNL     1      45.320   1.254   8.749  0.00  0.00    +0.000 NA
ATOM     17  H   UNL     1      45.647   0.734   9.567  0.00  0.00    +0.000 HD
ENDBRANCH  11  12
ENDBRANCH   9  11
ENDBRANCH   8   9
ENDBRANCH   5   8
ENDBRANCH   1   2
BRANCH   1  20
ATOM     18  O   UNL     1      49.718   6.233  15.529  0.00  0.00    +0.000 OA
ATOM     19  C   UNL     1      48.937   7.097  15.925  0.00  0.00    +0.000 C 
ATOM     20  N   UNL     1      47.993   7.670  15.113  0.00  0.00    +0.000 N 
ATOM     21  H   UNL     1      47.538   8.529  15.411  0.00  0.00    +0.000 HD
BRANCH  19  22
ATOM     22  C   UNL     1      48.945   7.542  17.315  0.00  0.00    +0.000 A 
ATOM     23  C   UNL     1      49.581   8.719  17.689  0.00  0.00    +0.000 A 
ATOM     24  S   UNL     1      49.428   9.060  19.356  0.00  0.00    +0.000 S 
ATOM     25  C   UNL     1      48.497   7.660  19.615  0.00  0.00    +0.000 A 
ATOM     26  N   UNL     1      48.003   7.354  20.846  0.00  0.00    +0.000 NA
ATOM     27  C   UNL     1      47.288   6.274  20.875  0.00  0.00    +0.000 A 
ATOM     28  N   UNL     1      47.028   5.468  19.797  0.00  0.00    +0.000 N 
ATOM     29  C   UNL     1      47.560   5.698  18.557  0.00  0.00    +0.000 A 
ATOM     30  O   UNL     1      47.423   4.881  17.655  0.00  0.00    +0.000 OA
ATOM     31  C   UNL     1      48.327   6.928  18.456  0.00  0.00    +0.000 A 
ATOM     32  H   UNL     1      46.499   4.614  19.896  0.00  0.00    +0.000 HD
ENDBRANCH  19  22
ENDBRANCH   1  20
TORSDOF 7
ENDMDL
MODEL 3
REMARK VINA RESULT:    -7.084      4.171      9.268
REMARK INTER + INTRA:         -11.055
REMARK INTER:                 -10.206
REMARK INTRA:                  -0.849
REMARK UNBOUND:                -1.072
REMARK  Name = 
REMARK  7 active torsions:
REMARK  status: ('A' for Active; 'I' for Inactive)
REMARK    1  A    between atoms: C_2  and  C_19
REMARK    2  A    between atoms: N_3  and  C_4
REMARK    3  A    between atoms: C_4  and  C_5
REMARK    4  A    between atoms: C_8  and  C_9
REMARK    5  A    between atoms: C_9  and  N_10
REMARK    6  A    between atoms: N_10  and  C_11
REMARK    7  A    between atoms: C_11  and  C_12
REMARK                            x       y       z     vdW  Elec       q    Type
REMARK                         _______ _______ _______ _____ _____    ______ ____
ROOT
ATOM      1  C   UNL     1      47.131   3.425  16.749  0.00  0.00    +0.000 C 
ENDROOT
BRANCH   1   2
ATOM      2  C   UNL     1      48.594   3.456  17.073  0.00  0.00    +0.000 A 
ATOM      3  C   UNL     1      49.181   4.596  17.623  0.00  0.00    +0.000 A 
ATOM      4  C   UNL     1      50.532   4.589  17.951  0.00  0.00    +0.000 A 
ATOM      5  C   UNL     1      51.273   3.433  17.722  0.00  0.00    +0.000 A 
ATOM      6  N   UNL     1      50.734   2.320  17.159  0.00  0.00    +0.000 NA
ATOM      7  C   UNL     1      49.418   2.361  16.846  0.00  0.00    +0.000 A 
BRANCH   5   8
ATOM      8  C   UNL     1      52.747   3.392  18.076  0.00  0.00    +0.000 C 
BRANCH   8   9
ATOM      9  N   UNL     1      53.135   2.272  18.946  0.00  0.00    +0.000 NA
ATOM     10  H   UNL     1      52.312   1.671  19.040  0.00  0.00    +0.000 HD
BRANCH   9  11
ATOM     11  C   UNL     1      54.213   1.473  18.345  0.00  0.00    +0.000 C 
BRANCH  11  12
ATOM     12  C   UNL     1      53.622   0.271  17.570  0.00  0.00    +0.000 C 
ATOM     13  C   UNL     1      54.692  -0.535  16.856  0.00  0.00    +0.000 C 
ATOM     14  C   UNL     1      55.241  -1.423  17.956  0.00  0.00    +0.000 C 
ATOM     15  C   UNL     1      54.056  -1.648  18.887  0.00  0.00    +0.000 C 
ATOM     16  N   UNL     1      53.000  -0.726  18.459  0.00  0.00    +0.000 NA
ATOM     17  H   UNL     1      52.600  -0.233  19.263  0.00  0.00    +0.000 HD
ENDBRANCH  11  12
ENDBRANCH   9  11
ENDBRANCH   8   9
ENDBRANCH   5   8
ENDBRANCH   1   2
BRANCH   1  20
ATOM     18  O   UNL     1      47.214   3.173  13.966  0.00  0.00    +0.000 OA
ATOM     19  C   UNL     1      46.792   4.218  14.456  0.00  0.00    +0.000 C 
ATOM     20  N   UNL     1      46.756   4.441  15.808  0.00  0.00    +0.000 N 
ATOM     21  H   UNL     1      46.193   5.205  16.170  0.00  0.00    +0.000 HD
BRANCH  19  22
ATOM     22  C   UNL     1      46.333   5.317  13.612  0.00  0.00    +0.000 A 
ATOM     23  C   UNL     1      47.137   6.425  13.374  0.00  0.00    +0.000 A 
ATOM     24  S   UNL     1      46.411   7.565  12.330  0.00  0.00    +0.000 S 
ATOM     25  C   UNL     1      45.020   6.602  12.153  0.00  0.00    +0.000 A 
ATOM     26  N   UNL     1      43.988   6.984  11.350  0.00  0.00    +0.000 NA
ATOM     27  C   UNL     1      43.015   6.130  11.296  0.00  0.00    +0.000 A 
ATOM     28  N   UNL     1      42.971   4.938  11.972  0.00  0.00    +0.000 N 
ATOM     29  C   UNL     1      43.952   4.544  12.842  0.00  0.00    +0.000 A 
ATOM     30  O   UNL     1      43.811   3.544  13.534  0.00  0.00    +0.000 OA
ATOM     31  C   UNL     1      45.093   5.442  12.900  0.00  0.00    +0.000 A 
ATOM     32  H   UNL     1      42.162   4.336  11.921  0.00  0.00    +0.000 HD
ENDBRANCH  19  22
ENDBRANCH   1  20
TORSDOF 7
ENDMDL
MODEL 4
REMARK VINA RESULT:    -6.943      2.332      3.096
REMARK INTER + INTRA:         -10.856
REMARK INTER:                  -9.914
REMARK INTRA:                  -0.942
REMARK UNBOUND:                -1.072
REMARK  Name = 
REMARK  7 active torsions:
REMARK  status: ('A' for Active; 'I' for Inactive)
REMARK    1  A    between atoms: C_2  and  C_19
REMARK    2  A    between atoms: N_3  and  C_4
REMARK    3  A    between atoms: C_4  and  C_5
REMARK    4  A    between atoms: C_8  and  C_9
REMARK    5  A    between atoms: C_9  and  N_10
REMARK    6  A    between atoms: N_10  and  C_11
REMARK    7  A    between atoms: C_11  and  C_12
REMARK                            x       y       z     vdW  Elec       q    Type
REMARK                         _______ _______ _______ _____ _____    ______ ____
ROOT
ATOM      1  C   UNL     1      48.102   6.794  13.883  0.00  0.00    +0.000 C 
ENDROOT
BRANCH   1   2
ATOM      2  C   UNL     1      46.935   6.276  13.098  0.00  0.00    +0.000 A 
ATOM      3  C   UNL     1      46.725   6.678  11.778  0.00  0.00    +0.000 A 
ATOM      4  C   UNL     1      45.657   6.155  11.058  0.00  0.00    +0.000 A 
ATOM      5  C   UNL     1      44.816   5.234  11.676  0.00  0.00    +0.000 A 
ATOM      6  N   UNL     1      44.979   4.849  12.969  0.00  0.00    +0.000 NA
ATOM      7  C   UNL     1      46.024   5.380  13.645  0.00  0.00    +0.000 A 
BRANCH   5   8
ATOM      8  C   UNL     1      43.647   4.640  10.913  0.00  0.00    +0.000 C 
BRANCH   8   9
ATOM      9  N   UNL     1      43.695   3.177  10.765  0.00  0.00    +0.000 NA
ATOM     10  H   UNL     1      42.941   2.920  10.123  0.00  0.00    +0.000 HD
BRANCH   9  11
ATOM     11  C   UNL     1      44.966   2.738  10.173  0.00  0.00    +0.000 C 
BRANCH  11  12
ATOM     12  C   UNL     1      44.724   2.143   8.764  0.00  0.00    +0.000 C 
ATOM     13  C   UNL     1      44.832   3.191   7.671  0.00  0.00    +0.000 C 
ATOM     14  C   UNL     1      46.327   3.298   7.447  0.00  0.00    +0.000 C 
ATOM     15  C   UNL     1      46.859   1.906   7.767  0.00  0.00    +0.000 C 
ATOM     16  N   UNL     1      45.753   1.162   8.380  0.00  0.00    +0.000 NA
ATOM     17  H   UNL     1      46.067   0.678   9.226  0.00  0.00    +0.000 HD
ENDBRANCH  11  12
ENDBRANCH   9  11
ENDBRANCH   8   9
ENDBRANCH   5   8
ENDBRANCH   1   2
BRANCH   1  20
ATOM     18  O   UNL     1      50.203   6.385  15.681  0.00  0.00    +0.000 OA
ATOM     19  C   UNL     1      49.051   6.411  16.109  0.00  0.00    +0.000 C 
ATOM     20  N   UNL     1      47.960   6.565  15.292  0.00  0.00    +0.000 N 
ATOM     21  H   UNL     1      47.065   6.814  15.702  0.00  0.00    +0.000 HD
BRANCH  19  22
ATOM     22  C   UNL     1      48.769   6.239  17.530  0.00  0.00    +0.000 A 
ATOM     23  C   UNL     1      49.001   5.027  18.168  0.00  0.00    +0.000 A 
ATOM     24  S   UNL     1      48.635   5.069  19.836  0.00  0.00    +0.000 S 
ATOM     25  C   UNL     1      48.177   6.705  19.753  0.00  0.00    +0.000 A 
ATOM     26  N   UNL     1      47.774   7.387  20.860  0.00  0.00    +0.000 NA
ATOM     27  C   UNL     1      47.488   8.631  20.640  0.00  0.00    +0.000 A 
ATOM     28  N   UNL     1      47.559   9.256  19.421  0.00  0.00    +0.000 N 
ATOM     29  C   UNL     1      47.893   8.594  18.270  0.00  0.00    +0.000 A 
ATOM     30  O   UNL     1      47.807   9.149  17.182  0.00  0.00    +0.000 OA
ATOM     31  C   UNL     1      48.274   7.207  18.469  0.00  0.00    +0.000 A 
ATOM     32  H   UNL     1      47.280  10.219  19.309  0.00  0.00    +0.000 HD
ENDBRANCH  19  22
ENDBRANCH   1  20
TORSDOF 7
ENDMDL
MODEL 5
REMARK VINA RESULT:    -6.893      2.050      3.628
REMARK INTER + INTRA:         -10.785
REMARK INTER:                  -9.724
REMARK INTRA:                  -1.061
REMARK UNBOUND:                -1.072
REMARK  Name = 
REMARK  7 active torsions:
REMARK  status: ('A' for Active; 'I' for Inactive)
REMARK    1  A    between atoms: C_2  and  C_19
REMARK    2  A    between atoms: N_3  and  C_4
REMARK    3  A    between atoms: C_4  and  C_5
REMARK    4  A    between atoms: C_8  and  C_9
REMARK    5  A    between atoms: C_9  and  N_10
REMARK    6  A    between atoms: N_10  and  C_11
REMARK    7  A    between atoms: C_11  and  C_12
REMARK                            x       y       z     vdW  Elec       q    Type
REMARK                         _______ _______ _______ _____ _____    ______ ____
ROOT
ATOM      1  C   UNL     1      46.891   4.442  14.804  0.00  0.00    +0.000 C 
ENDROOT
BRANCH   1   2
ATOM      2  C   UNL     1      46.242   4.464  13.454  0.00  0.00    +0.000 A 
ATOM      3  C   UNL     1      46.115   5.656  12.740  0.00  0.00    +0.000 A 
ATOM      4  C   UNL     1      45.543   5.646  11.473  0.00  0.00    +0.000 A 
ATOM      5  C   UNL     1      45.107   4.435  10.942  0.00  0.00    +0.000 A 
ATOM      6  N   UNL     1      45.189   3.265  11.628  0.00  0.00    +0.000 NA
ATOM      7  C   UNL     1      45.746   3.309  12.861  0.00  0.00    +0.000 A 
BRANCH   5   8
ATOM      8  C   UNL     1      44.486   4.391   9.559  0.00  0.00    +0.000 C 
BRANCH   8   9
ATOM      9  N   UNL     1      45.275   5.060   8.514  0.00  0.00    +0.000 NA
ATOM     10  H   UNL     1      45.679   5.899   8.938  0.00  0.00    +0.000 HD
BRANCH   9  11
ATOM     11  C   UNL     1      46.381   4.210   8.049  0.00  0.00    +0.000 C 
BRANCH  11  12
ATOM     12  C   UNL     1      45.831   3.002   7.253  0.00  0.00    +0.000 C 
ATOM     13  C   UNL     1      46.400   2.932   5.847  0.00  0.00    +0.000 C 
ATOM     14  C   UNL     1      47.747   2.272   6.056  0.00  0.00    +0.000 C 
ATOM     15  C   UNL     1      47.541   1.365   7.264  0.00  0.00    +0.000 C 
ATOM     16  N   UNL     1      46.236   1.710   7.834  0.00  0.00    +0.000 NA
ATOM     17  H   UNL     1      46.301   1.821   8.850  0.00  0.00    +0.000 HD
ENDBRANCH  11  12
ENDBRANCH   9  11
ENDBRANCH   8   9
ENDBRANCH   5   8
ENDBRANCH   1   2
BRANCH   1  20
ATOM     18  O   UNL     1      49.010   4.744  16.603  0.00  0.00    +0.000 OA
ATOM     19  C   UNL     1      48.608   5.729  15.986  0.00  0.00    +0.000 C 
ATOM     20  N   UNL     1      47.549   5.677  15.117  0.00  0.00    +0.000 N 
ATOM     21  H   UNL     1      47.406   6.443  14.464  0.00  0.00    +0.000 HD
BRANCH  19  22
ATOM     22  C   UNL     1      49.221   7.039  16.175  0.00  0.00    +0.000 A 
ATOM     23  C   UNL     1      49.342   7.602  17.439  0.00  0.00    +0.000 A 
ATOM     24  S   UNL     1      50.124   9.120  17.424  0.00  0.00    +0.000 S 
ATOM     25  C   UNL     1      50.338   9.056  15.737  0.00  0.00    +0.000 A 
ATOM     26  N   UNL     1      50.979  10.052  15.064  0.00  0.00    +0.000 NA
ATOM     27  C   UNL     1      51.089   9.842  13.790  0.00  0.00    +0.000 A 
ATOM     28  N   UNL     1      50.614   8.741  13.125  0.00  0.00    +0.000 N 
ATOM     29  C   UNL     1      49.905   7.750  13.748  0.00  0.00    +0.000 A 
ATOM     30  O   UNL     1      49.375   6.857  13.100  0.00  0.00    +0.000 OA
ATOM     31  C   UNL     1      49.798   7.909  15.188  0.00  0.00    +0.000 A 
ATOM     32  H   UNL     1      50.695   8.660  12.122  0.00  0.00    +0.000 HD
ENDBRANCH  19  22
ENDBRANCH   1  20
TORSDOF 7
ENDMDL
MODEL 6
REMARK VINA RESULT:    -6.891      2.549      3.426
REMARK INTER + INTRA:         -10.783
REMARK INTER:                  -9.864
REMARK INTRA:                  -0.919
REMARK UNBOUND:                -1.072
REMARK  Name = 
REMARK  7 active torsions:
REMARK  status: ('A' for Active; 'I' for Inactive)
REMARK    1  A    between atoms: C_2  and  C_19
REMARK    2  A    between atoms: N_3  and  C_4
REMARK    3  A    between atoms: C_4  and  C_5
REMARK    4  A    between atoms: C_8  and  C_9
REMARK    5  A    between atoms: C_9  and  N_10
REMARK    6  A    between atoms: N_10  and  C_11
REMARK    7  A    between atoms: C_11  and  C_12
REMARK                            x       y       z     vdW  Elec       q    Type
REMARK                         _______ _______ _______ _____ _____    ______ ____
ROOT
ATOM      1  C   UNL     1      46.936   4.060  15.924  0.00  0.00    +0.000 C 
ENDROOT
BRANCH   1   2
ATOM      2  C   UNL     1      46.702   4.625  14.557  0.00  0.00    +0.000 A 
ATOM      3  C   UNL     1      45.653   4.163  13.761  0.00  0.00    +0.000 A 
ATOM      4  C   UNL     1      45.432   4.729  12.511  0.00  0.00    +0.000 A 
ATOM      5  C   UNL     1      46.270   5.754  12.079  0.00  0.00    +0.000 A 
ATOM      6  N   UNL     1      47.318   6.201  12.820  0.00  0.00    +0.000 NA
ATOM      7  C   UNL     1      47.509   5.626  14.030  0.00  0.00    +0.000 A 
BRANCH   5   8
ATOM      8  C   UNL     1      46.049   6.397  10.723  0.00  0.00    +0.000 C 
BRANCH   8   9
ATOM      9  N   UNL     1      45.227   5.603   9.798  0.00  0.00    +0.000 NA
ATOM     10  H   UNL     1      44.611   6.259   9.310  0.00  0.00    +0.000 HD
BRANCH   9  11
ATOM     11  C   UNL     1      46.054   4.924   8.791  0.00  0.00    +0.000 C 
BRANCH  11  12
ATOM     12  C   UNL     1      45.177   4.002   7.909  0.00  0.00    +0.000 C 
ATOM     13  C   UNL     1      45.988   2.906   7.240  0.00  0.00    +0.000 C 
ATOM     14  C   UNL     1      46.115   1.861   8.330  0.00  0.00    +0.000 C 
ATOM     15  C   UNL     1      44.842   2.015   9.154  0.00  0.00    +0.000 C 
ATOM     16  N   UNL     1      44.187   3.244   8.693  0.00  0.00    +0.000 NA
ATOM     17  H   UNL     1      43.898   3.820   9.489  0.00  0.00    +0.000 HD
ENDBRANCH  11  12
ENDBRANCH   9  11
ENDBRANCH   8   9
ENDBRANCH   5   8
ENDBRANCH   1   2
BRANCH   1  20
ATOM     18  O   UNL     1      48.006   4.793  18.401  0.00  0.00    +0.000 OA
ATOM     19  C   UNL     1      48.762   4.370  17.529  0.00  0.00    +0.000 C 
ATOM     20  N   UNL     1      48.327   4.027  16.274  0.00  0.00    +0.000 N 
ATOM     21  H   UNL     1      48.931   3.471  15.675  0.00  0.00    +0.000 HD
BRANCH  19  22
ATOM     22  C   UNL     1      50.196   4.242  17.769  0.00  0.00    +0.000 A 
ATOM     23  C   UNL     1      50.942   5.309  18.253  0.00  0.00    +0.000 A 
ATOM     24  S   UNL     1      52.587   4.919  18.493  0.00  0.00    +0.000 S 
ATOM     25  C   UNL     1      52.342   3.316  17.977  0.00  0.00    +0.000 A 
ATOM     26  N   UNL     1      53.358   2.410  17.963  0.00  0.00    +0.000 NA
ATOM     27  C   UNL     1      53.006   1.225  17.575  0.00  0.00    +0.000 A 
ATOM     28  N   UNL     1      51.740   0.862  17.192  0.00  0.00    +0.000 N 
ATOM     29  C   UNL     1      50.703   1.754  17.125  0.00  0.00    +0.000 A 
ATOM     30  O   UNL     1      49.626   1.427  16.644  0.00  0.00    +0.000 OA
ATOM     31  C   UNL     1      51.032   3.087  17.601  0.00  0.00    +0.000 A 
ATOM     32  H   UNL     1      51.541  -0.069  16.858  0.00  0.00    +0.000 HD
ENDBRANCH  19  22
ENDBRANCH   1  20
TORSDOF 7
ENDMDL
MODEL 7
REMARK VINA RESULT:    -6.824      3.127      4.407
REMARK INTER + INTRA:         -10.688
REMARK INTER:                  -9.709
REMARK INTRA:                  -0.979
REMARK UNBOUND:                -1.072
REMARK  Name = 
REMARK  7 active torsions:
REMARK  status: ('A' for Active; 'I' for Inactive)
REMARK    1  A    between atoms: C_2  and  C_19
REMARK    2  A    between atoms: N_3  and  C_4
REMARK    3  A    between atoms: C_4  and  C_5
REMARK    4  A    between atoms: C_8  and  C_9
REMARK    5  A    between atoms: C_9  and  N_10
REMARK    6  A    between atoms: N_10  and  C_11
REMARK    7  A    between atoms: C_11  and  C_12
REMARK                            x       y       z     vdW  Elec       q    Type
REMARK                         _______ _______ _______ _____ _____    ______ ____
ROOT
ATOM      1  C   UNL     1      48.965   5.977  17.395  0.00  0.00    +0.000 C 
ENDROOT
BRANCH   1   2
ATOM      2  C   UNL     1      48.206   5.432  16.223  0.00  0.00    +0.000 A 
ATOM      3  C   UNL     1      48.166   6.124  15.012  0.00  0.00    +0.000 A 
ATOM      4  C   UNL     1      47.487   5.581  13.927  0.00  0.00    +0.000 A 
ATOM      5  C   UNL     1      46.859   4.347  14.077  0.00  0.00    +0.000 A 
ATOM      6  N   UNL     1      46.856   3.668  15.254  0.00  0.00    +0.000 NA
ATOM      7  C   UNL     1      47.521   4.226  16.292  0.00  0.00    +0.000 A 
BRANCH   5   8
ATOM      8  C   UNL     1      46.117   3.725  12.909  0.00  0.00    +0.000 C 
BRANCH   8   9
ATOM      9  N   UNL     1      45.049   4.566  12.348  0.00  0.00    +0.000 NA
ATOM     10  H   UNL     1      45.118   5.479  12.805  0.00  0.00    +0.000 HD
BRANCH   9  11
ATOM     11  C   UNL     1      45.228   4.768  10.903  0.00  0.00    +0.000 C 
BRANCH  11  12
ATOM     12  C   UNL     1      44.172   3.956  10.113  0.00  0.00    +0.000 C 
ATOM     13  C   UNL     1      44.272   4.188   8.616  0.00  0.00    +0.000 C 
ATOM     14  C   UNL     1      45.398   3.262   8.201  0.00  0.00    +0.000 C 
ATOM     15  C   UNL     1      45.316   2.102   9.186  0.00  0.00    +0.000 C 
ATOM     16  N   UNL     1      44.371   2.502  10.233  0.00  0.00    +0.000 NA
ATOM     17  H   UNL     1      44.754   2.305  11.162  0.00  0.00    +0.000 HD
ENDBRANCH  11  12
ENDBRANCH   9  11
ENDBRANCH   8   9
ENDBRANCH   5   8
ENDBRANCH   1   2
BRANCH   1  20
ATOM     18  O   UNL     1      51.553   5.997  16.336  0.00  0.00    +0.000 OA
ATOM     19  C   UNL     1      51.291   5.221  17.253  0.00  0.00    +0.000 C 
ATOM     20  N   UNL     1      50.038   5.117  17.802  0.00  0.00    +0.000 N 
ATOM     21  H   UNL     1      49.926   4.646  18.695  0.00  0.00    +0.000 HD
BRANCH  19  22
ATOM     22  C   UNL     1      52.306   4.322  17.795  0.00  0.00    +0.000 A 
ATOM     23  C   UNL     1      53.451   4.816  18.406  0.00  0.00    +0.000 A 
ATOM     24  S   UNL     1      54.476   3.585  18.998  0.00  0.00    +0.000 S 
ATOM     25  C   UNL     1      53.411   2.367  18.473  0.00  0.00    +0.000 A 
ATOM     26  N   UNL     1      53.675   1.049  18.692  0.00  0.00    +0.000 NA
ATOM     27  C   UNL     1      52.754   0.246  18.261  0.00  0.00    +0.000 A 
ATOM     28  N   UNL     1      51.602   0.633  17.625  0.00  0.00    +0.000 N 
ATOM     29  C   UNL     1      51.328   1.939  17.322  0.00  0.00    +0.000 A 
ATOM     30  O   UNL     1      50.362   2.231  16.629  0.00  0.00    +0.000 OA
ATOM     31  C   UNL     1      52.304   2.887  17.831  0.00  0.00    +0.000 A 
ATOM     32  H   UNL     1      50.944  -0.048  17.274  0.00  0.00    +0.000 HD
ENDBRANCH  19  22
ENDBRANCH   1  20
TORSDOF 7
ENDMDL
MODEL 8
REMARK VINA RESULT:    -6.749      1.745      2.323
REMARK INTER + INTRA:         -10.583
REMARK INTER:                  -9.871
REMARK INTRA:                  -0.712
REMARK UNBOUND:                -1.072
REMARK  Name = 
REMARK  7 active torsions:
REMARK  status: ('A' for Active; 'I' for Inactive)
REMARK    1  A    between atoms: C_2  and  C_19
REMARK    2  A    between atoms: N_3  and  C_4
REMARK    3  A    between atoms: C_4  and  C_5
REMARK    4  A    between atoms: C_8  and  C_9
REMARK    5  A    between atoms: C_9  and  N_10
REMARK    6  A    between atoms: N_10  and  C_11
REMARK    7  A    between atoms: C_11  and  C_12
REMARK                            x       y       z     vdW  Elec       q    Type
REMARK                         _______ _______ _______ _____ _____    ______ ____
ROOT
ATOM      1  C   UNL     1      47.551   6.946  13.693  0.00  0.00    +0.000 C 
ENDROOT
BRANCH   1   2
ATOM      2  C   UNL     1      46.682   6.122  12.793  0.00  0.00    +0.000 A 
ATOM      3  C   UNL     1      46.134   4.916  13.234  0.00  0.00    +0.000 A 
ATOM      4  C   UNL     1      45.301   4.187  12.394  0.00  0.00    +0.000 A 
ATOM      5  C   UNL     1      45.029   4.683  11.122  0.00  0.00    +0.000 A 
ATOM      6  N   UNL     1      45.574   5.837  10.655  0.00  0.00    +0.000 NA
ATOM      7  C   UNL     1      46.386   6.520  11.495  0.00  0.00    +0.000 A 
BRANCH   5   8
ATOM      8  C   UNL     1      44.116   3.913  10.185  0.00  0.00    +0.000 C 
BRANCH   8   9
ATOM      9  N   UNL     1      44.168   4.355   8.784  0.00  0.00    +0.000 NA
ATOM     10  H   UNL     1      44.810   5.151   8.747  0.00  0.00    +0.000 HD
BRANCH   9  11
ATOM     11  C   UNL     1      44.700   3.302   7.907  0.00  0.00    +0.000 C 
BRANCH  11  12
ATOM     12  C   UNL     1      46.248   3.313   7.934  0.00  0.00    +0.000 C 
ATOM     13  C   UNL     1      46.838   1.939   7.671  0.00  0.00    +0.000 C 
ATOM     14  C   UNL     1      46.793   1.833   6.160  0.00  0.00    +0.000 C 
ATOM     15  C   UNL     1      46.952   3.269   5.674  0.00  0.00    +0.000 C 
ATOM     16  N   UNL     1      46.826   4.130   6.853  0.00  0.00    +0.000 NA
ATOM     17  H   UNL     1      46.191   4.911   6.666  0.00  0.00    +0.000 HD
ENDBRANCH  11  12
ENDBRANCH   9  11
ENDBRANCH   8   9
ENDBRANCH   5   8
ENDBRANCH   1   2
BRANCH   1  20
ATOM     18  O   UNL     1      48.978   7.997  15.855  0.00  0.00    +0.000 OA
ATOM     19  C   UNL     1      48.737   6.792  15.831  0.00  0.00    +0.000 C 
ATOM     20  N   UNL     1      48.080   6.188  14.790  0.00  0.00    +0.000 N 
ATOM     21  H   UNL     1      47.701   5.254  14.918  0.00  0.00    +0.000 HD
BRANCH  19  22
ATOM     22  C   UNL     1      49.177   5.912  16.909  0.00  0.00    +0.000 A 
ATOM     23  C   UNL     1      48.261   5.259  17.724  0.00  0.00    +0.000 A 
ATOM     24  S   UNL     1      49.000   4.254  18.890  0.00  0.00    +0.000 S 
ATOM     25  C   UNL     1      50.556   4.649  18.326  0.00  0.00    +0.000 A 
ATOM     26  N   UNL     1      51.673   4.100  18.879  0.00  0.00    +0.000 NA
ATOM     27  C   UNL     1      52.780   4.475  18.320  0.00  0.00    +0.000 A 
ATOM     28  N   UNL     1      52.878   5.352  17.270  0.00  0.00    +0.000 N 
ATOM     29  C   UNL     1      51.789   5.980  16.727  0.00  0.00    +0.000 A 
ATOM     30  O   UNL     1      51.928   6.861  15.889  0.00  0.00    +0.000 OA
ATOM     31  C   UNL     1      50.517   5.554  17.283  0.00  0.00    +0.000 A 
ATOM     32  H   UNL     1      53.776   5.637  16.908  0.00  0.00    +0.000 HD
ENDBRANCH  19  22
ENDBRANCH   1  20
TORSDOF 7
ENDMDL
MODEL 9
REMARK VINA RESULT:    -6.647      3.345      8.304
REMARK INTER + INTRA:         -10.439
REMARK INTER:                  -9.394
REMARK INTRA:                  -1.044
REMARK UNBOUND:                -1.072
REMARK  Name = 
REMARK  7 active torsions:
REMARK  status: ('A' for Active; 'I' for Inactive)
REMARK    1  A    between atoms: C_2  and  C_19
REMARK    2  A    between atoms: N_3  and  C_4
REMARK    3  A    between atoms: C_4  and  C_5
REMARK    4  A    between atoms: C_8  and  C_9
REMARK    5  A    between atoms: C_9  and  N_10
REMARK    6  A    between atoms: N_10  and  C_11
REMARK    7  A    between atoms: C_11  and  C_12
REMARK                            x       y       z     vdW  Elec       q    Type
REMARK                         _______ _______ _______ _____ _____    ______ ____
ROOT
ATOM      1  C   UNL     1      48.316   8.001  12.024  0.00  0.00    +0.000 C 
ENDROOT
BRANCH   1   2
ATOM      2  C   UNL     1      48.957   7.664  13.336  0.00  0.00    +0.000 A 
ATOM      3  C   UNL     1      48.241   7.003  14.335  0.00  0.00    +0.000 A 
ATOM      4  C   UNL     1      48.867   6.667  15.529  0.00  0.00    +0.000 A 
ATOM      5  C   UNL     1      50.208   7.001  15.701  0.00  0.00    +0.000 A 
ATOM      6  N   UNL     1      50.920   7.673  14.759  0.00  0.00    +0.000 NA
ATOM      7  C   UNL     1      50.280   7.989  13.609  0.00  0.00    +0.000 A 
BRANCH   5   8
ATOM      8  C   UNL     1      50.922   6.641  16.990  0.00  0.00    +0.000 C 
BRANCH   8   9
ATOM      9  N   UNL     1      50.029   6.342  18.119  0.00  0.00    +0.000 NA
ATOM     10  H   UNL     1      49.084   6.605  17.827  0.00  0.00    +0.000 HD
BRANCH   9  11
ATOM     11  C   UNL     1      50.023   4.907  18.435  0.00  0.00    +0.000 C 
BRANCH  11  12
ATOM     12  C   UNL     1      48.717   4.525  19.173  0.00  0.00    +0.000 C 
ATOM     13  C   UNL     1      47.492   5.163  18.542  0.00  0.00    +0.000 C 
ATOM     14  C   UNL     1      47.188   4.241  17.379  0.00  0.00    +0.000 C 
ATOM     15  C   UNL     1      47.663   2.870  17.847  0.00  0.00    +0.000 C 
ATOM     16  N   UNL     1      48.418   3.085  19.085  0.00  0.00    +0.000 NA
ATOM     17  H   UNL     1      49.305   2.574  19.063  0.00  0.00    +0.000 HD
ENDBRANCH  11  12
ENDBRANCH   9  11
ENDBRANCH   8   9
ENDBRANCH   5   8
ENDBRANCH   1   2
BRANCH   1  20
ATOM     18  O   UNL     1      45.537   7.843  11.755  0.00  0.00    +0.000 OA
ATOM     19  C   UNL     1      46.229   6.916  11.337  0.00  0.00    +0.000 C 
ATOM     20  N   UNL     1      47.594   6.894  11.466  0.00  0.00    +0.000 N 
ATOM     21  H   UNL     1      48.134   6.238  10.909  0.00  0.00    +0.000 HD
BRANCH  19  22
ATOM     22  C   UNL     1      45.625   5.748  10.704  0.00  0.00    +0.000 A 
ATOM     23  C   UNL     1      45.836   5.470   9.359  0.00  0.00    +0.000 A 
ATOM     24  S   UNL     1      45.064   4.036   8.844  0.00  0.00    +0.000 S 
ATOM     25  C   UNL     1      44.447   3.741  10.402  0.00  0.00    +0.000 A 
ATOM     26  N   UNL     1      43.701   2.635  10.673  0.00  0.00    +0.000 NA
ATOM     27  C   UNL     1      43.332   2.536  11.912  0.00  0.00    +0.000 A 
ATOM     28  N   UNL     1      43.628   3.440  12.900  0.00  0.00    +0.000 N 
ATOM     29  C   UNL     1      44.315   4.599  12.660  0.00  0.00    +0.000 A 
ATOM     30  O   UNL     1      44.437   5.448  13.534  0.00  0.00    +0.000 OA
ATOM     31  C   UNL     1      44.800   4.734  11.297  0.00  0.00    +0.000 A 
ATOM     32  H   UNL     1      43.272   3.326  13.837  0.00  0.00    +0.000 HD
ENDBRANCH  19  22
ENDBRANCH   1  20
TORSDOF 7
ENDMDL
