MODEL 1
REMARK VINA RESULT:    -8.815      0.000      0.000
REMARK INTER + INTRA:         -12.339
REMARK INTER:                 -11.392
REMARK INTRA:                  -0.947
REMARK UNBOUND:                -0.947
REMARK  Name = 
REMARK  5 active torsions:
REMARK  status: ('A' for Active; 'I' for Inactive)
REMARK    1  A    between atoms: C_2  and  C_4
REMARK    2  A    between atoms: C_7  and  N_8
REMARK    3  A    between atoms: N_8  and  C_9
REMARK    4  A    between atoms: C_9  and  C_10
REMARK    5  A    between atoms: C_14  and  C_15
REMARK                            x       y       z     vdW  Elec       q    Type
REMARK                         _______ _______ _______ _____ _____    ______ ____
ROOT
ATOM      1  C   UNL     1      43.535   4.819  11.313  0.00  0.00    +0.000 C 
ENDROOT
BRANCH   1   2
ATOM      2  C   UNL     1      44.782   5.109  12.100  0.00  0.00    +0.000 A 
ATOM      3  C   UNL     1      45.175   4.293  13.150  0.00  0.00    +0.000 A 
ATOM      4  N   UNL     1      46.315   4.468  13.848  0.00  0.00    +0.000 NA
ATOM      5  C   UNL     1      47.100   5.513  13.482  0.00  0.00    +0.000 A 
ATOM      6  C   UNL     1      46.821   6.416  12.454  0.00  0.00    +0.000 A 
ATOM      7  C   UNL     1      45.629   6.175  11.755  0.00  0.00    +0.000 A 
BRANCH   6   8
ATOM      8  C   UNL     1      47.699   7.562  12.140  0.00  0.00    +0.000 A 
ATOM      9  C   UNL     1      47.219   8.888  12.143  0.00  0.00    +0.000 A 
ATOM     10  C   UNL     1      48.067   9.977  11.898  0.00  0.00    +0.000 A 
ATOM     11  C   UNL     1      49.415   9.762  11.634  0.00  0.00    +0.000 A 
ATOM     12  C   UNL     1      49.899   8.463  11.608  0.00  0.00    +0.000 A 
ATOM     13  F   UNL     1      51.196   8.248  11.351  0.00  0.00    +0.000 F 
ATOM     14  C   UNL     1      49.063   7.376  11.857  0.00  0.00    +0.000 A 
ENDBRANCH   6   8
ENDBRANCH   1   2
BRANCH   1  15
ATOM     15  N   UNL     1      43.802   4.962   9.892  0.00  0.00    +0.000 N 
ATOM     16  H   UNL     1      43.055   5.408   9.364  0.00  0.00    +0.000 HD
BRANCH  15  20
ATOM     17  C   UNL     1      46.335   2.269   7.875  0.00  0.00    +0.000 A 
ATOM     18  C   UNL     1      45.380   1.777   8.768  0.00  0.00    +0.000 A 
ATOM     19  C   UNL     1      44.499   2.655   9.407  0.00  0.00    +0.000 A 
ATOM     20  C   UNL     1      44.540   4.034   9.169  0.00  0.00    +0.000 A 
ATOM     21  C   UNL     1      45.505   4.510   8.268  0.00  0.00    +0.000 A 
ATOM     22  C   UNL     1      46.397   3.639   7.628  0.00  0.00    +0.000 A 
BRANCH  17  24
ATOM     23  N   UNL     1      48.393   1.968   6.609  0.00  0.00    +0.000 N 
ATOM     24  C   UNL     1      47.328   1.375   7.228  0.00  0.00    +0.000 C 
ATOM     25  O   UNL     1      47.216   0.156   7.263  0.00  0.00    +0.000 OA
ATOM     26  H   UNL     1      49.106   1.346   6.249  0.00  0.00    +0.000 HD
ATOM     27  H   UNL     1      48.643   2.933   6.761  0.00  0.00    +0.000 HD
ENDBRANCH  17  24
ENDBRANCH  15  20
ENDBRANCH   1  15
TORSDOF 5
ENDMDL
MODEL 2
REMARK VINA RESULT:    -8.474      1.942      2.330
REMARK INTER + INTRA:         -11.898
REMARK INTER:                 -11.019
REMARK INTRA:                  -0.879
REMARK UNBOUND:                -0.947
REMARK  Name = 
REMARK  5 active torsions:
REMARK  status: ('A' for Active; 'I' for Inactive)
REMARK    1  A    between atoms: C_2  and  C_4
REMARK    2  A    between atoms: C_7  and  N_8
REMARK    3  A    between atoms: N_8  and  C_9
REMARK    4  A    between atoms: C_9  and  C_10
REMARK    5  A    between atoms: C_14  and  C_15
REMARK                            x       y       z     vdW  Elec       q    Type
REMARK                         _______ _______ _______ _____ _____    ______ ____
ROOT
ATOM      1  C   UNL     1      44.602   3.308  12.018  0.00  0.00    +0.000 C 
ENDROOT
BRANCH   1   2
ATOM      2  C   UNL     1      45.594   4.254  12.635  0.00  0.00    +0.000 A 
ATOM      3  C   UNL     1      46.561   3.804  13.521  0.00  0.00    +0.000 A 
ATOM      4  N   UNL     1      47.513   4.595  14.056  0.00  0.00    +0.000 NA
ATOM      5  C   UNL     1      47.497   5.902  13.689  0.00  0.00    +0.000 A 
ATOM      6  C   UNL     1      46.577   6.488  12.816  0.00  0.00    +0.000 A 
ATOM      7  C   UNL     1      45.619   5.614  12.283  0.00  0.00    +0.000 A 
BRANCH   6   8
ATOM      8  C   UNL     1      46.589   7.931  12.498  0.00  0.00    +0.000 A 
ATOM      9  C   UNL     1      47.788   8.623  12.230  0.00  0.00    +0.000 A 
ATOM     10  C   UNL     1      47.791   9.979  11.876  0.00  0.00    +0.000 A 
ATOM     11  C   UNL     1      46.592  10.677  11.791  0.00  0.00    +0.000 A 
ATOM     12  C   UNL     1      45.405  10.017  12.070  0.00  0.00    +0.000 A 
ATOM     13  F   UNL     1      44.246  10.684  11.994  0.00  0.00    +0.000 F 
ATOM     14  C   UNL     1      45.394   8.667  12.417  0.00  0.00    +0.000 A 
ENDBRANCH   6   8
ENDBRANCH   1   2
BRANCH   1  15
ATOM     15  N   UNL     1      44.243   3.767  10.687  0.00  0.00    +0.000 N 
ATOM     16  H   UNL     1      43.249   3.935  10.552  0.00  0.00    +0.000 HD
BRANCH  15  20
ATOM     17  C   UNL     1      46.588   2.666   7.366  0.00  0.00    +0.000 A 
ATOM     18  C   UNL     1      46.044   1.671   8.184  0.00  0.00    +0.000 A 
ATOM     19  C   UNL     1      45.223   2.021   9.260  0.00  0.00    +0.000 A 
ATOM     20  C   UNL     1      44.917   3.358   9.543  0.00  0.00    +0.000 A 
ATOM     21  C   UNL     1      45.471   4.341   8.711  0.00  0.00    +0.000 A 
ATOM     22  C   UNL     1      46.301   4.003   7.634  0.00  0.00    +0.000 A 
BRANCH  17  24
ATOM     23  N   UNL     1      47.340   3.005   5.075  0.00  0.00    +0.000 N 
ATOM     24  C   UNL     1      47.515   2.336   6.254  0.00  0.00    +0.000 C 
ATOM     25  O   UNL     1      48.415   1.517   6.388  0.00  0.00    +0.000 OA
ATOM     26  H   UNL     1      48.030   2.835   4.356  0.00  0.00    +0.000 HD
ATOM     27  H   UNL     1      46.778   3.840   5.002  0.00  0.00    +0.000 HD
ENDBRANCH  17  24
ENDBRANCH  15  20
ENDBRANCH   1  15
TORSDOF 5
ENDMDL
MODEL 3
REMARK VINA RESULT:    -8.322      3.683      6.768
REMARK INTER + INTRA:         -11.701
REMARK INTER:                 -10.807
REMARK INTRA:                  -0.895
REMARK UNBOUND:                -0.947
REMARK  Name = 
REMARK  5 active torsions:
REMARK  status: ('A' for Active; 'I' for Inactive)
REMARK    1  A    between atoms: C_2  and  C_4
REMARK    2  A    between atoms: C_7  and  N_8
REMARK    3  A    between atoms: N_8  and  C_9
REMARK    4  A    between atoms: C_9  and  C_10
REMARK    5  A    between atoms: C_14  and  C_15
REMARK                            x       y       z     vdW  Elec       q    Type
REMARK                         _______ _______ _______ _____ _____    ______ ____
ROOT
ATOM      1  C   UNL     1      43.630   6.496  11.483  0.00  0.00    +0.000 C 
ENDROOT
BRANCH   1   2
ATOM      2  C   UNL     1      43.780   5.037  11.151  0.00  0.00    +0.000 A 
ATOM      3  C   UNL     1      43.112   4.062  11.877  0.00  0.00    +0.000 A 
ATOM      4  N   UNL     1      43.160   2.747  11.585  0.00  0.00    +0.000 NA
ATOM      5  C   UNL     1      43.914   2.386  10.516  0.00  0.00    +0.000 A 
ATOM      6  C   UNL     1      44.644   3.260   9.707  0.00  0.00    +0.000 A 
ATOM      7  C   UNL     1      44.546   4.616  10.051  0.00  0.00    +0.000 A 
BRANCH   6   8
ATOM      8  C   UNL     1      45.486   2.792   8.585  0.00  0.00    +0.000 A 
ATOM      9  C   UNL     1      45.956   3.674   7.591  0.00  0.00    +0.000 A 
ATOM     10  C   UNL     1      46.798   3.238   6.560  0.00  0.00    +0.000 A 
ATOM     11  C   UNL     1      47.181   1.903   6.494  0.00  0.00    +0.000 A 
ATOM     12  C   UNL     1      46.713   1.018   7.453  0.00  0.00    +0.000 A 
ATOM     13  F   UNL     1      47.075  -0.270   7.395  0.00  0.00    +0.000 F 
ATOM     14  C   UNL     1      45.880   1.447   8.485  0.00  0.00    +0.000 A 
ENDBRANCH   6   8
ENDBRANCH   1   2
BRANCH   1  15
ATOM     15  N   UNL     1      44.494   6.840  12.599  0.00  0.00    +0.000 N 
ATOM     16  H   UNL     1      44.049   7.404  13.319  0.00  0.00    +0.000 HD
BRANCH  15  20
ATOM     17  C   UNL     1      48.603   7.751  12.443  0.00  0.00    +0.000 A 
ATOM     18  C   UNL     1      48.198   6.461  12.794  0.00  0.00    +0.000 A 
ATOM     19  C   UNL     1      46.839   6.130  12.802  0.00  0.00    +0.000 A 
ATOM     20  C   UNL     1      45.856   7.066  12.454  0.00  0.00    +0.000 A 
ATOM     21  C   UNL     1      46.283   8.355  12.104  0.00  0.00    +0.000 A 
ATOM     22  C   UNL     1      47.641   8.699  12.100  0.00  0.00    +0.000 A 
BRANCH  17  24
ATOM     23  N   UNL     1      50.910   7.422  11.740  0.00  0.00    +0.000 N 
ATOM     24  C   UNL     1      50.031   8.156  12.486  0.00  0.00    +0.000 C 
ATOM     25  O   UNL     1      50.407   9.118  13.143  0.00  0.00    +0.000 OA
ATOM     26  H   UNL     1      51.863   7.761  11.709  0.00  0.00    +0.000 HD
ATOM     27  H   UNL     1      50.612   6.788  11.015  0.00  0.00    +0.000 HD
ENDBRANCH  17  24
ENDBRANCH  15  20
ENDBRANCH   1  15
TORSDOF 5
ENDMDL
MODEL 4
REMARK VINA RESULT:    -7.624      3.593      7.055
REMARK INTER + INTRA:         -10.799
REMARK INTER:                 -10.308
REMARK INTRA:                  -0.491
REMARK UNBOUND:                -0.947
REMARK  Name = 
REMARK  5 active torsions:
REMARK  status: ('A' for Active; 'I' for Inactive)
REMARK    1  A    between atoms: C_2  and  C_4
REMARK    2  A    between atoms: C_7  and  N_8
REMARK    3  A    between atoms: N_8  and  C_9
REMARK    4  A    between atoms: C_9  and  C_10
REMARK    5  A    between atoms: C_14  and  C_15
REMARK                            x       y       z     vdW  Elec       q    Type
REMARK                         _______ _______ _______ _____ _____    ______ ____
ROOT
ATOM      1  C   UNL     1      44.022   6.331  11.317  0.00  0.00    +0.000 C 
ENDROOT
BRANCH   1   2
ATOM      2  C   UNL     1      44.099   4.886  10.913  0.00  0.00    +0.000 A 
ATOM      3  C   UNL     1      43.346   3.917  11.559  0.00  0.00    +0.000 A 
ATOM      4  N   UNL     1      43.328   2.618  11.199  0.00  0.00    +0.000 NA
ATOM      5  C   UNL     1      44.104   2.267  10.142  0.00  0.00    +0.000 A 
ATOM      6  C   UNL     1      44.917   3.136   9.410  0.00  0.00    +0.000 A 
ATOM      7  C   UNL     1      44.885   4.475   9.823  0.00  0.00    +0.000 A 
BRANCH   6   8
ATOM      8  C   UNL     1      45.775   2.676   8.298  0.00  0.00    +0.000 A 
ATOM      9  C   UNL     1      46.384   1.403   8.307  0.00  0.00    +0.000 A 
ATOM     10  C   UNL     1      47.153   0.949   7.227  0.00  0.00    +0.000 A 
ATOM     11  C   UNL     1      47.339   1.764   6.116  0.00  0.00    +0.000 A 
ATOM     12  C   UNL     1      46.763   3.025   6.099  0.00  0.00    +0.000 A 
ATOM     13  F   UNL     1      46.941   3.816   5.033  0.00  0.00    +0.000 F 
ATOM     14  C   UNL     1      45.992   3.481   7.167  0.00  0.00    +0.000 A 
ENDBRANCH   6   8
ENDBRANCH   1   2
BRANCH   1  15
ATOM     15  N   UNL     1      45.356   6.906  11.358  0.00  0.00    +0.000 N 
ATOM     16  H   UNL     1      45.776   7.063  10.445  0.00  0.00    +0.000 HD
BRANCH  15  20
ATOM     17  C   UNL     1      47.991   6.334  14.593  0.00  0.00    +0.000 A 
ATOM     18  C   UNL     1      46.973   5.405  14.364  0.00  0.00    +0.000 A 
ATOM     19  C   UNL     1      46.122   5.555  13.264  0.00  0.00    +0.000 A 
ATOM     20  C   UNL     1      46.267   6.620  12.367  0.00  0.00    +0.000 A 
ATOM     21  C   UNL     1      47.295   7.542  12.613  0.00  0.00    +0.000 A 
ATOM     22  C   UNL     1      48.150   7.405  13.715  0.00  0.00    +0.000 A 
BRANCH  17  24
ATOM     23  N   UNL     1      48.286   5.894  16.970  0.00  0.00    +0.000 N 
ATOM     24  C   UNL     1      48.872   6.242  15.785  0.00  0.00    +0.000 C 
ATOM     25  O   UNL     1      50.077   6.445  15.712  0.00  0.00    +0.000 OA
ATOM     26  H   UNL     1      48.909   5.751  17.754  0.00  0.00    +0.000 HD
ATOM     27  H   UNL     1      47.361   5.494  17.022  0.00  0.00    +0.000 HD
ENDBRANCH  17  24
ENDBRANCH  15  20
ENDBRANCH   1  15
TORSDOF 5
ENDMDL
MODEL 5
REMARK VINA RESULT:    -7.420      3.638      6.990
REMARK INTER + INTRA:         -10.536
REMARK INTER:                  -9.690
REMARK INTRA:                  -0.846
REMARK UNBOUND:                -0.947
REMARK  Name = 
REMARK  5 active torsions:
REMARK  status: ('A' for Active; 'I' for Inactive)
REMARK    1  A    between atoms: C_2  and  C_4
REMARK    2  A    between atoms: C_7  and  N_8
REMARK    3  A    between atoms: N_8  and  C_9
REMARK    4  A    between atoms: C_9  and  C_10
REMARK    5  A    between atoms: C_14  and  C_15
REMARK                            x       y       z     vdW  Elec       q    Type
REMARK                         _______ _______ _______ _____ _____    ______ ____
ROOT
ATOM      1  C   UNL     1      45.637   4.964  13.331  0.00  0.00    +0.000 C 
ENDROOT
BRANCH   1   2
ATOM      2  C   UNL     1      44.972   4.705  12.008  0.00  0.00    +0.000 A 
ATOM      3  C   UNL     1      43.694   5.173  11.742  0.00  0.00    +0.000 A 
ATOM      4  N   UNL     1      43.074   5.024  10.555  0.00  0.00    +0.000 NA
ATOM      5  C   UNL     1      43.763   4.374   9.584  0.00  0.00    +0.000 A 
ATOM      6  C   UNL     1      45.049   3.844   9.719  0.00  0.00    +0.000 A 
ATOM      7  C   UNL     1      45.647   4.040  10.971  0.00  0.00    +0.000 A 
BRANCH   6   8
ATOM      8  C   UNL     1      45.722   3.102   8.632  0.00  0.00    +0.000 A 
ATOM      9  C   UNL     1      46.273   3.760   7.514  0.00  0.00    +0.000 A 
ATOM     10  C   UNL     1      46.959   3.060   6.512  0.00  0.00    +0.000 A 
ATOM     11  C   UNL     1      47.101   1.680   6.603  0.00  0.00    +0.000 A 
ATOM     12  C   UNL     1      46.549   1.015   7.687  0.00  0.00    +0.000 A 
ATOM     13  F   UNL     1      46.679  -0.316   7.780  0.00  0.00    +0.000 F 
ATOM     14  C   UNL     1      45.871   1.705   8.690  0.00  0.00    +0.000 A 
ENDBRANCH   6   8
ENDBRANCH   1   2
BRANCH   1  15
ATOM     15  N   UNL     1      45.870   6.389  13.497  0.00  0.00    +0.000 N 
ATOM     16  H   UNL     1      45.045   6.969  13.368  0.00  0.00    +0.000 HD
BRANCH  15  20
ATOM     17  C   UNL     1      49.628   7.915  12.363  0.00  0.00    +0.000 A 
ATOM     18  C   UNL     1      48.517   8.149  11.548  0.00  0.00    +0.000 A 
ATOM     19  C   UNL     1      47.254   7.691  11.937  0.00  0.00    +0.000 A 
ATOM     20  C   UNL     1      47.064   7.002  13.141  0.00  0.00    +0.000 A 
ATOM     21  C   UNL     1      48.191   6.778  13.945  0.00  0.00    +0.000 A 
ATOM     22  C   UNL     1      49.462   7.226  13.562  0.00  0.00    +0.000 A 
BRANCH  17  24
ATOM     23  N   UNL     1      51.660   7.510  11.085  0.00  0.00    +0.000 N 
ATOM     24  C   UNL     1      50.993   8.330  11.952  0.00  0.00    +0.000 C 
ATOM     25  O   UNL     1      51.496   9.372  12.350  0.00  0.00    +0.000 OA
ATOM     26  H   UNL     1      52.552   7.847  10.745  0.00  0.00    +0.000 HD
ATOM     27  H   UNL     1      51.199   6.784  10.558  0.00  0.00    +0.000 HD
ENDBRANCH  17  24
ENDBRANCH  15  20
ENDBRANCH   1  15
TORSDOF 5
ENDMDL
MODEL 6
REMARK VINA RESULT:    -7.358      4.237      7.619
REMARK INTER + INTRA:         -10.456
REMARK INTER:                  -9.765
REMARK INTRA:                  -0.691
REMARK UNBOUND:                -0.947
REMARK  Name = 
REMARK  5 active torsions:
REMARK  status: ('A' for Active; 'I' for Inactive)
REMARK    1  A    between atoms: C_2  and  C_4
REMARK    2  A    between atoms: C_7  and  N_8
REMARK    3  A    between atoms: N_8  and  C_9
REMARK    4  A    between atoms: C_9  and  C_10
REMARK    5  A    between atoms: C_14  and  C_15
REMARK                            x       y       z     vdW  Elec       q    Type
REMARK                         _______ _______ _______ _____ _____    ______ ____
ROOT
ATOM      1  C   UNL     1      45.828   6.800  13.000  0.00  0.00    +0.000 C 
ENDROOT
BRANCH   1   2
ATOM      2  C   UNL     1      45.032   5.821  12.184  0.00  0.00    +0.000 A 
ATOM      3  C   UNL     1      43.699   5.565  12.468  0.00  0.00    +0.000 A 
ATOM      4  N   UNL     1      42.921   4.745  11.733  0.00  0.00    +0.000 NA
ATOM      5  C   UNL     1      43.502   4.150  10.661  0.00  0.00    +0.000 A 
ATOM      6  C   UNL     1      44.833   4.311  10.268  0.00  0.00    +0.000 A 
ATOM      7  C   UNL     1      45.589   5.184  11.063  0.00  0.00    +0.000 A 
BRANCH   6   8
ATOM      8  C   UNL     1      45.416   3.592   9.116  0.00  0.00    +0.000 A 
ATOM      9  C   UNL     1      45.951   4.277   8.006  0.00  0.00    +0.000 A 
ATOM     10  C   UNL     1      46.552   3.594   6.940  0.00  0.00    +0.000 A 
ATOM     11  C   UNL     1      46.621   2.205   6.956  0.00  0.00    +0.000 A 
ATOM     12  C   UNL     1      46.083   1.515   8.031  0.00  0.00    +0.000 A 
ATOM     13  F   UNL     1      46.143   0.177   8.052  0.00  0.00    +0.000 F 
ATOM     14  C   UNL     1      45.490   2.188   9.097  0.00  0.00    +0.000 A 
ENDBRANCH   6   8
ENDBRANCH   1   2
BRANCH   1  15
ATOM     15  N   UNL     1      47.152   6.264  13.262  0.00  0.00    +0.000 N 
ATOM     16  H   UNL     1      47.546   5.718  12.500  0.00  0.00    +0.000 HD
BRANCH  15  20
ATOM     17  C   UNL     1      48.573   4.772  16.936  0.00  0.00    +0.000 A 
ATOM     18  C   UNL     1      49.041   6.003  16.467  0.00  0.00    +0.000 A 
ATOM     19  C   UNL     1      48.540   6.534  15.273  0.00  0.00    +0.000 A 
ATOM     20  C   UNL     1      47.564   5.863  14.527  0.00  0.00    +0.000 A 
ATOM     21  C   UNL     1      47.107   4.630  15.015  0.00  0.00    +0.000 A 
ATOM     22  C   UNL     1      47.606   4.085  16.205  0.00  0.00    +0.000 A 
BRANCH  17  24
ATOM     23  N   UNL     1      48.576   2.963  18.566  0.00  0.00    +0.000 N 
ATOM     24  C   UNL     1      49.128   4.148  18.164  0.00  0.00    +0.000 C 
ATOM     25  O   UNL     1      50.055   4.655  18.781  0.00  0.00    +0.000 OA
ATOM     26  H   UNL     1      49.019   2.506  19.352  0.00  0.00    +0.000 HD
ATOM     27  H   UNL     1      47.988   2.405  17.965  0.00  0.00    +0.000 HD
ENDBRANCH  17  24
ENDBRANCH  15  20
ENDBRANCH   1  15
TORSDOF 5
ENDMDL
MODEL 7
REMARK VINA RESULT:    -6.401      5.707      8.633
REMARK INTER + INTRA:          -9.220
REMARK INTER:                  -8.576
REMARK INTRA:                  -0.644
REMARK UNBOUND:                -0.947
REMARK  Name = 
REMARK  5 active torsions:
REMARK  status: ('A' for Active; 'I' for Inactive)
REMARK    1  A    between atoms: C_2  and  C_4
REMARK    2  A    between atoms: C_7  and  N_8
REMARK    3  A    between atoms: N_8  and  C_9
REMARK    4  A    between atoms: C_9  and  C_10
REMARK    5  A    between atoms: C_14  and  C_15
REMARK                            x       y       z     vdW  Elec       q    Type
REMARK                         _______ _______ _______ _____ _____    ______ ____
ROOT
ATOM      1  C   UNL     1      48.095   4.510  17.507  0.00  0.00    +0.000 C 
ENDROOT
BRANCH   1   2
ATOM      2  C   UNL     1      47.852   5.070  16.133  0.00  0.00    +0.000 A 
ATOM      3  C   UNL     1      48.696   6.026  15.586  0.00  0.00    +0.000 A 
ATOM      4  N   UNL     1      48.563   6.516  14.338  0.00  0.00    +0.000 NA
ATOM      5  C   UNL     1      47.534   6.030  13.598  0.00  0.00    +0.000 A 
ATOM      6  C   UNL     1      46.607   5.077  14.026  0.00  0.00    +0.000 A 
ATOM      7  C   UNL     1      46.803   4.595  15.328  0.00  0.00    +0.000 A 
BRANCH   6   8
ATOM      8  C   UNL     1      45.479   4.628  13.183  0.00  0.00    +0.000 A 
ATOM      9  C   UNL     1      45.516   3.404  12.484  0.00  0.00    +0.000 A 
ATOM     10  C   UNL     1      44.424   2.956  11.729  0.00  0.00    +0.000 A 
ATOM     11  C   UNL     1      43.271   3.729  11.648  0.00  0.00    +0.000 A 
ATOM     12  C   UNL     1      43.225   4.943  12.314  0.00  0.00    +0.000 A 
ATOM     13  F   UNL     1      42.119   5.695  12.239  0.00  0.00    +0.000 F 
ATOM     14  C   UNL     1      44.305   5.393  13.072  0.00  0.00    +0.000 A 
ENDBRANCH   6   8
ENDBRANCH   1   2
BRANCH   1  15
ATOM     15  N   UNL     1      49.495   4.667  17.864  0.00  0.00    +0.000 N 
ATOM     16  H   UNL     1      49.861   5.607  17.736  0.00  0.00    +0.000 HD
BRANCH  15  20
ATOM     17  C   UNL     1      52.376   1.599  17.700  0.00  0.00    +0.000 A 
ATOM     18  C   UNL     1      51.058   1.324  17.327  0.00  0.00    +0.000 A 
ATOM     19  C   UNL     1      50.102   2.345  17.328  0.00  0.00    +0.000 A 
ATOM     20  C   UNL     1      50.432   3.657  17.691  0.00  0.00    +0.000 A 
ATOM     21  C   UNL     1      51.761   3.913  18.061  0.00  0.00    +0.000 A 
ATOM     22  C   UNL     1      52.725   2.896  18.070  0.00  0.00    +0.000 A 
BRANCH  17  24
ATOM     23  N   UNL     1      53.070  -0.610  18.453  0.00  0.00    +0.000 N 
ATOM     24  C   UNL     1      53.402   0.528  17.772  0.00  0.00    +0.000 C 
ATOM     25  O   UNL     1      54.492   0.644  17.227  0.00  0.00    +0.000 OA
ATOM     26  H   UNL     1      53.743  -1.365  18.420  0.00  0.00    +0.000 HD
ATOM     27  H   UNL     1      52.120  -0.836  18.704  0.00  0.00    +0.000 HD
ENDBRANCH  17  24
ENDBRANCH  15  20
ENDBRANCH   1  15
TORSDOF 5
ENDMDL
MODEL 8
REMARK VINA RESULT:    -6.376      4.185      7.668
REMARK INTER + INTRA:          -9.187
REMARK INTER:                  -8.485
REMARK INTRA:                  -0.702
REMARK UNBOUND:                -0.947
REMARK  Name = 
REMARK  5 active torsions:
REMARK  status: ('A' for Active; 'I' for Inactive)
REMARK    1  A    between atoms: C_2  and  C_4
REMARK    2  A    between atoms: C_7  and  N_8
REMARK    3  A    between atoms: N_8  and  C_9
REMARK    4  A    between atoms: C_9  and  C_10
REMARK    5  A    between atoms: C_14  and  C_15
REMARK                            x       y       z     vdW  Elec       q    Type
REMARK                         _______ _______ _______ _____ _____    ______ ____
ROOT
ATOM      1  C   UNL     1      48.548   7.743  13.087  0.00  0.00    +0.000 C 
ENDROOT
BRANCH   1   2
ATOM      2  C   UNL     1      47.182   7.537  12.494  0.00  0.00    +0.000 A 
ATOM      3  C   UNL     1      46.188   8.494  12.629  0.00  0.00    +0.000 A 
ATOM      4  N   UNL     1      44.967   8.390  12.066  0.00  0.00    +0.000 NA
ATOM      5  C   UNL     1      44.726   7.273  11.334  0.00  0.00    +0.000 A 
ATOM      6  C   UNL     1      45.630   6.229  11.126  0.00  0.00    +0.000 A 
ATOM      7  C   UNL     1      46.886   6.399  11.725  0.00  0.00    +0.000 A 
BRANCH   6   8
ATOM      8  C   UNL     1      45.283   5.016  10.356  0.00  0.00    +0.000 A 
ATOM      9  C   UNL     1      44.548   3.958  10.929  0.00  0.00    +0.000 A 
ATOM     10  C   UNL     1      44.174   2.833  10.181  0.00  0.00    +0.000 A 
ATOM     11  C   UNL     1      44.537   2.738   8.842  0.00  0.00    +0.000 A 
ATOM     12  C   UNL     1      45.276   3.761   8.269  0.00  0.00    +0.000 A 
ATOM     13  F   UNL     1      45.632   3.674   6.980  0.00  0.00    +0.000 F 
ATOM     14  C   UNL     1      45.646   4.884   9.005  0.00  0.00    +0.000 A 
ENDBRANCH   6   8
ENDBRANCH   1   2
BRANCH   1  15
ATOM     15  N   UNL     1      48.458   7.780  14.536  0.00  0.00    +0.000 N 
ATOM     16  H   UNL     1      48.773   8.651  14.957  0.00  0.00    +0.000 HD
BRANCH  15  20
ATOM     17  C   UNL     1      48.960   4.582  17.231  0.00  0.00    +0.000 A 
ATOM     18  C   UNL     1      47.897   4.556  16.324  0.00  0.00    +0.000 A 
ATOM     19  C   UNL     1      47.747   5.587  15.391  0.00  0.00    +0.000 A 
ATOM     20  C   UNL     1      48.649   6.656  15.330  0.00  0.00    +0.000 A 
ATOM     21  C   UNL     1      49.709   6.664  16.248  0.00  0.00    +0.000 A 
ATOM     22  C   UNL     1      49.865   5.641  17.193  0.00  0.00    +0.000 A 
BRANCH  17  24
ATOM     23  N   UNL     1      49.936   2.486  17.993  0.00  0.00    +0.000 N 
ATOM     24  C   UNL     1      49.113   3.540  18.278  0.00  0.00    +0.000 C 
ATOM     25  O   UNL     1      48.548   3.627  19.360  0.00  0.00    +0.000 OA
ATOM     26  H   UNL     1      50.100   1.829  18.745  0.00  0.00    +0.000 HD
ATOM     27  H   UNL     1      50.592   2.499  17.227  0.00  0.00    +0.000 HD
ENDBRANCH  17  24
ENDBRANCH  15  20
ENDBRANCH   1  15
TORSDOF 5
ENDMDL
MODEL 9
REMARK VINA RESULT:    -6.289      3.984      5.889
REMARK INTER + INTRA:          -9.074
REMARK INTER:                  -8.184
REMARK INTRA:                  -0.890
REMARK UNBOUND:                -0.947
REMARK  Name = 
REMARK  5 active torsions:
REMARK  status: ('A' for Active; 'I' for Inactive)
REMARK    1  A    between atoms: C_2  and  C_4
REMARK    2  A    between atoms: C_7  and  N_8
REMARK    3  A    between atoms: N_8  and  C_9
REMARK    4  A    between atoms: C_9  and  C_10
REMARK    5  A    between atoms: C_14  and  C_15
REMARK                            x       y       z     vdW  Elec       q    Type
REMARK                         _______ _______ _______ _____ _____    ______ ____
ROOT
ATOM      1  C   UNL     1      48.336   7.515  12.124  0.00  0.00    +0.000 C 
ENDROOT
BRANCH   1   2
ATOM      2  C   UNL     1      48.962   7.583  13.488  0.00  0.00    +0.000 A 
ATOM      3  C   UNL     1      49.774   8.646  13.855  0.00  0.00    +0.000 A 
ATOM      4  N   UNL     1      50.310   8.790  15.083  0.00  0.00    +0.000 NA
ATOM      5  C   UNL     1      50.024   7.823  15.991  0.00  0.00    +0.000 A 
ATOM      6  C   UNL     1      49.232   6.696  15.754  0.00  0.00    +0.000 A 
ATOM      7  C   UNL     1      48.692   6.608  14.463  0.00  0.00    +0.000 A 
BRANCH   6   8
ATOM      8  C   UNL     1      49.002   5.655  16.776  0.00  0.00    +0.000 A 
ATOM      9  C   UNL     1      49.746   5.612  17.974  0.00  0.00    +0.000 A 
ATOM     10  C   UNL     1      49.487   4.656  18.965  0.00  0.00    +0.000 A 
ATOM     11  C   UNL     1      48.484   3.713  18.776  0.00  0.00    +0.000 A 
ATOM     12  C   UNL     1      47.756   3.729  17.597  0.00  0.00    +0.000 A 
ATOM     13  F   UNL     1      46.788   2.822  17.406  0.00  0.00    +0.000 F 
ATOM     14  C   UNL     1      48.002   4.681  16.609  0.00  0.00    +0.000 A 
ENDBRANCH   6   8
ENDBRANCH   1   2
BRANCH   1  15
ATOM     15  N   UNL     1      46.890   7.599  12.239  0.00  0.00    +0.000 N 
ATOM     16  H   UNL     1      46.560   8.228  12.967  0.00  0.00    +0.000 HD
BRANCH  15  20
ATOM     17  C   UNL     1      44.639   4.151  11.355  0.00  0.00    +0.000 A 
ATOM     18  C   UNL     1      44.824   4.528  12.688  0.00  0.00    +0.000 A 
ATOM     19  C   UNL     1      45.526   5.699  12.994  0.00  0.00    +0.000 A 
ATOM     20  C   UNL     1      46.052   6.520  11.989  0.00  0.00    +0.000 A 
ATOM     21  C   UNL     1      45.855   6.125  10.658  0.00  0.00    +0.000 A 
ATOM     22  C   UNL     1      45.159   4.951  10.340  0.00  0.00    +0.000 A 
BRANCH  17  24
ATOM     23  N   UNL     1      44.467   2.174   9.944  0.00  0.00    +0.000 N 
ATOM     24  C   UNL     1      43.955   2.883  10.995  0.00  0.00    +0.000 C 
ATOM     25  O   UNL     1      42.988   2.473  11.623  0.00  0.00    +0.000 OA
ATOM     26  H   UNL     1      44.046   1.272   9.765  0.00  0.00    +0.000 HD
ATOM     27  H   UNL     1      45.384   2.351   9.563  0.00  0.00    +0.000 HD
ENDBRANCH  17  24
ENDBRANCH  15  20
ENDBRANCH   1  15
TORSDOF 5
ENDMDL
