MODEL 1
REMARK VINA RESULT:    -8.484      0.000      0.000
REMARK INTER + INTRA:         -13.832
REMARK INTER:                 -12.948
REMARK INTRA:                  -0.885
REMARK UNBOUND:                -0.885
REMARK  Name = 
REMARK  9 active torsions:
REMARK  status: ('A' for Active; 'I' for Inactive)
REMARK    1  A    between atoms: C_2  and  C_4
REMARK    2  A    between atoms: C_7  and  N_8
REMARK    3  A    between atoms: N_8  and  C_9
REMARK    4  A    between atoms: C_9  and  C_10
REMARK    5  A    between atoms: C_10  and  C_13
REMARK    6  A    between atoms: C_15  and  N_16
REMARK    7  A    between atoms: N_16  and  C_17
REMARK    8  A    between atoms: C_17  and  C_18
REMARK    9  A    between atoms: C_24  and  C_25
REMARK                            x       y       z     vdW  Elec       q    Type
REMARK                         _______ _______ _______ _____ _____    ______ ____
ROOT
ATOM      1  C   UNL     1      44.580   5.819  12.478  0.00  0.00    +0.000 A 
ATOM      2  C   UNL     1      44.464   7.104  11.894  0.00  0.00    +0.000 A 
ATOM      3  C   UNL     1      45.551   7.986  11.786  0.00  0.00    +0.000 A 
ATOM      4  C   UNL     1      46.768   7.571  12.324  0.00  0.00    +0.000 A 
ATOM      5  C   UNL     1      46.918   6.307  12.894  0.00  0.00    +0.000 A 
ATOM      6  C   UNL     1      45.835   5.423  12.974  0.00  0.00    +0.000 A 
ENDROOT
BRANCH   6   7
ATOM      7  C   UNL     1      46.091   4.063  13.512  0.00  0.00    +0.000 C 
ATOM      8  N   UNL     1      46.471   3.965  14.823  0.00  0.00    +0.000 N 
ATOM      9  O   UNL     1      46.004   3.073  12.799  0.00  0.00    +0.000 OA
ATOM     10  H   UNL     1      46.473   4.740  15.469  0.00  0.00    +0.000 HD
ATOM     11  H   UNL     1      46.624   3.036  15.194  0.00  0.00    +0.000 HD
ENDBRANCH   6   7
BRANCH   1  12
ATOM     12  C   UNL     1      43.334   4.951  12.552  0.00  0.00    +0.000 C 
ATOM     13  F   UNL     1      42.204   5.733  12.586  0.00  0.00    +0.000 F 
ATOM     14  F   UNL     1      43.250   4.215  13.700  0.00  0.00    +0.000 F 
BRANCH  12  15
ATOM     15  C   UNL     1      43.213   4.015  11.315  0.00  0.00    +0.000 C 
BRANCH  15  16
ATOM     16  N   UNL     1      43.774   4.594  10.072  0.00  0.00    +0.000 N 
ATOM     17  H   UNL     1      44.103   5.546  10.243  0.00  0.00    +0.000 HD
BRANCH  16  21
ATOM     18  C   UNL     1      46.396   2.292   7.810  0.00  0.00    +0.000 A 
ATOM     19  C   UNL     1      46.413   3.664   7.614  0.00  0.00    +0.000 A 
ATOM     20  C   UNL     1      45.517   4.451   8.338  0.00  0.00    +0.000 A 
ATOM     21  C   UNL     1      44.610   3.868   9.226  0.00  0.00    +0.000 A 
ATOM     22  C   UNL     1      44.708   2.476   9.359  0.00  0.00    +0.000 A 
ATOM     23  N   UNL     1      45.553   1.666   8.671  0.00  0.00    +0.000 NA
BRANCH  18  25
ATOM     24  N   UNL     1      48.451   2.072   6.542  0.00  0.00    +0.000 N 
ATOM     25  C   UNL     1      47.366   1.425   7.068  0.00  0.00    +0.000 C 
ATOM     26  O   UNL     1      47.209   0.217   6.936  0.00  0.00    +0.000 OA
ATOM     27  H   UNL     1      49.148   1.547   6.032  0.00  0.00    +0.000 HD
ATOM     28  H   UNL     1      48.552   3.071   6.680  0.00  0.00    +0.000 HD
ENDBRANCH  18  25
ENDBRANCH  16  21
ENDBRANCH  15  16
ENDBRANCH  12  15
ENDBRANCH   1  12
BRANCH   3  29
ATOM     29  N   UNL     1      45.326   9.268  11.281  0.00  0.00    +0.000 N 
ATOM     30  H   UNL     1      46.169   9.675  10.875  0.00  0.00    +0.000 HD
BRANCH  29  31
ATOM     31  C   UNL     1      44.504  10.229  12.009  0.00  0.00    +0.000 C 
BRANCH  31  32
ATOM     32  C   UNL     1      43.571  10.955  11.060  0.00  0.00    +0.000 C 
ATOM     33  C   UNL     1      42.407  10.109  10.526  0.00  0.00    +0.000 C 
ATOM     34  O   UNL     1      42.717  10.494   9.163  0.00  0.00    +0.000 OA
ATOM     35  C   UNL     1      44.015  10.982   9.591  0.00  0.00    +0.000 C 
ENDBRANCH  31  32
ENDBRANCH  29  31
ENDBRANCH   3  29
TORSDOF 9
ENDMDL
MODEL 2
REMARK VINA RESULT:    -8.406      2.283      5.355
REMARK INTER + INTRA:         -13.714
REMARK INTER:                 -12.925
REMARK INTRA:                  -0.789
REMARK UNBOUND:                -0.885
REMARK  Name = 
REMARK  9 active torsions:
REMARK  status: ('A' for Active; 'I' for Inactive)
REMARK    1  A    between atoms: C_2  and  C_4
REMARK    2  A    between atoms: C_7  and  N_8
REMARK    3  A    between atoms: N_8  and  C_9
REMARK    4  A    between atoms: C_9  and  C_10
REMARK    5  A    between atoms: C_10  and  C_13
REMARK    6  A    between atoms: C_15  and  N_16
REMARK    7  A    between atoms: N_16  and  C_17
REMARK    8  A    between atoms: C_17  and  C_18
REMARK    9  A    between atoms: C_24  and  C_25
REMARK                            x       y       z     vdW  Elec       q    Type
REMARK                         _______ _______ _______ _____ _____    ______ ____
ROOT
ATOM      1  C   UNL     1      44.900   5.352  13.089  0.00  0.00    +0.000 A 
ATOM      2  C   UNL     1      45.461   4.448  14.023  0.00  0.00    +0.000 A 
ATOM      3  C   UNL     1      46.769   4.586  14.517  0.00  0.00    +0.000 A 
ATOM      4  C   UNL     1      47.533   5.639  14.016  0.00  0.00    +0.000 A 
ATOM      5  C   UNL     1      47.004   6.554  13.106  0.00  0.00    +0.000 A 
ATOM      6  C   UNL     1      45.691   6.423  12.638  0.00  0.00    +0.000 A 
ENDROOT
BRANCH   6   7
ATOM      7  C   UNL     1      45.169   7.484  11.740  0.00  0.00    +0.000 C 
ATOM      8  N   UNL     1      44.769   8.657  12.317  0.00  0.00    +0.000 N 
ATOM      9  O   UNL     1      45.063   7.298  10.536  0.00  0.00    +0.000 OA
ATOM     10  H   UNL     1      44.915   8.888  13.289  0.00  0.00    +0.000 HD
ATOM     11  H   UNL     1      44.433   9.387  11.701  0.00  0.00    +0.000 HD
ENDBRANCH   6   7
BRANCH   1  12
ATOM     12  C   UNL     1      43.478   5.099  12.613  0.00  0.00    +0.000 C 
ATOM     13  F   UNL     1      42.922   6.255  12.120  0.00  0.00    +0.000 F 
ATOM     14  F   UNL     1      42.625   4.733  13.616  0.00  0.00    +0.000 F 
BRANCH  12  15
ATOM     15  C   UNL     1      43.434   4.042  11.472  0.00  0.00    +0.000 C 
BRANCH  15  16
ATOM     16  N   UNL     1      43.817   4.579  10.146  0.00  0.00    +0.000 N 
ATOM     17  H   UNL     1      44.076   5.565  10.226  0.00  0.00    +0.000 HD
BRANCH  16  21
ATOM     18  C   UNL     1      46.373   2.321   7.766  0.00  0.00    +0.000 A 
ATOM     19  C   UNL     1      46.380   3.696   7.592  0.00  0.00    +0.000 A 
ATOM     20  C   UNL     1      45.505   4.469   8.356  0.00  0.00    +0.000 A 
ATOM     21  C   UNL     1      44.628   3.870   9.263  0.00  0.00    +0.000 A 
ATOM     22  C   UNL     1      44.733   2.476   9.371  0.00  0.00    +0.000 A 
ATOM     23  N   UNL     1      45.558   1.679   8.643  0.00  0.00    +0.000 NA
BRANCH  18  25
ATOM     24  N   UNL     1      48.440   2.106   6.518  0.00  0.00    +0.000 N 
ATOM     25  C   UNL     1      47.321   1.469   6.980  0.00  0.00    +0.000 C 
ATOM     26  O   UNL     1      47.118   0.280   6.761  0.00  0.00    +0.000 OA
ATOM     27  H   UNL     1      49.124   1.590   5.983  0.00  0.00    +0.000 HD
ATOM     28  H   UNL     1      48.578   3.088   6.727  0.00  0.00    +0.000 HD
ENDBRANCH  18  25
ENDBRANCH  16  21
ENDBRANCH  15  16
ENDBRANCH  12  15
ENDBRANCH   1  12
BRANCH   3  29
ATOM     29  N   UNL     1      47.274   3.598  15.362  0.00  0.00    +0.000 N 
ATOM     30  H   UNL     1      47.110   2.659  14.998  0.00  0.00    +0.000 HD
BRANCH  29  31
ATOM     31  C   UNL     1      47.123   3.698  16.811  0.00  0.00    +0.000 C 
BRANCH  31  32
ATOM     32  C   UNL     1      48.358   3.167  17.510  0.00  0.00    +0.000 C 
ATOM     33  C   UNL     1      49.583   4.089  17.446  0.00  0.00    +0.000 C 
ATOM     34  O   UNL     1      50.416   2.997  16.983  0.00  0.00    +0.000 OA
ATOM     35  C   UNL     1      49.230   2.217  16.678  0.00  0.00    +0.000 C 
ENDBRANCH  31  32
ENDBRANCH  29  31
ENDBRANCH   3  29
TORSDOF 9
ENDMDL
MODEL 3
REMARK VINA RESULT:    -8.198      2.652      5.633
REMARK INTER + INTRA:         -13.396
REMARK INTER:                 -12.458
REMARK INTRA:                  -0.938
REMARK UNBOUND:                -0.885
REMARK  Name = 
REMARK  9 active torsions:
REMARK  status: ('A' for Active; 'I' for Inactive)
REMARK    1  A    between atoms: C_2  and  C_4
REMARK    2  A    between atoms: C_7  and  N_8
REMARK    3  A    between atoms: N_8  and  C_9
REMARK    4  A    between atoms: C_9  and  C_10
REMARK    5  A    between atoms: C_10  and  C_13
REMARK    6  A    between atoms: C_15  and  N_16
REMARK    7  A    between atoms: N_16  and  C_17
REMARK    8  A    between atoms: C_17  and  C_18
REMARK    9  A    between atoms: C_24  and  C_25
REMARK                            x       y       z     vdW  Elec       q    Type
REMARK                         _______ _______ _______ _____ _____    ______ ____
ROOT
ATOM      1  C   UNL     1      46.218   6.126  12.947  0.00  0.00    +0.000 A 
ATOM      2  C   UNL     1      46.201   4.994  13.799  0.00  0.00    +0.000 A 
ATOM      3  C   UNL     1      47.133   4.815  14.835  0.00  0.00    +0.000 A 
ATOM      4  C   UNL     1      48.125   5.783  14.977  0.00  0.00    +0.000 A 
ATOM      5  C   UNL     1      48.160   6.915  14.163  0.00  0.00    +0.000 A 
ATOM      6  C   UNL     1      47.212   7.099  13.149  0.00  0.00    +0.000 A 
ENDROOT
BRANCH   6   7
ATOM      7  C   UNL     1      47.259   8.368  12.382  0.00  0.00    +0.000 C 
ATOM      8  N   UNL     1      48.301   8.543  11.513  0.00  0.00    +0.000 N 
ATOM      9  O   UNL     1      46.419   9.242  12.552  0.00  0.00    +0.000 OA
ATOM     10  H   UNL     1      48.966   7.821  11.277  0.00  0.00    +0.000 HD
ATOM     11  H   UNL     1      48.319   9.400  10.975  0.00  0.00    +0.000 HD
ENDBRANCH   6   7
BRANCH   1  12
ATOM     12  C   UNL     1      45.168   6.211  11.851  0.00  0.00    +0.000 C 
ATOM     13  F   UNL     1      45.755   6.507  10.644  0.00  0.00    +0.000 F 
ATOM     14  F   UNL     1      44.273   7.227  12.031  0.00  0.00    +0.000 F 
BRANCH  12  15
ATOM     15  C   UNL     1      44.408   4.864  11.678  0.00  0.00    +0.000 C 
BRANCH  15  16
ATOM     16  N   UNL     1      43.967   4.602  10.288  0.00  0.00    +0.000 N 
ATOM     17  H   UNL     1      43.585   5.453   9.873  0.00  0.00    +0.000 HD
BRANCH  16  21
ATOM     18  C   UNL     1      46.400   2.239   7.881  0.00  0.00    +0.000 A 
ATOM     19  C   UNL     1      46.364   3.600   7.619  0.00  0.00    +0.000 A 
ATOM     20  C   UNL     1      45.528   4.406   8.393  0.00  0.00    +0.000 A 
ATOM     21  C   UNL     1      44.730   3.851   9.397  0.00  0.00    +0.000 A 
ATOM     22  C   UNL     1      44.874   2.469   9.585  0.00  0.00    +0.000 A 
ATOM     23  N   UNL     1      45.664   1.641   8.853  0.00  0.00    +0.000 NA
BRANCH  18  25
ATOM     24  N   UNL     1      48.389   1.977   6.519  0.00  0.00    +0.000 N 
ATOM     25  C   UNL     1      47.310   1.355   7.085  0.00  0.00    +0.000 C 
ATOM     26  O   UNL     1      47.112   0.154   6.946  0.00  0.00    +0.000 OA
ATOM     27  H   UNL     1      49.046   1.440   5.973  0.00  0.00    +0.000 HD
ATOM     28  H   UNL     1      48.525   2.971   6.665  0.00  0.00    +0.000 HD
ENDBRANCH  18  25
ENDBRANCH  16  21
ENDBRANCH  15  16
ENDBRANCH  12  15
ENDBRANCH   1  12
BRANCH   3  29
ATOM     29  N   UNL     1      47.101   3.627  15.565  0.00  0.00    +0.000 N 
ATOM     30  H   UNL     1      46.461   2.943  15.161  0.00  0.00    +0.000 HD
BRANCH  29  31
ATOM     31  C   UNL     1      47.097   3.641  17.025  0.00  0.00    +0.000 C 
BRANCH  31  32
ATOM     32  C   UNL     1      48.321   2.928  17.565  0.00  0.00    +0.000 C 
ATOM     33  C   UNL     1      49.587   3.791  17.648  0.00  0.00    +0.000 C 
ATOM     34  O   UNL     1      50.355   2.779  16.951  0.00  0.00    +0.000 OA
ATOM     35  C   UNL     1      49.127   2.127  16.534  0.00  0.00    +0.000 C 
ENDBRANCH  31  32
ENDBRANCH  29  31
ENDBRANCH   3  29
TORSDOF 9
ENDMDL
MODEL 4
REMARK VINA RESULT:    -7.510      2.386      2.896
REMARK INTER + INTRA:         -12.345
REMARK INTER:                 -11.736
REMARK INTRA:                  -0.610
REMARK UNBOUND:                -0.885
REMARK  Name = 
REMARK  9 active torsions:
REMARK  status: ('A' for Active; 'I' for Inactive)
REMARK    1  A    between atoms: C_2  and  C_4
REMARK    2  A    between atoms: C_7  and  N_8
REMARK    3  A    between atoms: N_8  and  C_9
REMARK    4  A    between atoms: C_9  and  C_10
REMARK    5  A    between atoms: C_10  and  C_13
REMARK    6  A    between atoms: C_15  and  N_16
REMARK    7  A    between atoms: N_16  and  C_17
REMARK    8  A    between atoms: C_17  and  C_18
REMARK    9  A    between atoms: C_24  and  C_25
REMARK                            x       y       z     vdW  Elec       q    Type
REMARK                         _______ _______ _______ _____ _____    ______ ____
ROOT
ATOM      1  C   UNL     1      45.980   6.244  13.098  0.00  0.00    +0.000 A 
ATOM      2  C   UNL     1      46.016   7.626  12.790  0.00  0.00    +0.000 A 
ATOM      3  C   UNL     1      47.051   8.471  13.225  0.00  0.00    +0.000 A 
ATOM      4  C   UNL     1      48.043   7.907  14.025  0.00  0.00    +0.000 A 
ATOM      5  C   UNL     1      48.043   6.547  14.334  0.00  0.00    +0.000 A 
ATOM      6  C   UNL     1      47.021   5.707  13.875  0.00  0.00    +0.000 A 
ENDROOT
BRANCH   6   7
ATOM      7  C   UNL     1      47.135   4.256  14.168  0.00  0.00    +0.000 C 
ATOM      8  N   UNL     1      46.710   3.826  15.396  0.00  0.00    +0.000 N 
ATOM      9  O   UNL     1      47.628   3.483  13.359  0.00  0.00    +0.000 OA
ATOM     10  H   UNL     1      46.221   4.408  16.060  0.00  0.00    +0.000 HD
ATOM     11  H   UNL     1      46.769   2.834  15.586  0.00  0.00    +0.000 HD
ENDBRANCH   6   7
BRANCH   1  12
ATOM     12  C   UNL     1      44.806   5.427  12.583  0.00  0.00    +0.000 C 
ATOM     13  F   UNL     1      43.664   5.728  13.288  0.00  0.00    +0.000 F 
ATOM     14  F   UNL     1      44.954   4.082  12.771  0.00  0.00    +0.000 F 
BRANCH  12  15
ATOM     15  C   UNL     1      44.515   5.722  11.083  0.00  0.00    +0.000 C 
BRANCH  15  16
ATOM     16  N   UNL     1      43.973   4.560  10.341  0.00  0.00    +0.000 N 
ATOM     17  H   UNL     1      43.026   4.761  10.014  0.00  0.00    +0.000 HD
BRANCH  16  21
ATOM     18  C   UNL     1      46.398   2.301   7.829  0.00  0.00    +0.000 A 
ATOM     19  C   UNL     1      46.380   3.674   7.640  0.00  0.00    +0.000 A 
ATOM     20  C   UNL     1      45.546   4.447   8.450  0.00  0.00    +0.000 A 
ATOM     21  C   UNL     1      44.734   3.849   9.416  0.00  0.00    +0.000 A 
ATOM     22  C   UNL     1      44.861   2.457   9.531  0.00  0.00    +0.000 A 
ATOM     23  N   UNL     1      45.647   1.660   8.761  0.00  0.00    +0.000 NA
BRANCH  18  25
ATOM     24  N   UNL     1      48.337   2.109   6.386  0.00  0.00    +0.000 N 
ATOM     25  C   UNL     1      47.304   1.450   6.993  0.00  0.00    +0.000 C 
ATOM     26  O   UNL     1      47.140   0.243   6.857  0.00  0.00    +0.000 OA
ATOM     27  H   UNL     1      48.989   1.596   5.811  0.00  0.00    +0.000 HD
ATOM     28  H   UNL     1      48.446   3.107   6.530  0.00  0.00    +0.000 HD
ENDBRANCH  18  25
ENDBRANCH  16  21
ENDBRANCH  15  16
ENDBRANCH  12  15
ENDBRANCH   1  12
BRANCH   3  29
ATOM     29  N   UNL     1      46.958   9.837  12.956  0.00  0.00    +0.000 N 
ATOM     30  H   UNL     1      46.148  10.263  13.405  0.00  0.00    +0.000 HD
BRANCH  29  31
ATOM     31  C   UNL     1      47.232  10.361  11.622  0.00  0.00    +0.000 C 
BRANCH  31  32
ATOM     32  C   UNL     1      48.567  11.079  11.598  0.00  0.00    +0.000 C 
ATOM     33  C   UNL     1      49.793  10.159  11.519  0.00  0.00    +0.000 C 
ATOM     34  O   UNL     1      50.410  10.840  12.640  0.00  0.00    +0.000 OA
ATOM     35  C   UNL     1      49.138  11.456  12.971  0.00  0.00    +0.000 C 
ENDBRANCH  31  32
ENDBRANCH  29  31
ENDBRANCH   3  29
TORSDOF 9
ENDMDL
MODEL 5
REMARK VINA RESULT:    -7.338      3.204      7.811
REMARK INTER + INTRA:         -12.084
REMARK INTER:                 -11.433
REMARK INTRA:                  -0.651
REMARK UNBOUND:                -0.885
REMARK  Name = 
REMARK  9 active torsions:
REMARK  status: ('A' for Active; 'I' for Inactive)
REMARK    1  A    between atoms: C_2  and  C_4
REMARK    2  A    between atoms: C_7  and  N_8
REMARK    3  A    between atoms: N_8  and  C_9
REMARK    4  A    between atoms: C_9  and  C_10
REMARK    5  A    between atoms: C_10  and  C_13
REMARK    6  A    between atoms: C_15  and  N_16
REMARK    7  A    between atoms: N_16  and  C_17
REMARK    8  A    between atoms: C_17  and  C_18
REMARK    9  A    between atoms: C_24  and  C_25
REMARK                            x       y       z     vdW  Elec       q    Type
REMARK                         _______ _______ _______ _____ _____    ______ ____
ROOT
ATOM      1  C   UNL     1      45.333   5.344  11.222  0.00  0.00    +0.000 A 
ATOM      2  C   UNL     1      45.942   5.198   9.952  0.00  0.00    +0.000 A 
ATOM      3  C   UNL     1      45.501   4.258   9.006  0.00  0.00    +0.000 A 
ATOM      4  C   UNL     1      44.450   3.422   9.377  0.00  0.00    +0.000 A 
ATOM      5  C   UNL     1      43.820   3.551  10.615  0.00  0.00    +0.000 A 
ATOM      6  C   UNL     1      44.250   4.507  11.543  0.00  0.00    +0.000 A 
ENDROOT
BRANCH   6   7
ATOM      7  C   UNL     1      43.476   4.645  12.802  0.00  0.00    +0.000 C 
ATOM      8  N   UNL     1      42.459   5.560  12.821  0.00  0.00    +0.000 N 
ATOM      9  O   UNL     1      43.765   3.994  13.797  0.00  0.00    +0.000 OA
ATOM     10  H   UNL     1      42.131   6.055  12.005  0.00  0.00    +0.000 HD
ATOM     11  H   UNL     1      41.919   5.637  13.673  0.00  0.00    +0.000 HD
ENDBRANCH   6   7
BRANCH   1  12
ATOM     12  C   UNL     1      45.901   6.387  12.172  0.00  0.00    +0.000 C 
ATOM     13  F   UNL     1      44.923   6.847  13.023  0.00  0.00    +0.000 F 
ATOM     14  F   UNL     1      46.338   7.518  11.543  0.00  0.00    +0.000 F 
BRANCH  12  15
ATOM     15  C   UNL     1      47.041   5.799  13.053  0.00  0.00    +0.000 C 
BRANCH  15  16
ATOM     16  N   UNL     1      46.556   5.056  14.239  0.00  0.00    +0.000 N 
ATOM     17  H   UNL     1      46.097   4.191  13.950  0.00  0.00    +0.000 HD
BRANCH  16  21
ATOM     18  C   UNL     1      48.585   4.637  17.845  0.00  0.00    +0.000 A 
ATOM     19  C   UNL     1      48.992   5.653  16.993  0.00  0.00    +0.000 A 
ATOM     20  C   UNL     1      48.347   5.789  15.763  0.00  0.00    +0.000 A 
ATOM     21  C   UNL     1      47.328   4.910  15.390  0.00  0.00    +0.000 A 
ATOM     22  C   UNL     1      46.987   3.943  16.346  0.00  0.00    +0.000 A 
ATOM     23  N   UNL     1      47.590   3.762  17.550  0.00  0.00    +0.000 NA
BRANCH  18  25
ATOM     24  N   UNL     1      48.592   3.669  20.068  0.00  0.00    +0.000 N 
ATOM     25  C   UNL     1      49.241   4.486  19.183  0.00  0.00    +0.000 C 
ATOM     26  O   UNL     1      50.289   5.050  19.476  0.00  0.00    +0.000 OA
ATOM     27  H   UNL     1      48.981   3.518  20.988  0.00  0.00    +0.000 HD
ATOM     28  H   UNL     1      47.732   3.211  19.786  0.00  0.00    +0.000 HD
ENDBRANCH  18  25
ENDBRANCH  16  21
ENDBRANCH  15  16
ENDBRANCH  12  15
ENDBRANCH   1  12
BRANCH   3  29
ATOM     29  N   UNL     1      46.218   4.118   7.817  0.00  0.00    +0.000 N 
ATOM     30  H   UNL     1      46.673   4.986   7.537  0.00  0.00    +0.000 HD
BRANCH  29  31
ATOM     31  C   UNL     1      45.676   3.353   6.698  0.00  0.00    +0.000 C 
BRANCH  31  32
ATOM     32  C   UNL     1      46.679   2.318   6.228  0.00  0.00    +0.000 C 
ATOM     33  C   UNL     1      46.927   1.166   7.211  0.00  0.00    +0.000 C 
ATOM     34  O   UNL     1      48.361   1.358   7.115  0.00  0.00    +0.000 OA
ATOM     35  C   UNL     1      48.151   2.655   6.500  0.00  0.00    +0.000 C 
ENDBRANCH  31  32
ENDBRANCH  29  31
ENDBRANCH   3  29
TORSDOF 9
ENDMDL
MODEL 6
REMARK VINA RESULT:    -7.147      2.504      3.093
REMARK INTER + INTRA:         -11.793
REMARK INTER:                 -11.785
REMARK INTRA:                  -0.007
REMARK UNBOUND:                -0.885
REMARK  Name = 
REMARK  9 active torsions:
REMARK  status: ('A' for Active; 'I' for Inactive)
REMARK    1  A    between atoms: C_2  and  C_4
REMARK    2  A    between atoms: C_7  and  N_8
REMARK    3  A    between atoms: N_8  and  C_9
REMARK    4  A    between atoms: C_9  and  C_10
REMARK    5  A    between atoms: C_10  and  C_13
REMARK    6  A    between atoms: C_15  and  N_16
REMARK    7  A    between atoms: N_16  and  C_17
REMARK    8  A    between atoms: C_17  and  C_18
REMARK    9  A    between atoms: C_24  and  C_25
REMARK                            x       y       z     vdW  Elec       q    Type
REMARK                         _______ _______ _______ _____ _____    ______ ____
ROOT
ATOM      1  C   UNL     1      44.454   6.100  12.327  0.00  0.00    +0.000 A 
ATOM      2  C   UNL     1      44.959   7.422  12.295  0.00  0.00    +0.000 A 
ATOM      3  C   UNL     1      46.142   7.795  12.954  0.00  0.00    +0.000 A 
ATOM      4  C   UNL     1      46.798   6.813  13.695  0.00  0.00    +0.000 A 
ATOM      5  C   UNL     1      46.333   5.499  13.734  0.00  0.00    +0.000 A 
ATOM      6  C   UNL     1      45.166   5.130  13.053  0.00  0.00    +0.000 A 
ENDROOT
BRANCH   6   7
ATOM      7  C   UNL     1      44.782   3.697  13.068  0.00  0.00    +0.000 C 
ATOM      8  N   UNL     1      45.722   2.787  12.668  0.00  0.00    +0.000 N 
ATOM      9  O   UNL     1      43.654   3.347  13.387  0.00  0.00    +0.000 OA
ATOM     10  H   UNL     1      46.687   3.018  12.479  0.00  0.00    +0.000 HD
ATOM     11  H   UNL     1      45.465   1.809  12.699  0.00  0.00    +0.000 HD
ENDBRANCH   6   7
BRANCH   1  12
ATOM     12  C   UNL     1      43.157   5.811  11.586  0.00  0.00    +0.000 C 
ATOM     13  F   UNL     1      42.405   6.956  11.469  0.00  0.00    +0.000 F 
ATOM     14  F   UNL     1      42.331   4.949  12.249  0.00  0.00    +0.000 F 
BRANCH  12  15
ATOM     15  C   UNL     1      43.424   5.284  10.147  0.00  0.00    +0.000 C 
BRANCH  15  16
ATOM     16  N   UNL     1      43.854   3.867  10.100  0.00  0.00    +0.000 N 
ATOM     17  H   UNL     1      43.039   3.251  10.107  0.00  0.00    +0.000 HD
BRANCH  16  21
ATOM     18  C   UNL     1      46.722   2.688   7.330  0.00  0.00    +0.000 A 
ATOM     19  C   UNL     1      46.150   1.703   8.121  0.00  0.00    +0.000 A 
ATOM     20  C   UNL     1      45.210   2.083   9.081  0.00  0.00    +0.000 A 
ATOM     21  C   UNL     1      44.868   3.426   9.254  0.00  0.00    +0.000 A 
ATOM     22  C   UNL     1      45.492   4.324   8.377  0.00  0.00    +0.000 A 
ATOM     23  N   UNL     1      46.420   4.007   7.436  0.00  0.00    +0.000 NA
BRANCH  18  25
ATOM     24  N   UNL     1      47.723   3.102   5.160  0.00  0.00    +0.000 N 
ATOM     25  C   UNL     1      47.712   2.306   6.273  0.00  0.00    +0.000 C 
ATOM     26  O   UNL     1      48.468   1.348   6.387  0.00  0.00    +0.000 OA
ATOM     27  H   UNL     1      48.369   2.905   4.410  0.00  0.00    +0.000 HD
ATOM     28  H   UNL     1      47.089   3.892   5.106  0.00  0.00    +0.000 HD
ENDBRANCH  18  25
ENDBRANCH  16  21
ENDBRANCH  15  16
ENDBRANCH  12  15
ENDBRANCH   1  12
BRANCH   3  29
ATOM     29  N   UNL     1      46.517   9.139  12.949  0.00  0.00    +0.000 N 
ATOM     30  H   UNL     1      45.972   9.688  12.284  0.00  0.00    +0.000 HD
BRANCH  29  31
ATOM     31  C   UNL     1      47.922   9.528  13.017  0.00  0.00    +0.000 C 
BRANCH  31  32
ATOM     32  C   UNL     1      48.622   9.219  11.708  0.00  0.00    +0.000 C 
ATOM     33  C   UNL     1      49.573   8.016  11.753  0.00  0.00    +0.000 C 
ATOM     34  O   UNL     1      50.636   8.799  11.154  0.00  0.00    +0.000 OA
ATOM     35  C   UNL     1      49.904  10.019  11.440  0.00  0.00    +0.000 C 
ENDBRANCH  31  32
ENDBRANCH  29  31
ENDBRANCH   3  29
TORSDOF 9
ENDMDL
MODEL 7
REMARK VINA RESULT:    -6.978      3.242      7.660
REMARK INTER + INTRA:         -11.533
REMARK INTER:                 -10.781
REMARK INTRA:                  -0.752
REMARK UNBOUND:                -0.885
REMARK  Name = 
REMARK  9 active torsions:
REMARK  status: ('A' for Active; 'I' for Inactive)
REMARK    1  A    between atoms: C_2  and  C_4
REMARK    2  A    between atoms: C_7  and  N_8
REMARK    3  A    between atoms: N_8  and  C_9
REMARK    4  A    between atoms: C_9  and  C_10
REMARK    5  A    between atoms: C_10  and  C_13
REMARK    6  A    between atoms: C_15  and  N_16
REMARK    7  A    between atoms: N_16  and  C_17
REMARK    8  A    between atoms: C_17  and  C_18
REMARK    9  A    between atoms: C_24  and  C_25
REMARK                            x       y       z     vdW  Elec       q    Type
REMARK                         _______ _______ _______ _____ _____    ______ ____
ROOT
ATOM      1  C   UNL     1      45.252   4.650  11.553  0.00  0.00    +0.000 A 
ATOM      2  C   UNL     1      44.889   3.738  10.532  0.00  0.00    +0.000 A 
ATOM      3  C   UNL     1      45.167   3.972   9.175  0.00  0.00    +0.000 A 
ATOM      4  C   UNL     1      45.787   5.177   8.849  0.00  0.00    +0.000 A 
ATOM      5  C   UNL     1      46.170   6.088   9.832  0.00  0.00    +0.000 A 
ATOM      6  C   UNL     1      45.911   5.836  11.185  0.00  0.00    +0.000 A 
ENDROOT
BRANCH   6   7
ATOM      7  C   UNL     1      46.425   6.809  12.180  0.00  0.00    +0.000 C 
ATOM      8  N   UNL     1      45.627   7.876  12.490  0.00  0.00    +0.000 N 
ATOM      9  O   UNL     1      47.537   6.682  12.674  0.00  0.00    +0.000 OA
ATOM     10  H   UNL     1      44.673   7.977  12.175  0.00  0.00    +0.000 HD
ATOM     11  H   UNL     1      45.970   8.527  13.184  0.00  0.00    +0.000 HD
ENDBRANCH   6   7
BRANCH   1  12
ATOM     12  C   UNL     1      44.890   4.299  12.987  0.00  0.00    +0.000 C 
ATOM     13  F   UNL     1      43.982   3.267  13.016  0.00  0.00    +0.000 F 
ATOM     14  F   UNL     1      44.251   5.308  13.651  0.00  0.00    +0.000 F 
BRANCH  12  15
ATOM     15  C   UNL     1      46.137   3.842  13.798  0.00  0.00    +0.000 C 
BRANCH  15  16
ATOM     16  N   UNL     1      46.455   4.719  14.948  0.00  0.00    +0.000 N 
ATOM     17  H   UNL     1      45.595   5.021  15.411  0.00  0.00    +0.000 HD
BRANCH  16  21
ATOM     18  C   UNL     1      49.736   3.963  17.390  0.00  0.00    +0.000 A 
ATOM     19  C   UNL     1      48.867   2.912  17.137  0.00  0.00    +0.000 A 
ATOM     20  C   UNL     1      47.741   3.154  16.348  0.00  0.00    +0.000 A 
ATOM     21  C   UNL     1      47.485   4.430  15.841  0.00  0.00    +0.000 A 
ATOM     22  C   UNL     1      48.449   5.402  16.141  0.00  0.00    +0.000 A 
ATOM     23  N   UNL     1      49.553   5.221  16.912  0.00  0.00    +0.000 NA
BRANCH  18  25
ATOM     24  N   UNL     1      51.567   2.509  18.033  0.00  0.00    +0.000 N 
ATOM     25  C   UNL     1      50.966   3.726  18.210  0.00  0.00    +0.000 C 
ATOM     26  O   UNL     1      51.415   4.560  18.988  0.00  0.00    +0.000 OA
ATOM     27  H   UNL     1      52.404   2.285  18.551  0.00  0.00    +0.000 HD
ATOM     28  H   UNL     1      51.172   1.849  17.373  0.00  0.00    +0.000 HD
ENDBRANCH  18  25
ENDBRANCH  16  21
ENDBRANCH  15  16
ENDBRANCH  12  15
ENDBRANCH   1  12
BRANCH   3  29
ATOM     29  N   UNL     1      44.691   3.066   8.227  0.00  0.00    +0.000 N 
ATOM     30  H   UNL     1      44.396   2.186   8.650  0.00  0.00    +0.000 HD
BRANCH  29  31
ATOM     31  C   UNL     1      45.360   2.902   6.940  0.00  0.00    +0.000 C 
BRANCH  31  32
ATOM     32  C   UNL     1      46.837   2.626   7.142  0.00  0.00    +0.000 C 
ATOM     33  C   UNL     1      47.662   2.547   5.851  0.00  0.00    +0.000 C 
ATOM     34  O   UNL     1      48.239   1.283   6.264  0.00  0.00    +0.000 OA
ATOM     35  C   UNL     1      47.218   1.146   7.286  0.00  0.00    +0.000 C 
ENDBRANCH  31  32
ENDBRANCH  29  31
ENDBRANCH   3  29
TORSDOF 9
ENDMDL
MODEL 8
REMARK VINA RESULT:    -6.957      2.704      4.048
REMARK INTER + INTRA:         -11.502
REMARK INTER:                 -11.087
REMARK INTRA:                  -0.416
REMARK UNBOUND:                -0.885
REMARK  Name = 
REMARK  9 active torsions:
REMARK  status: ('A' for Active; 'I' for Inactive)
REMARK    1  A    between atoms: C_2  and  C_4
REMARK    2  A    between atoms: C_7  and  N_8
REMARK    3  A    between atoms: N_8  and  C_9
REMARK    4  A    between atoms: C_9  and  C_10
REMARK    5  A    between atoms: C_10  and  C_13
REMARK    6  A    between atoms: C_15  and  N_16
REMARK    7  A    between atoms: N_16  and  C_17
REMARK    8  A    between atoms: C_17  and  C_18
REMARK    9  A    between atoms: C_24  and  C_25
REMARK                            x       y       z     vdW  Elec       q    Type
REMARK                         _______ _______ _______ _____ _____    ______ ____
ROOT
ATOM      1  C   UNL     1      45.321   5.998  12.469  0.00  0.00    +0.000 A 
ATOM      2  C   UNL     1      46.582   6.642  12.477  0.00  0.00    +0.000 A 
ATOM      3  C   UNL     1      47.657   6.188  13.259  0.00  0.00    +0.000 A 
ATOM      4  C   UNL     1      47.429   5.087  14.081  0.00  0.00    +0.000 A 
ATOM      5  C   UNL     1      46.203   4.423  14.086  0.00  0.00    +0.000 A 
ATOM      6  C   UNL     1      45.144   4.866  13.284  0.00  0.00    +0.000 A 
ENDROOT
BRANCH   6   7
ATOM      7  C   UNL     1      43.899   4.058  13.274  0.00  0.00    +0.000 C 
ATOM      8  N   UNL     1      43.940   2.844  12.645  0.00  0.00    +0.000 N 
ATOM      9  O   UNL     1      42.866   4.481  13.775  0.00  0.00    +0.000 OA
ATOM     10  H   UNL     1      44.785   2.418  12.294  0.00  0.00    +0.000 HD
ATOM     11  H   UNL     1      43.096   2.286  12.658  0.00  0.00    +0.000 HD
ENDBRANCH   6   7
BRANCH   1  12
ATOM     12  C   UNL     1      44.225   6.582  11.592  0.00  0.00    +0.000 C 
ATOM     13  F   UNL     1      44.231   7.955  11.663  0.00  0.00    +0.000 F 
ATOM     14  F   UNL     1      42.965   6.245  11.997  0.00  0.00    +0.000 F 
BRANCH  12  15
ATOM     15  C   UNL     1      44.419   6.196  10.097  0.00  0.00    +0.000 C 
BRANCH  15  16
ATOM     16  N   UNL     1      43.898   4.852   9.755  0.00  0.00    +0.000 N 
ATOM     17  H   UNL     1      42.930   4.920   9.436  0.00  0.00    +0.000 HD
BRANCH  16  21
ATOM     18  C   UNL     1      46.243   1.967   7.892  0.00  0.00    +0.000 A 
ATOM     19  C   UNL     1      46.441   3.290   7.527  0.00  0.00    +0.000 A 
ATOM     20  C   UNL     1      45.641   4.270   8.116  0.00  0.00    +0.000 A 
ATOM     21  C   UNL     1      44.649   3.925   9.036  0.00  0.00    +0.000 A 
ATOM     22  C   UNL     1      44.563   2.560   9.345  0.00  0.00    +0.000 A 
ATOM     23  N   UNL     1      45.309   1.568   8.793  0.00  0.00    +0.000 NA
BRANCH  18  25
ATOM     24  N   UNL     1      46.789  -0.383   7.657  0.00  0.00    +0.000 N 
ATOM     25  C   UNL     1      47.106   0.898   7.297  0.00  0.00    +0.000 C 
ATOM     26  O   UNL     1      48.036   1.142   6.537  0.00  0.00    +0.000 OA
ATOM     27  H   UNL     1      47.328  -1.154   7.290  0.00  0.00    +0.000 HD
ATOM     28  H   UNL     1      46.007  -0.547   8.281  0.00  0.00    +0.000 HD
ENDBRANCH  18  25
ENDBRANCH  16  21
ENDBRANCH  15  16
ENDBRANCH  12  15
ENDBRANCH   1  12
BRANCH   3  29
ATOM     29  N   UNL     1      48.834   6.937  13.278  0.00  0.00    +0.000 N 
ATOM     30  H   UNL     1      49.483   6.653  12.544  0.00  0.00    +0.000 HD
BRANCH  29  31
ATOM     31  C   UNL     1      49.488   7.279  14.538  0.00  0.00    +0.000 C 
BRANCH  31  32
ATOM     32  C   UNL     1      48.678   8.315  15.291  0.00  0.00    +0.000 C 
ATOM     33  C   UNL     1      49.423   9.623  15.592  0.00  0.00    +0.000 C 
ATOM     34  O   UNL     1      49.043   9.550  16.989  0.00  0.00    +0.000 OA
ATOM     35  C   UNL     1      48.665   8.159  16.818  0.00  0.00    +0.000 C 
ENDBRANCH  31  32
ENDBRANCH  29  31
ENDBRANCH   3  29
TORSDOF 9
ENDMDL
MODEL 9
REMARK VINA RESULT:    -6.750      4.196      7.310
REMARK INTER + INTRA:         -11.186
REMARK INTER:                 -10.116
REMARK INTRA:                  -1.069
REMARK UNBOUND:                -0.885
REMARK  Name = 
REMARK  9 active torsions:
REMARK  status: ('A' for Active; 'I' for Inactive)
REMARK    1  A    between atoms: C_2  and  C_4
REMARK    2  A    between atoms: C_7  and  N_8
REMARK    3  A    between atoms: N_8  and  C_9
REMARK    4  A    between atoms: C_9  and  C_10
REMARK    5  A    between atoms: C_10  and  C_13
REMARK    6  A    between atoms: C_15  and  N_16
REMARK    7  A    between atoms: N_16  and  C_17
REMARK    8  A    between atoms: C_17  and  C_18
REMARK    9  A    between atoms: C_24  and  C_25
REMARK                            x       y       z     vdW  Elec       q    Type
REMARK                         _______ _______ _______ _____ _____    ______ ____
ROOT
ATOM      1  C   UNL     1      48.909   7.432  14.758  0.00  0.00    +0.000 A 
ATOM      2  C   UNL     1      48.622   6.325  15.593  0.00  0.00    +0.000 A 
ATOM      3  C   UNL     1      48.735   6.384  16.991  0.00  0.00    +0.000 A 
ATOM      4  C   UNL     1      49.191   7.579  17.546  0.00  0.00    +0.000 A 
ATOM      5  C   UNL     1      49.469   8.691  16.751  0.00  0.00    +0.000 A 
ATOM      6  C   UNL     1      49.330   8.631  15.360  0.00  0.00    +0.000 A 
ENDROOT
BRANCH   6   7
ATOM      7  C   UNL     1      49.558   9.878  14.588  0.00  0.00    +0.000 C 
ATOM      8  N   UNL     1      48.499  10.732  14.443  0.00  0.00    +0.000 N 
ATOM      9  O   UNL     1      50.640  10.112  14.068  0.00  0.00    +0.000 OA
ATOM     10  H   UNL     1      47.617  10.625  14.921  0.00  0.00    +0.000 HD
ATOM     11  H   UNL     1      48.663  11.592  13.934  0.00  0.00    +0.000 HD
ENDBRANCH   6   7
BRANCH   1  12
ATOM     12  C   UNL     1      48.764   7.251  13.255  0.00  0.00    +0.000 C 
ATOM     13  F   UNL     1      48.644   5.919  12.939  0.00  0.00    +0.000 F 
ATOM     14  F   UNL     1      49.862   7.652  12.548  0.00  0.00    +0.000 F 
BRANCH  12  15
ATOM     15  C   UNL     1      47.496   7.971  12.711  0.00  0.00    +0.000 C 
BRANCH  15  16
ATOM     16  N   UNL     1      46.226   7.435  13.253  0.00  0.00    +0.000 N 
ATOM     17  H   UNL     1      45.602   8.201  13.513  0.00  0.00    +0.000 HD
BRANCH  16  21
ATOM     18  C   UNL     1      44.473   4.040  11.610  0.00  0.00    +0.000 A 
ATOM     19  C   UNL     1      44.754   5.096  10.756  0.00  0.00    +0.000 A 
ATOM     20  C   UNL     1      45.310   6.257  11.293  0.00  0.00    +0.000 A 
ATOM     21  C   UNL     1      45.561   6.362  12.663  0.00  0.00    +0.000 A 
ATOM     22  C   UNL     1      45.262   5.220  13.419  0.00  0.00    +0.000 A 
ATOM     23  N   UNL     1      44.710   4.071  12.947  0.00  0.00    +0.000 NA
BRANCH  18  25
ATOM     24  N   UNL     1      44.505   2.299   9.923  0.00  0.00    +0.000 N 
ATOM     25  C   UNL     1      43.902   2.771  11.057  0.00  0.00    +0.000 C 
ATOM     26  O   UNL     1      42.960   2.185  11.578  0.00  0.00    +0.000 OA
ATOM     27  H   UNL     1      44.173   1.445   9.498  0.00  0.00    +0.000 HD
ATOM     28  H   UNL     1      45.288   2.806   9.526  0.00  0.00    +0.000 HD
ENDBRANCH  18  25
ENDBRANCH  16  21
ENDBRANCH  15  16
ENDBRANCH  12  15
ENDBRANCH   1  12
BRANCH   3  29
ATOM     29  N   UNL     1      48.523   5.220  17.731  0.00  0.00    +0.000 N 
ATOM     30  H   UNL     1      47.869   5.366  18.500  0.00  0.00    +0.000 HD
BRANCH  29  31
ATOM     31  C   UNL     1      49.630   4.329  18.065  0.00  0.00    +0.000 C 
BRANCH  31  32
ATOM     32  C   UNL     1      49.263   2.890  17.760  0.00  0.00    +0.000 C 
ATOM     33  C   UNL     1      50.343   2.092  17.017  0.00  0.00    +0.000 C 
ATOM     34  O   UNL     1      49.377   1.655  16.028  0.00  0.00    +0.000 OA
ATOM     35  C   UNL     1      48.448   2.675  16.477  0.00  0.00    +0.000 C 
ENDBRANCH  31  32
ENDBRANCH  29  31
ENDBRANCH   3  29
TORSDOF 9
ENDMDL
