MODEL 1
REMARK VINA RESULT:    -8.154      0.000      0.000
REMARK INTER + INTRA:         -10.105
REMARK INTER:                  -9.822
REMARK INTRA:                  -0.282
REMARK UNBOUND:                -0.282
REMARK  Name = 
REMARK  4 active torsions:
REMARK  status: ('A' for Active; 'I' for Inactive)
REMARK    1  A    between atoms: N_1  and  C_2
REMARK    2  A    between atoms: C_2  and  C_3
REMARK    3  A    between atoms: C_6  and  C_7
REMARK    4  A    between atoms: C_7  and  N_8
REMARK                            x       y       z     vdW  Elec       q    Type
REMARK                         _______ _______ _______ _____ _____    ______ ____
ROOT
ATOM      1  C   UNL     1      44.021   2.755  10.305  0.00  0.00    +0.000 C 
ENDROOT
BRANCH   1   2
ATOM      2  N   UNL     1      44.004   3.931  11.167  0.00  0.00    +0.000 N 
ATOM      3  C   UNL     1      43.410   5.129  10.870  0.00  0.00    +0.000 A 
ATOM      4  N   UNL     1      44.018   6.133  11.463  0.00  0.00    +0.000 NA
ATOM      5  C   UNL     1      45.021   5.563  12.206  0.00  0.00    +0.000 A 
ATOM      6  C   UNL     1      46.047   6.171  12.940  0.00  0.00    +0.000 A 
ATOM      7  C   UNL     1      46.950   5.344  13.608  0.00  0.00    +0.000 A 
ATOM      8  F   UNL     1      47.979   5.897  14.265  0.00  0.00    +0.000 F 
ATOM      9  C   UNL     1      46.825   3.958  13.602  0.00  0.00    +0.000 A 
ATOM     10  C   UNL     1      45.816   3.334  12.863  0.00  0.00    +0.000 A 
ATOM     11  C   UNL     1      44.958   4.171  12.137  0.00  0.00    +0.000 A 
ENDBRANCH   1   2
BRANCH   1  15
ATOM     12  C   UNL     1      46.650   2.789   6.870  0.00  0.00    +0.000 A 
ATOM     13  C   UNL     1      46.446   1.611   7.600  0.00  0.00    +0.000 A 
ATOM     14  C   UNL     1      45.629   1.604   8.734  0.00  0.00    +0.000 A 
ATOM     15  C   UNL     1      45.002   2.782   9.164  0.00  0.00    +0.000 A 
ATOM     16  C   UNL     1      45.231   3.971   8.460  0.00  0.00    +0.000 A 
ATOM     17  C   UNL     1      46.036   3.967   7.313  0.00  0.00    +0.000 A 
BRANCH  12  18
ATOM     18  C   UNL     1      47.522   2.790   5.640  0.00  0.00    +0.000 C 
BRANCH  18  19
ATOM     19  N   UNL     1      48.563   1.768   5.709  0.00  0.00    +0.000 NA
ATOM     20  H   UNL     1      49.050   1.731   4.814  0.00  0.00    +0.000 HD
ATOM     21  H   UNL     1      48.124   0.861   5.838  0.00  0.00    +0.000 HD
ENDBRANCH  18  19
ENDBRANCH  12  18
ENDBRANCH   1  15
TORSDOF 4
ENDMDL
MODEL 2
REMARK VINA RESULT:    -7.460      1.673      1.868
REMARK INTER + INTRA:          -9.269
REMARK INTER:                  -8.939
REMARK INTRA:                  -0.330
REMARK UNBOUND:                -0.282
REMARK  Name = 
REMARK  4 active torsions:
REMARK  status: ('A' for Active; 'I' for Inactive)
REMARK    1  A    between atoms: N_1  and  C_2
REMARK    2  A    between atoms: C_2  and  C_3
REMARK    3  A    between atoms: C_6  and  C_7
REMARK    4  A    between atoms: C_7  and  N_8
REMARK                            x       y       z     vdW  Elec       q    Type
REMARK                         _______ _______ _______ _____ _____    ______ ____
ROOT
ATOM      1  C   UNL     1      43.811   4.411   9.697  0.00  0.00    +0.000 C 
ENDROOT
BRANCH   1   2
ATOM      2  N   UNL     1      44.089   4.740  11.090  0.00  0.00    +0.000 N 
ATOM      3  C   UNL     1      43.192   4.667  12.122  0.00  0.00    +0.000 A 
ATOM      4  N   UNL     1      43.467   5.539  13.069  0.00  0.00    +0.000 NA
ATOM      5  C   UNL     1      44.610   6.174  12.656  0.00  0.00    +0.000 A 
ATOM      6  C   UNL     1      45.278   7.270  13.218  0.00  0.00    +0.000 A 
ATOM      7  C   UNL     1      46.433   7.726  12.584  0.00  0.00    +0.000 A 
ATOM      8  F   UNL     1      47.056   8.812  13.064  0.00  0.00    +0.000 F 
ATOM      9  C   UNL     1      46.953   7.098  11.456  0.00  0.00    +0.000 A 
ATOM     10  C   UNL     1      46.292   6.013  10.873  0.00  0.00    +0.000 A 
ATOM     11  C   UNL     1      45.093   5.608  11.476  0.00  0.00    +0.000 A 
ENDBRANCH   1   2
BRANCH   1  15
ATOM     12  C   UNL     1      46.645   2.014   7.477  0.00  0.00    +0.000 A 
ATOM     13  C   UNL     1      45.858   1.438   8.483  0.00  0.00    +0.000 A 
ATOM     14  C   UNL     1      44.970   2.217   9.229  0.00  0.00    +0.000 A 
ATOM     15  C   UNL     1      44.856   3.593   8.988  0.00  0.00    +0.000 A 
ATOM     16  C   UNL     1      45.666   4.181   8.009  0.00  0.00    +0.000 A 
ATOM     17  C   UNL     1      46.541   3.392   7.250  0.00  0.00    +0.000 A 
BRANCH  12  18
ATOM     18  C   UNL     1      47.593   1.169   6.664  0.00  0.00    +0.000 C 
BRANCH  18  19
ATOM     19  N   UNL     1      48.426   1.980   5.780  0.00  0.00    +0.000 NA
ATOM     20  H   UNL     1      48.600   2.881   6.225  0.00  0.00    +0.000 HD
ATOM     21  H   UNL     1      47.907   2.173   4.927  0.00  0.00    +0.000 HD
ENDBRANCH  18  19
ENDBRANCH  12  18
ENDBRANCH   1  15
TORSDOF 4
ENDMDL
MODEL 3
REMARK VINA RESULT:    -7.121      2.728      6.030
REMARK INTER + INTRA:          -8.861
REMARK INTER:                  -8.309
REMARK INTRA:                  -0.552
REMARK UNBOUND:                -0.282
REMARK  Name = 
REMARK  4 active torsions:
REMARK  status: ('A' for Active; 'I' for Inactive)
REMARK    1  A    between atoms: N_1  and  C_2
REMARK    2  A    between atoms: C_2  and  C_3
REMARK    3  A    between atoms: C_6  and  C_7
REMARK    4  A    between atoms: C_7  and  N_8
REMARK                            x       y       z     vdW  Elec       q    Type
REMARK                         _______ _______ _______ _____ _____    ______ ____
ROOT
ATOM      1  C   UNL     1      44.208   5.728  11.027  0.00  0.00    +0.000 C 
ENDROOT
BRANCH   1   2
ATOM      2  N   UNL     1      43.979   4.423  10.418  0.00  0.00    +0.000 N 
ATOM      3  C   UNL     1      43.383   3.352  11.029  0.00  0.00    +0.000 A 
ATOM      4  N   UNL     1      43.825   2.209  10.548  0.00  0.00    +0.000 NA
ATOM      5  C   UNL     1      44.712   2.551   9.559  0.00  0.00    +0.000 A 
ATOM      6  C   UNL     1      45.562   1.738   8.798  0.00  0.00    +0.000 A 
ATOM      7  C   UNL     1      46.377   2.353   7.849  0.00  0.00    +0.000 A 
ATOM      8  F   UNL     1      47.246   1.606   7.153  0.00  0.00    +0.000 F 
ATOM      9  C   UNL     1      46.329   3.723   7.611  0.00  0.00    +0.000 A 
ATOM     10  C   UNL     1      45.498   4.551   8.370  0.00  0.00    +0.000 A 
ATOM     11  C   UNL     1      44.737   3.933   9.371  0.00  0.00    +0.000 A 
ENDBRANCH   1   2
BRANCH   1  15
ATOM     12  C   UNL     1      47.797   6.372  13.355  0.00  0.00    +0.000 A 
ATOM     13  C   UNL     1      47.623   7.011  12.120  0.00  0.00    +0.000 A 
ATOM     14  C   UNL     1      46.483   6.776  11.347  0.00  0.00    +0.000 A 
ATOM     15  C   UNL     1      45.494   5.887  11.792  0.00  0.00    +0.000 A 
ATOM     16  C   UNL     1      45.679   5.217  13.007  0.00  0.00    +0.000 A 
ATOM     17  C   UNL     1      46.815   5.472  13.788  0.00  0.00    +0.000 A 
BRANCH  12  18
ATOM     18  C   UNL     1      49.021   6.638  14.193  0.00  0.00    +0.000 C 
BRANCH  18  19
ATOM     19  N   UNL     1      48.915   6.035  15.520  0.00  0.00    +0.000 NA
ATOM     20  H   UNL     1      49.787   6.192  16.024  0.00  0.00    +0.000 HD
ATOM     21  H   UNL     1      48.817   5.029  15.415  0.00  0.00    +0.000 HD
ENDBRANCH  18  19
ENDBRANCH  12  18
ENDBRANCH   1  15
TORSDOF 4
ENDMDL
MODEL 4
REMARK VINA RESULT:    -6.914      2.831      5.796
REMARK INTER + INTRA:          -8.611
REMARK INTER:                  -8.270
REMARK INTRA:                  -0.341
REMARK UNBOUND:                -0.282
REMARK  Name = 
REMARK  4 active torsions:
REMARK  status: ('A' for Active; 'I' for Inactive)
REMARK    1  A    between atoms: N_1  and  C_2
REMARK    2  A    between atoms: C_2  and  C_3
REMARK    3  A    between atoms: C_6  and  C_7
REMARK    4  A    between atoms: C_7  and  N_8
REMARK                            x       y       z     vdW  Elec       q    Type
REMARK                         _______ _______ _______ _____ _____    ______ ____
ROOT
ATOM      1  C   UNL     1      43.819   6.148  11.212  0.00  0.00    +0.000 C 
ENDROOT
BRANCH   1   2
ATOM      2  N   UNL     1      43.551   4.787  10.762  0.00  0.00    +0.000 N 
ATOM      3  C   UNL     1      42.970   3.799  11.511  0.00  0.00    +0.000 A 
ATOM      4  N   UNL     1      43.379   2.605  11.143  0.00  0.00    +0.000 NA
ATOM      5  C   UNL     1      44.228   2.822  10.087  0.00  0.00    +0.000 A 
ATOM      6  C   UNL     1      45.037   1.916   9.388  0.00  0.00    +0.000 A 
ATOM      7  C   UNL     1      45.818   2.410   8.344  0.00  0.00    +0.000 A 
ATOM      8  F   UNL     1      46.649   1.578   7.700  0.00  0.00    +0.000 F 
ATOM      9  C   UNL     1      45.775   3.747   7.957  0.00  0.00    +0.000 A 
ATOM     10  C   UNL     1      44.985   4.666   8.653  0.00  0.00    +0.000 A 
ATOM     11  C   UNL     1      44.259   4.174   9.746  0.00  0.00    +0.000 A 
ENDBRANCH   1   2
BRANCH   1  15
ATOM     12  C   UNL     1      47.506   6.604  13.428  0.00  0.00    +0.000 A 
ATOM     13  C   UNL     1      46.732   5.445  13.563  0.00  0.00    +0.000 A 
ATOM     14  C   UNL     1      45.521   5.310  12.879  0.00  0.00    +0.000 A 
ATOM     15  C   UNL     1      45.055   6.339  12.049  0.00  0.00    +0.000 A 
ATOM     16  C   UNL     1      45.806   7.516  11.939  0.00  0.00    +0.000 A 
ATOM     17  C   UNL     1      47.030   7.638  12.612  0.00  0.00    +0.000 A 
BRANCH  12  18
ATOM     18  C   UNL     1      48.819   6.742  14.156  0.00  0.00    +0.000 C 
BRANCH  18  19
ATOM     19  N   UNL     1      49.918   7.053  13.246  0.00  0.00    +0.000 NA
ATOM     20  H   UNL     1      49.558   7.608  12.470  0.00  0.00    +0.000 HD
ATOM     21  H   UNL     1      50.267   6.186  12.845  0.00  0.00    +0.000 HD
ENDBRANCH  18  19
ENDBRANCH  12  18
ENDBRANCH   1  15
TORSDOF 4
ENDMDL
MODEL 5
REMARK VINA RESULT:    -6.689      2.987      6.320
REMARK INTER + INTRA:          -8.340
REMARK INTER:                  -8.129
REMARK INTRA:                  -0.211
REMARK UNBOUND:                -0.282
REMARK  Name = 
REMARK  4 active torsions:
REMARK  status: ('A' for Active; 'I' for Inactive)
REMARK    1  A    between atoms: N_1  and  C_2
REMARK    2  A    between atoms: C_2  and  C_3
REMARK    3  A    between atoms: C_6  and  C_7
REMARK    4  A    between atoms: C_7  and  N_8
REMARK                            x       y       z     vdW  Elec       q    Type
REMARK                         _______ _______ _______ _____ _____    ______ ____
ROOT
ATOM      1  C   UNL     1      45.447   4.986  12.884  0.00  0.00    +0.000 C 
ENDROOT
BRANCH   1   2
ATOM      2  N   UNL     1      44.554   4.398  11.892  0.00  0.00    +0.000 N 
ATOM      3  C   UNL     1      43.626   3.420  12.134  0.00  0.00    +0.000 A 
ATOM      4  N   UNL     1      43.415   2.676  11.069  0.00  0.00    +0.000 NA
ATOM      5  C   UNL     1      44.205   3.217  10.086  0.00  0.00    +0.000 A 
ATOM      6  C   UNL     1      44.461   2.754   8.789  0.00  0.00    +0.000 A 
ATOM      7  C   UNL     1      45.320   3.504   7.986  0.00  0.00    +0.000 A 
ATOM      8  F   UNL     1      45.633   3.051   6.764  0.00  0.00    +0.000 F 
ATOM      9  C   UNL     1      45.877   4.703   8.420  0.00  0.00    +0.000 A 
ATOM     10  C   UNL     1      45.644   5.172   9.716  0.00  0.00    +0.000 A 
ATOM     11  C   UNL     1      44.838   4.374  10.539  0.00  0.00    +0.000 A 
ENDBRANCH   1   2
BRANCH   1  15
ATOM     12  C   UNL     1      46.849   9.039  12.319  0.00  0.00    +0.000 A 
ATOM     13  C   UNL     1      45.480   8.770  12.451  0.00  0.00    +0.000 A 
ATOM     14  C   UNL     1      45.020   7.458  12.594  0.00  0.00    +0.000 A 
ATOM     15  C   UNL     1      45.923   6.386  12.601  0.00  0.00    +0.000 A 
ATOM     16  C   UNL     1      47.288   6.644  12.433  0.00  0.00    +0.000 A 
ATOM     17  C   UNL     1      47.746   7.964  12.309  0.00  0.00    +0.000 A 
BRANCH  12  18
ATOM     18  C   UNL     1      47.343  10.456  12.178  0.00  0.00    +0.000 C 
BRANCH  18  19
ATOM     19  N   UNL     1      46.249  11.423  12.222  0.00  0.00    +0.000 NA
ATOM     20  H   UNL     1      45.364  10.919  12.272  0.00  0.00    +0.000 HD
ATOM     21  H   UNL     1      46.237  11.944  11.350  0.00  0.00    +0.000 HD
ENDBRANCH  18  19
ENDBRANCH  12  18
ENDBRANCH   1  15
TORSDOF 4
ENDMDL
MODEL 6
REMARK VINA RESULT:    -6.646      1.386      2.261
REMARK INTER + INTRA:          -8.289
REMARK INTER:                  -7.923
REMARK INTRA:                  -0.365
REMARK UNBOUND:                -0.282
REMARK  Name = 
REMARK  4 active torsions:
REMARK  status: ('A' for Active; 'I' for Inactive)
REMARK    1  A    between atoms: N_1  and  C_2
REMARK    2  A    between atoms: C_2  and  C_3
REMARK    3  A    between atoms: C_6  and  C_7
REMARK    4  A    between atoms: C_7  and  N_8
REMARK                            x       y       z     vdW  Elec       q    Type
REMARK                         _______ _______ _______ _____ _____    ______ ____
ROOT
ATOM      1  C   UNL     1      43.544   4.868  11.447  0.00  0.00    +0.000 C 
ENDROOT
BRANCH   1   2
ATOM      2  N   UNL     1      44.217   6.066  11.935  0.00  0.00    +0.000 N 
ATOM      3  C   UNL     1      44.126   7.314  11.380  0.00  0.00    +0.000 A 
ATOM      4  N   UNL     1      45.216   8.021  11.590  0.00  0.00    +0.000 NA
ATOM      5  C   UNL     1      46.030   7.216  12.346  0.00  0.00    +0.000 A 
ATOM      6  C   UNL     1      47.355   7.415  12.756  0.00  0.00    +0.000 A 
ATOM      7  C   UNL     1      47.957   6.420  13.525  0.00  0.00    +0.000 A 
ATOM      8  F   UNL     1      49.243   6.555  13.877  0.00  0.00    +0.000 F 
ATOM      9  C   UNL     1      47.267   5.280  13.928  0.00  0.00    +0.000 A 
ATOM     10  C   UNL     1      45.950   5.058  13.516  0.00  0.00    +0.000 A 
ATOM     11  C   UNL     1      45.379   6.029  12.683  0.00  0.00    +0.000 A 
ENDBRANCH   1   2
BRANCH   1  15
ATOM     12  C   UNL     1      45.743   2.684   8.430  0.00  0.00    +0.000 A 
ATOM     13  C   UNL     1      45.803   4.083   8.484  0.00  0.00    +0.000 A 
ATOM     14  C   UNL     1      45.063   4.794   9.432  0.00  0.00    +0.000 A 
ATOM     15  C   UNL     1      44.241   4.119  10.344  0.00  0.00    +0.000 A 
ATOM     16  C   UNL     1      44.147   2.724  10.272  0.00  0.00    +0.000 A 
ATOM     17  C   UNL     1      44.906   2.013   9.331  0.00  0.00    +0.000 A 
BRANCH  12  18
ATOM     18  C   UNL     1      46.552   1.918   7.414  0.00  0.00    +0.000 C 
BRANCH  18  19
ATOM     19  N   UNL     1      46.769   0.532   7.822  0.00  0.00    +0.000 NA
ATOM     20  H   UNL     1      47.187   0.020   7.046  0.00  0.00    +0.000 HD
ATOM     21  H   UNL     1      45.867   0.099   8.003  0.00  0.00    +0.000 HD
ENDBRANCH  18  19
ENDBRANCH  12  18
ENDBRANCH   1  15
TORSDOF 4
ENDMDL
MODEL 7
REMARK VINA RESULT:    -5.745      4.844      8.025
REMARK INTER + INTRA:          -7.203
REMARK INTER:                  -6.735
REMARK INTRA:                  -0.469
REMARK UNBOUND:                -0.282
REMARK  Name = 
REMARK  4 active torsions:
REMARK  status: ('A' for Active; 'I' for Inactive)
REMARK    1  A    between atoms: N_1  and  C_2
REMARK    2  A    between atoms: C_2  and  C_3
REMARK    3  A    between atoms: C_6  and  C_7
REMARK    4  A    between atoms: C_7  and  N_8
REMARK                            x       y       z     vdW  Elec       q    Type
REMARK                         _______ _______ _______ _____ _____    ______ ____
ROOT
ATOM      1  C   UNL     1      48.241   5.486  16.676  0.00  0.00    +0.000 C 
ENDROOT
BRANCH   1   2
ATOM      2  N   UNL     1      48.332   6.004  15.316  0.00  0.00    +0.000 N 
ATOM      3  C   UNL     1      48.843   7.224  14.959  0.00  0.00    +0.000 A 
ATOM      4  N   UNL     1      48.285   7.683  13.860  0.00  0.00    +0.000 NA
ATOM      5  C   UNL     1      47.406   6.706  13.464  0.00  0.00    +0.000 A 
ATOM      6  C   UNL     1      46.465   6.716  12.427  0.00  0.00    +0.000 A 
ATOM      7  C   UNL     1      45.684   5.576  12.243  0.00  0.00    +0.000 A 
ATOM      8  F   UNL     1      44.732   5.582  11.300  0.00  0.00    +0.000 F 
ATOM      9  C   UNL     1      45.851   4.433  13.019  0.00  0.00    +0.000 A 
ATOM     10  C   UNL     1      46.776   4.411  14.068  0.00  0.00    +0.000 A 
ATOM     11  C   UNL     1      47.504   5.587  14.290  0.00  0.00    +0.000 A 
ENDBRANCH   1   2
BRANCH   1  15
ATOM     12  C   UNL     1      51.248   2.500  17.541  0.00  0.00    +0.000 A 
ATOM     13  C   UNL     1      49.936   2.121  17.228  0.00  0.00    +0.000 A 
ATOM     14  C   UNL     1      48.952   3.083  16.987  0.00  0.00    +0.000 A 
ATOM     15  C   UNL     1      49.261   4.449  17.060  0.00  0.00    +0.000 A 
ATOM     16  C   UNL     1      50.561   4.834  17.408  0.00  0.00    +0.000 A 
ATOM     17  C   UNL     1      51.549   3.864  17.631  0.00  0.00    +0.000 A 
BRANCH  12  18
ATOM     18  C   UNL     1      52.310   1.459  17.788  0.00  0.00    +0.000 C 
BRANCH  18  19
ATOM     19  N   UNL     1      51.734   0.160  18.126  0.00  0.00    +0.000 NA
ATOM     20  H   UNL     1      50.831   0.306  18.576  0.00  0.00    +0.000 HD
ATOM     21  H   UNL     1      52.330  -0.295  18.812  0.00  0.00    +0.000 HD
ENDBRANCH  18  19
ENDBRANCH  12  18
ENDBRANCH   1  15
TORSDOF 4
ENDMDL
MODEL 8
REMARK VINA RESULT:    -5.666      3.589      6.318
REMARK INTER + INTRA:          -7.107
REMARK INTER:                  -6.617
REMARK INTRA:                  -0.490
REMARK UNBOUND:                -0.282
REMARK  Name = 
REMARK  4 active torsions:
REMARK  status: ('A' for Active; 'I' for Inactive)
REMARK    1  A    between atoms: N_1  and  C_2
REMARK    2  A    between atoms: C_2  and  C_3
REMARK    3  A    between atoms: C_6  and  C_7
REMARK    4  A    between atoms: C_7  and  N_8
REMARK                            x       y       z     vdW  Elec       q    Type
REMARK                         _______ _______ _______ _____ _____    ______ ____
ROOT
ATOM      1  C   UNL     1      45.730   7.273  13.158  0.00  0.00    +0.000 C 
ENDROOT
BRANCH   1   2
ATOM      2  N   UNL     1      45.460   5.840  13.192  0.00  0.00    +0.000 N 
ATOM      3  C   UNL     1      46.162   4.913  13.915  0.00  0.00    +0.000 A 
ATOM      4  N   UNL     1      46.138   3.729  13.341  0.00  0.00    +0.000 NA
ATOM      5  C   UNL     1      45.357   3.883  12.223  0.00  0.00    +0.000 A 
ATOM      6  C   UNL     1      45.091   2.980  11.186  0.00  0.00    +0.000 A 
ATOM      7  C   UNL     1      44.254   3.401  10.153  0.00  0.00    +0.000 A 
ATOM      8  F   UNL     1      44.034   2.580   9.116  0.00  0.00    +0.000 F 
ATOM      9  C   UNL     1      43.650   4.655  10.156  0.00  0.00    +0.000 A 
ATOM     10  C   UNL     1      43.917   5.574  11.175  0.00  0.00    +0.000 A 
ATOM     11  C   UNL     1      44.816   5.167  12.170  0.00  0.00    +0.000 A 
ENDBRANCH   1   2
BRANCH   1  15
ATOM     12  C   UNL     1      49.912   8.193  12.546  0.00  0.00    +0.000 A 
ATOM     13  C   UNL     1      49.282   8.510  13.756  0.00  0.00    +0.000 A 
ATOM     14  C   UNL     1      47.922   8.250  13.943  0.00  0.00    +0.000 A 
ATOM     15  C   UNL     1      47.161   7.672  12.918  0.00  0.00    +0.000 A 
ATOM     16  C   UNL     1      47.776   7.387  11.693  0.00  0.00    +0.000 A 
ATOM     17  C   UNL     1      49.145   7.632  11.517  0.00  0.00    +0.000 A 
BRANCH  12  18
ATOM     18  C   UNL     1      51.383   8.462  12.351  0.00  0.00    +0.000 C 
BRANCH  18  19
ATOM     19  N   UNL     1      52.180   7.978  13.476  0.00  0.00    +0.000 NA
ATOM     20  H   UNL     1      53.166   8.134  13.273  0.00  0.00    +0.000 HD
ATOM     21  H   UNL     1      52.056   6.972  13.556  0.00  0.00    +0.000 HD
ENDBRANCH  18  19
ENDBRANCH  12  18
ENDBRANCH   1  15
TORSDOF 4
ENDMDL
MODEL 9
REMARK VINA RESULT:    -5.661      2.748      3.986
REMARK INTER + INTRA:          -7.101
REMARK INTER:                  -6.848
REMARK INTRA:                  -0.253
REMARK UNBOUND:                -0.282
REMARK  Name = 
REMARK  4 active torsions:
REMARK  status: ('A' for Active; 'I' for Inactive)
REMARK    1  A    between atoms: N_1  and  C_2
REMARK    2  A    between atoms: C_2  and  C_3
REMARK    3  A    between atoms: C_6  and  C_7
REMARK    4  A    between atoms: C_7  and  N_8
REMARK                            x       y       z     vdW  Elec       q    Type
REMARK                         _______ _______ _______ _____ _____    ______ ____
ROOT
ATOM      1  C   UNL     1      45.648   5.663  12.932  0.00  0.00    +0.000 C 
ENDROOT
BRANCH   1   2
ATOM      2  N   UNL     1      46.107   7.045  13.010  0.00  0.00    +0.000 N 
ATOM      3  C   UNL     1      45.320   8.157  12.873  0.00  0.00    +0.000 A 
ATOM      4  N   UNL     1      45.997   9.176  12.390  0.00  0.00    +0.000 NA
ATOM      5  C   UNL     1      47.284   8.721  12.246  0.00  0.00    +0.000 A 
ATOM      6  C   UNL     1      48.394   9.347  11.665  0.00  0.00    +0.000 A 
ATOM      7  C   UNL     1      49.601   8.648  11.645  0.00  0.00    +0.000 A 
ATOM      8  F   UNL     1      50.663   9.198  11.039  0.00  0.00    +0.000 F 
ATOM      9  C   UNL     1      49.735   7.389  12.223  0.00  0.00    +0.000 A 
ATOM     10  C   UNL     1      48.634   6.744  12.793  0.00  0.00    +0.000 A 
ATOM     11  C   UNL     1      47.410   7.425  12.743  0.00  0.00    +0.000 A 
ENDBRANCH   1   2
BRANCH   1  15
ATOM     12  C   UNL     1      45.215   3.984   8.969  0.00  0.00    +0.000 A 
ATOM     13  C   UNL     1      45.733   5.274   9.145  0.00  0.00    +0.000 A 
ATOM     14  C   UNL     1      45.837   5.835  10.420  0.00  0.00    +0.000 A 
ATOM     15  C   UNL     1      45.418   5.117  11.549  0.00  0.00    +0.000 A 
ATOM     16  C   UNL     1      44.866   3.842  11.377  0.00  0.00    +0.000 A 
ATOM     17  C   UNL     1      44.781   3.276  10.097  0.00  0.00    +0.000 A 
BRANCH  12  18
ATOM     18  C   UNL     1      45.115   3.375   7.593  0.00  0.00    +0.000 C 
BRANCH  18  19
ATOM     19  N   UNL     1      46.340   3.567   6.822  0.00  0.00    +0.000 NA
ATOM     20  H   UNL     1      46.983   2.802   7.027  0.00  0.00    +0.000 HD
ATOM     21  H   UNL     1      46.795   4.420   7.137  0.00  0.00    +0.000 HD
ENDBRANCH  18  19
ENDBRANCH  12  18
ENDBRANCH   1  15
TORSDOF 4
ENDMDL
