MODEL 1
REMARK VINA RESULT:    -8.818      0.000      0.000
REMARK INTER + INTRA:         -12.330
REMARK INTER:                 -11.395
REMARK INTRA:                  -0.935
REMARK UNBOUND:                -0.935
REMARK  Name = 
REMARK  6 active torsions:
REMARK  status: ('A' for Active; 'I' for Inactive)
REMARK    1  A    between atoms: C_1  and  O_2
REMARK    2  A    between atoms: O_2  and  C_3
REMARK    3  A    between atoms: C_6  and  C_7
REMARK    4  A    between atoms: C_11  and  C_12
REMARK    5  A    between atoms: C_12  and  N_13
REMARK    6  A    between atoms: C_17  and  C_18
REMARK                            x       y       z     vdW  Elec       q    Type
REMARK                         _______ _______ _______ _____ _____    ______ ____
ROOT
ATOM      1  C   UNL     1      43.801   4.856  11.349  0.00  0.00    +0.000 C 
ATOM      2  C   UNL     1      42.928   6.086  11.163  0.00  0.00    +0.000 C 
ATOM      3  C   UNL     1      42.491   5.030  12.119  0.00  0.00    +0.000 C 
ENDROOT
BRANCH   1   4
ATOM      4  N   UNL     1      43.798   3.695  10.439  0.00  0.00    +0.000 N 
ATOM      5  C   UNL     1      44.794   3.428   9.497  0.00  0.00    +0.000 A 
ATOM      6  C   UNL     1      45.366   4.408   8.696  0.00  0.00    +0.000 A 
ATOM      7  C   UNL     1      46.246   4.034   7.677  0.00  0.00    +0.000 A 
ATOM      8  C   UNL     1      46.537   2.687   7.482  0.00  0.00    +0.000 A 
ATOM      9  C   UNL     1      45.962   1.778   8.353  0.00  0.00    +0.000 A 
ATOM     10  N   UNL     1      45.094   2.120   9.338  0.00  0.00    +0.000 NA
ATOM     11  H   UNL     1      43.607   2.806  10.901  0.00  0.00    +0.000 HD
BRANCH   8  12
ATOM     12  C   UNL     1      47.439   2.281   6.385  0.00  0.00    +0.000 C 
ATOM     13  N   UNL     1      47.399   3.000   5.222  0.00  0.00    +0.000 N 
ATOM     14  O   UNL     1      48.229   1.356   6.525  0.00  0.00    +0.000 OA
ATOM     15  H   UNL     1      46.935   3.891   5.124  0.00  0.00    +0.000 HD
ATOM     16  H   UNL     1      48.101   2.765   4.529  0.00  0.00    +0.000 HD
ENDBRANCH   8  12
ENDBRANCH   1   4
BRANCH   1  21
ATOM     17  C   UNL     1      47.008   6.325  12.587  0.00  0.00    +0.000 A 
ATOM     18  C   UNL     1      47.512   5.352  13.448  0.00  0.00    +0.000 A 
ATOM     19  C   UNL     1      46.776   4.193  13.661  0.00  0.00    +0.000 A 
ATOM     20  C   UNL     1      45.565   4.031  13.000  0.00  0.00    +0.000 A 
ATOM     21  C   UNL     1      45.101   5.032  12.143  0.00  0.00    +0.000 A 
ATOM     22  N   UNL     1      45.811   6.179  11.967  0.00  0.00    +0.000 NA
BRANCH  17  26
ATOM     23  C   UNL     1      49.124   9.869  11.667  0.00  0.00    +0.000 A 
ATOM     24  C   UNL     1      49.823   8.679  11.629  0.00  0.00    +0.000 A 
ATOM     25  C   UNL     1      49.133   7.493  11.903  0.00  0.00    +0.000 A 
ATOM     26  C   UNL     1      47.765   7.526  12.211  0.00  0.00    +0.000 A 
ATOM     27  C   UNL     1      47.170   8.787  12.201  0.00  0.00    +0.000 A 
ATOM     28  N   UNL     1      47.803   9.945  11.931  0.00  0.00    +0.000 NA
BRANCH  23  30
ATOM     29  C   UNL     1      51.050  10.794  10.749  0.00  0.00    +0.000 C 
ATOM     30  O   UNL     1      49.831  11.032  11.451  0.00  0.00    +0.000 OA
ENDBRANCH  23  30
ENDBRANCH  17  26
ENDBRANCH   1  21
TORSDOF 5
ENDMDL
MODEL 2
REMARK VINA RESULT:    -8.623      2.835      4.277
REMARK INTER + INTRA:         -12.079
REMARK INTER:                 -11.714
REMARK INTRA:                  -0.364
REMARK UNBOUND:                -0.935
REMARK  Name = 
REMARK  6 active torsions:
REMARK  status: ('A' for Active; 'I' for Inactive)
REMARK    1  A    between atoms: C_1  and  O_2
REMARK    2  A    between atoms: O_2  and  C_3
REMARK    3  A    between atoms: C_6  and  C_7
REMARK    4  A    between atoms: C_11  and  C_12
REMARK    5  A    between atoms: C_12  and  N_13
REMARK    6  A    between atoms: C_17  and  C_18
REMARK                            x       y       z     vdW  Elec       q    Type
REMARK                         _______ _______ _______ _____ _____    ______ ____
ROOT
ATOM      1  C   UNL     1      43.852   4.939  11.366  0.00  0.00    +0.000 C 
ATOM      2  C   UNL     1      42.706   5.936  11.349  0.00  0.00    +0.000 C 
ATOM      3  C   UNL     1      42.761   4.921  12.438  0.00  0.00    +0.000 C 
ENDROOT
BRANCH   1   4
ATOM      4  N   UNL     1      43.894   3.711  10.549  0.00  0.00    +0.000 N 
ATOM      5  C   UNL     1      44.842   3.456   9.556  0.00  0.00    +0.000 A 
ATOM      6  C   UNL     1      45.264   4.413   8.643  0.00  0.00    +0.000 A 
ATOM      7  C   UNL     1      46.101   4.035   7.590  0.00  0.00    +0.000 A 
ATOM      8  C   UNL     1      46.502   2.707   7.475  0.00  0.00    +0.000 A 
ATOM      9  C   UNL     1      46.075   1.825   8.453  0.00  0.00    +0.000 A 
ATOM     10  N   UNL     1      45.249   2.170   9.473  0.00  0.00    +0.000 NA
ATOM     11  H   UNL     1      43.818   2.850  11.090  0.00  0.00    +0.000 HD
BRANCH   8  12
ATOM     12  C   UNL     1      47.359   2.293   6.345  0.00  0.00    +0.000 C 
ATOM     13  N   UNL     1      47.250   2.984   5.170  0.00  0.00    +0.000 N 
ATOM     14  O   UNL     1      48.173   1.386   6.468  0.00  0.00    +0.000 OA
ATOM     15  H   UNL     1      46.764   3.864   5.074  0.00  0.00    +0.000 HD
ATOM     16  H   UNL     1      47.923   2.747   4.450  0.00  0.00    +0.000 HD
ENDBRANCH   8  12
ENDBRANCH   1   4
BRANCH   1  21
ATOM     17  C   UNL     1      46.970   5.452  13.364  0.00  0.00    +0.000 A 
ATOM     18  C   UNL     1      47.652   6.449  12.671  0.00  0.00    +0.000 A 
ATOM     19  C   UNL     1      47.102   6.954  11.499  0.00  0.00    +0.000 A 
ATOM     20  C   UNL     1      45.881   6.459  11.060  0.00  0.00    +0.000 A 
ATOM     21  C   UNL     1      45.231   5.461  11.789  0.00  0.00    +0.000 A 
ATOM     22  N   UNL     1      45.794   4.947  12.916  0.00  0.00    +0.000 NA
BRANCH  17  26
ATOM     23  C   UNL     1      48.327   3.827  17.025  0.00  0.00    +0.000 A 
ATOM     24  C   UNL     1      48.637   5.146  16.757  0.00  0.00    +0.000 A 
ATOM     25  C   UNL     1      48.173   5.709  15.564  0.00  0.00    +0.000 A 
ATOM     26  C   UNL     1      47.415   4.941  14.668  0.00  0.00    +0.000 A 
ATOM     27  C   UNL     1      47.156   3.628  15.060  0.00  0.00    +0.000 A 
ATOM     28  N   UNL     1      47.578   3.060  16.206  0.00  0.00    +0.000 NA
BRANCH  23  30
ATOM     29  C   UNL     1      48.766   4.171  19.283  0.00  0.00    +0.000 C 
ATOM     30  O   UNL     1      48.841   3.273  18.178  0.00  0.00    +0.000 OA
ENDBRANCH  23  30
ENDBRANCH  17  26
ENDBRANCH   1  21
TORSDOF 5
ENDMDL
MODEL 3
REMARK VINA RESULT:    -6.911      5.612      8.485
REMARK INTER + INTRA:          -9.866
REMARK INTER:                  -9.150
REMARK INTRA:                  -0.716
REMARK UNBOUND:                -0.935
REMARK  Name = 
REMARK  6 active torsions:
REMARK  status: ('A' for Active; 'I' for Inactive)
REMARK    1  A    between atoms: C_1  and  O_2
REMARK    2  A    between atoms: O_2  and  C_3
REMARK    3  A    between atoms: C_6  and  C_7
REMARK    4  A    between atoms: C_11  and  C_12
REMARK    5  A    between atoms: C_12  and  N_13
REMARK    6  A    between atoms: C_17  and  C_18
REMARK                            x       y       z     vdW  Elec       q    Type
REMARK                         _______ _______ _______ _____ _____    ______ ____
ROOT
ATOM      1  C   UNL     1      48.324   4.813  17.285  0.00  0.00    +0.000 C 
ATOM      2  C   UNL     1      47.149   3.854  17.367  0.00  0.00    +0.000 C 
ATOM      3  C   UNL     1      47.114   5.107  18.173  0.00  0.00    +0.000 C 
ENDROOT
BRANCH   1   4
ATOM      4  N   UNL     1      49.581   4.649  18.039  0.00  0.00    +0.000 N 
ATOM      5  C   UNL     1      50.515   3.637  17.807  0.00  0.00    +0.000 A 
ATOM      6  C   UNL     1      50.161   2.317  17.565  0.00  0.00    +0.000 A 
ATOM      7  C   UNL     1      51.159   1.341  17.492  0.00  0.00    +0.000 A 
ATOM      8  C   UNL     1      52.491   1.709  17.660  0.00  0.00    +0.000 A 
ATOM      9  C   UNL     1      52.763   3.052  17.852  0.00  0.00    +0.000 A 
ATOM     10  N   UNL     1      51.807   4.011  17.940  0.00  0.00    +0.000 NA
ATOM     11  H   UNL     1      50.121   5.509  18.138  0.00  0.00    +0.000 HD
BRANCH   8  12
ATOM     12  C   UNL     1      53.549   0.678  17.619  0.00  0.00    +0.000 C 
ATOM     13  N   UNL     1      53.321  -0.502  18.271  0.00  0.00    +0.000 N 
ATOM     14  O   UNL     1      54.582   0.857  16.985  0.00  0.00    +0.000 OA
ATOM     15  H   UNL     1      52.418  -0.789  18.622  0.00  0.00    +0.000 HD
ATOM     16  H   UNL     1      54.017  -1.227  18.137  0.00  0.00    +0.000 HD
ENDBRANCH   8  12
ENDBRANCH   1   4
BRANCH   1  21
ATOM     17  C   UNL     1      47.732   6.073  13.815  0.00  0.00    +0.000 A 
ATOM     18  C   UNL     1      48.737   7.020  13.626  0.00  0.00    +0.000 A 
ATOM     19  C   UNL     1      49.618   7.285  14.667  0.00  0.00    +0.000 A 
ATOM     20  C   UNL     1      49.482   6.589  15.861  0.00  0.00    +0.000 A 
ATOM     21  C   UNL     1      48.463   5.645  16.004  0.00  0.00    +0.000 A 
ATOM     22  N   UNL     1      47.581   5.418  14.992  0.00  0.00    +0.000 NA
BRANCH  17  26
ATOM     23  C   UNL     1      44.990   4.824  10.847  0.00  0.00    +0.000 A 
ATOM     24  C   UNL     1      45.730   5.963  10.596  0.00  0.00    +0.000 A 
ATOM     25  C   UNL     1      46.662   6.376  11.554  0.00  0.00    +0.000 A 
ATOM     26  C   UNL     1      46.830   5.644  12.739  0.00  0.00    +0.000 A 
ATOM     27  C   UNL     1      46.036   4.505  12.867  0.00  0.00    +0.000 A 
ATOM     28  N   UNL     1      45.138   4.075  11.960  0.00  0.00    +0.000 NA
BRANCH  23  30
ATOM     29  C   UNL     1      44.620   4.073   8.678  0.00  0.00    +0.000 C 
ATOM     30  O   UNL     1      44.036   4.465   9.919  0.00  0.00    +0.000 OA
ENDBRANCH  23  30
ENDBRANCH  17  26
ENDBRANCH   1  21
TORSDOF 5
ENDMDL
MODEL 4
REMARK VINA RESULT:    -6.856      1.478      7.033
REMARK INTER + INTRA:          -9.795
REMARK INTER:                  -8.836
REMARK INTRA:                  -0.958
REMARK UNBOUND:                -0.935
REMARK  Name = 
REMARK  6 active torsions:
REMARK  status: ('A' for Active; 'I' for Inactive)
REMARK    1  A    between atoms: C_1  and  O_2
REMARK    2  A    between atoms: O_2  and  C_3
REMARK    3  A    between atoms: C_6  and  C_7
REMARK    4  A    between atoms: C_11  and  C_12
REMARK    5  A    between atoms: C_12  and  N_13
REMARK    6  A    between atoms: C_17  and  C_18
REMARK                            x       y       z     vdW  Elec       q    Type
REMARK                         _______ _______ _______ _____ _____    ______ ____
ROOT
ATOM      1  C   UNL     1      46.630   5.043  13.976  0.00  0.00    +0.000 C 
ATOM      2  C   UNL     1      47.528   3.824  14.103  0.00  0.00    +0.000 C 
ATOM      3  C   UNL     1      46.545   4.110  15.185  0.00  0.00    +0.000 C 
ENDROOT
BRANCH   1   4
ATOM      4  N   UNL     1      47.044   6.416  14.322  0.00  0.00    +0.000 N 
ATOM      5  C   UNL     1      47.520   7.353  13.402  0.00  0.00    +0.000 A 
ATOM      6  C   UNL     1      48.418   7.037  12.391  0.00  0.00    +0.000 A 
ATOM      7  C   UNL     1      48.958   8.062  11.609  0.00  0.00    +0.000 A 
ATOM      8  C   UNL     1      48.585   9.380  11.853  0.00  0.00    +0.000 A 
ATOM      9  C   UNL     1      47.650   9.605  12.848  0.00  0.00    +0.000 A 
ATOM     10  N   UNL     1      47.126   8.626  13.628  0.00  0.00    +0.000 NA
ATOM     11  H   UNL     1      46.375   6.916  14.908  0.00  0.00    +0.000 HD
BRANCH   8  12
ATOM     12  C   UNL     1      49.178  10.472  11.054  0.00  0.00    +0.000 C 
ATOM     13  N   UNL     1      50.537  10.623  11.081  0.00  0.00    +0.000 N 
ATOM     14  O   UNL     1      48.480  11.194  10.353  0.00  0.00    +0.000 OA
ATOM     15  H   UNL     1      51.175   9.937  11.460  0.00  0.00    +0.000 HD
ATOM     16  H   UNL     1      50.922  11.310  10.443  0.00  0.00    +0.000 HD
ENDBRANCH   8  12
ENDBRANCH   1   4
BRANCH   1  21
ATOM     17  C   UNL     1      44.768   4.382  10.803  0.00  0.00    +0.000 A 
ATOM     18  C   UNL     1      43.502   4.914  11.040  0.00  0.00    +0.000 A 
ATOM     19  C   UNL     1      43.229   5.479  12.279  0.00  0.00    +0.000 A 
ATOM     20  C   UNL     1      44.229   5.510  13.242  0.00  0.00    +0.000 A 
ATOM     21  C   UNL     1      45.485   4.968  12.959  0.00  0.00    +0.000 A 
ATOM     22  N   UNL     1      45.733   4.384  11.755  0.00  0.00    +0.000 NA
BRANCH  17  26
ATOM     23  C   UNL     1      46.135   3.001   7.047  0.00  0.00    +0.000 A 
ATOM     24  C   UNL     1      45.623   2.066   7.924  0.00  0.00    +0.000 A 
ATOM     25  C   UNL     1      45.140   2.508   9.160  0.00  0.00    +0.000 A 
ATOM     26  C   UNL     1      45.184   3.870   9.491  0.00  0.00    +0.000 A 
ATOM     27  C   UNL     1      45.708   4.716   8.514  0.00  0.00    +0.000 A 
ATOM     28  N   UNL     1      46.171   4.324   7.311  0.00  0.00    +0.000 NA
BRANCH  23  30
ATOM     29  C   UNL     1      47.998   2.078   6.007  0.00  0.00    +0.000 C 
ATOM     30  O   UNL     1      46.658   2.541   5.857  0.00  0.00    +0.000 OA
ENDBRANCH  23  30
ENDBRANCH  17  26
ENDBRANCH   1  21
TORSDOF 5
ENDMDL
MODEL 5
REMARK VINA RESULT:    -6.824      3.641      8.494
REMARK INTER + INTRA:          -9.753
REMARK INTER:                  -8.787
REMARK INTRA:                  -0.966
REMARK UNBOUND:                -0.935
REMARK  Name = 
REMARK  6 active torsions:
REMARK  status: ('A' for Active; 'I' for Inactive)
REMARK    1  A    between atoms: C_1  and  O_2
REMARK    2  A    between atoms: O_2  and  C_3
REMARK    3  A    between atoms: C_6  and  C_7
REMARK    4  A    between atoms: C_11  and  C_12
REMARK    5  A    between atoms: C_12  and  N_13
REMARK    6  A    between atoms: C_17  and  C_18
REMARK                            x       y       z     vdW  Elec       q    Type
REMARK                         _______ _______ _______ _____ _____    ______ ____
ROOT
ATOM      1  C   UNL     1      49.127   8.026  12.866  0.00  0.00    +0.000 C 
ATOM      2  C   UNL     1      49.848   9.335  12.592  0.00  0.00    +0.000 C 
ATOM      3  C   UNL     1      50.093   8.175  11.690  0.00  0.00    +0.000 C 
ENDROOT
BRANCH   1   4
ATOM      4  N   UNL     1      49.565   7.033  13.866  0.00  0.00    +0.000 N 
ATOM      5  C   UNL     1      49.098   6.977  15.180  0.00  0.00    +0.000 A 
ATOM      6  C   UNL     1      48.912   8.103  15.970  0.00  0.00    +0.000 A 
ATOM      7  C   UNL     1      48.586   7.948  17.321  0.00  0.00    +0.000 A 
ATOM      8  C   UNL     1      48.450   6.669  17.851  0.00  0.00    +0.000 A 
ATOM      9  C   UNL     1      48.606   5.600  16.985  0.00  0.00    +0.000 A 
ATOM     10  N   UNL     1      48.937   5.730  15.676  0.00  0.00    +0.000 NA
ATOM     11  H   UNL     1      49.557   6.071  13.525  0.00  0.00    +0.000 HD
BRANCH   8  12
ATOM     12  C   UNL     1      48.140   6.496  19.285  0.00  0.00    +0.000 C 
ATOM     13  N   UNL     1      47.175   5.589  19.628  0.00  0.00    +0.000 N 
ATOM     14  O   UNL     1      48.756   7.114  20.144  0.00  0.00    +0.000 OA
ATOM     15  H   UNL     1      46.791   4.904  18.993  0.00  0.00    +0.000 HD
ATOM     16  H   UNL     1      47.059   5.417  20.620  0.00  0.00    +0.000 HD
ENDBRANCH   8  12
ENDBRANCH   1   4
BRANCH   1  21
ATOM     17  C   UNL     1      45.836   6.750  11.635  0.00  0.00    +0.000 A 
ATOM     18  C   UNL     1      44.975   7.834  11.793  0.00  0.00    +0.000 A 
ATOM     19  C   UNL     1      45.466   9.010  12.347  0.00  0.00    +0.000 A 
ATOM     20  C   UNL     1      46.804   9.076  12.713  0.00  0.00    +0.000 A 
ATOM     21  C   UNL     1      47.631   7.966  12.532  0.00  0.00    +0.000 A 
ATOM     22  N   UNL     1      47.133   6.806  12.023  0.00  0.00    +0.000 NA
BRANCH  17  26
ATOM     23  C   UNL     1      44.870   3.167   9.606  0.00  0.00    +0.000 A 
ATOM     24  C   UNL     1      44.579   3.237  10.954  0.00  0.00    +0.000 A 
ATOM     25  C   UNL     1      44.866   4.424  11.636  0.00  0.00    +0.000 A 
ATOM     26  C   UNL     1      45.438   5.509  10.956  0.00  0.00    +0.000 A 
ATOM     27  C   UNL     1      45.669   5.320   9.594  0.00  0.00    +0.000 A 
ATOM     28  N   UNL     1      45.394   4.195   8.906  0.00  0.00    +0.000 NA
BRANCH  23  30
ATOM     29  C   UNL     1      45.817   1.439   8.371  0.00  0.00    +0.000 C 
ATOM     30  O   UNL     1      44.633   1.971   8.963  0.00  0.00    +0.000 OA
ENDBRANCH  23  30
ENDBRANCH  17  26
ENDBRANCH   1  21
TORSDOF 5
ENDMDL
MODEL 6
REMARK VINA RESULT:    -6.294      1.487      2.228
REMARK INTER + INTRA:          -9.068
REMARK INTER:                  -9.119
REMARK INTRA:                   0.050
REMARK UNBOUND:                -0.935
REMARK  Name = 
REMARK  6 active torsions:
REMARK  status: ('A' for Active; 'I' for Inactive)
REMARK    1  A    between atoms: C_1  and  O_2
REMARK    2  A    between atoms: O_2  and  C_3
REMARK    3  A    between atoms: C_6  and  C_7
REMARK    4  A    between atoms: C_11  and  C_12
REMARK    5  A    between atoms: C_12  and  N_13
REMARK    6  A    between atoms: C_17  and  C_18
REMARK                            x       y       z     vdW  Elec       q    Type
REMARK                         _______ _______ _______ _____ _____    ______ ____
ROOT
ATOM      1  C   UNL     1      43.950   4.375  11.818  0.00  0.00    +0.000 C 
ATOM      2  C   UNL     1      43.392   3.977  13.174  0.00  0.00    +0.000 C 
ATOM      3  C   UNL     1      44.817   3.673  12.864  0.00  0.00    +0.000 C 
ENDROOT
BRANCH   1   4
ATOM      4  N   UNL     1      43.766   3.589  10.583  0.00  0.00    +0.000 N 
ATOM      5  C   UNL     1      44.731   3.449   9.585  0.00  0.00    +0.000 A 
ATOM      6  C   UNL     1      45.514   4.502   9.131  0.00  0.00    +0.000 A 
ATOM      7  C   UNL     1      46.349   4.310   8.027  0.00  0.00    +0.000 A 
ATOM      8  C   UNL     1      46.386   3.066   7.403  0.00  0.00    +0.000 A 
ATOM      9  C   UNL     1      45.611   2.057   7.946  0.00  0.00    +0.000 A 
ATOM     10  N   UNL     1      44.783   2.229   9.007  0.00  0.00    +0.000 NA
ATOM     11  H   UNL     1      43.388   2.654  10.739  0.00  0.00    +0.000 HD
BRANCH   8  12
ATOM     12  C   UNL     1      47.241   2.865   6.215  0.00  0.00    +0.000 C 
ATOM     13  N   UNL     1      48.550   2.524   6.416  0.00  0.00    +0.000 N 
ATOM     14  O   UNL     1      46.782   2.958   5.083  0.00  0.00    +0.000 OA
ATOM     15  H   UNL     1      48.926   2.224   7.304  0.00  0.00    +0.000 HD
ATOM     16  H   UNL     1      49.082   2.289   5.585  0.00  0.00    +0.000 HD
ENDBRANCH   8  12
ENDBRANCH   1   4
BRANCH   1  21
ATOM     17  C   UNL     1      45.719   7.667  11.711  0.00  0.00    +0.000 A 
ATOM     18  C   UNL     1      44.736   8.562  11.294  0.00  0.00    +0.000 A 
ATOM     19  C   UNL     1      43.465   8.082  11.006  0.00  0.00    +0.000 A 
ATOM     20  C   UNL     1      43.205   6.726  11.156  0.00  0.00    +0.000 A 
ATOM     21  C   UNL     1      44.220   5.866  11.581  0.00  0.00    +0.000 A 
ATOM     22  N   UNL     1      45.472   6.339  11.826  0.00  0.00    +0.000 NA
BRANCH  17  26
ATOM     23  C   UNL     1      49.502   8.895  13.148  0.00  0.00    +0.000 A 
ATOM     24  C   UNL     1      49.468   7.840  12.258  0.00  0.00    +0.000 A 
ATOM     25  C   UNL     1      48.228   7.438  11.750  0.00  0.00    +0.000 A 
ATOM     26  C   UNL     1      47.055   8.096  12.146  0.00  0.00    +0.000 A 
ATOM     27  C   UNL     1      47.223   9.155  13.037  0.00  0.00    +0.000 A 
ATOM     28  N   UNL     1      48.402   9.574  13.535  0.00  0.00    +0.000 NA
BRANCH  23  30
ATOM     29  C   UNL     1      51.803   8.902  12.811  0.00  0.00    +0.000 C 
ATOM     30  O   UNL     1      50.725   9.240  13.682  0.00  0.00    +0.000 OA
ENDBRANCH  23  30
ENDBRANCH  17  26
ENDBRANCH   1  21
TORSDOF 5
ENDMDL
MODEL 7
REMARK VINA RESULT:    -6.289      4.487      7.312
REMARK INTER + INTRA:          -9.062
REMARK INTER:                  -8.164
REMARK INTRA:                  -0.898
REMARK UNBOUND:                -0.935
REMARK  Name = 
REMARK  6 active torsions:
REMARK  status: ('A' for Active; 'I' for Inactive)
REMARK    1  A    between atoms: C_1  and  O_2
REMARK    2  A    between atoms: O_2  and  C_3
REMARK    3  A    between atoms: C_6  and  C_7
REMARK    4  A    between atoms: C_11  and  C_12
REMARK    5  A    between atoms: C_12  and  N_13
REMARK    6  A    between atoms: C_17  and  C_18
REMARK                            x       y       z     vdW  Elec       q    Type
REMARK                         _______ _______ _______ _____ _____    ______ ____
ROOT
ATOM      1  C   UNL     1      48.927   9.395  14.433  0.00  0.00    +0.000 C 
ATOM      2  C   UNL     1      50.320   9.355  13.829  0.00  0.00    +0.000 C 
ATOM      3  C   UNL     1      49.806  10.644  14.368  0.00  0.00    +0.000 C 
ENDROOT
BRANCH   1   4
ATOM      4  N   UNL     1      47.685   9.508  13.644  0.00  0.00    +0.000 N 
ATOM      5  C   UNL     1      47.014   8.427  13.069  0.00  0.00    +0.000 A 
ATOM      6  C   UNL     1      47.664   7.386  12.419  0.00  0.00    +0.000 A 
ATOM      7  C   UNL     1      46.910   6.423  11.743  0.00  0.00    +0.000 A 
ATOM      8  C   UNL     1      45.522   6.519  11.735  0.00  0.00    +0.000 A 
ATOM      9  C   UNL     1      44.951   7.560  12.446  0.00  0.00    +0.000 A 
ATOM     10  N   UNL     1      45.666   8.513  13.095  0.00  0.00    +0.000 NA
ATOM     11  H   UNL     1      46.966  10.081  14.083  0.00  0.00    +0.000 HD
BRANCH   8  12
ATOM     12  C   UNL     1      44.720   5.524  10.993  0.00  0.00    +0.000 C 
ATOM     13  N   UNL     1      43.445   5.866  10.634  0.00  0.00    +0.000 N 
ATOM     14  O   UNL     1      45.194   4.442  10.672  0.00  0.00    +0.000 OA
ATOM     15  H   UNL     1      43.078   6.806  10.678  0.00  0.00    +0.000 HD
ATOM     16  H   UNL     1      42.959   5.207  10.037  0.00  0.00    +0.000 HD
ENDBRANCH   8  12
ENDBRANCH   1   4
BRANCH   1  21
ATOM     17  C   UNL     1      48.968   6.848  17.169  0.00  0.00    +0.000 A 
ATOM     18  C   UNL     1      48.323   7.483  18.228  0.00  0.00    +0.000 A 
ATOM     19  C   UNL     1      47.886   8.792  18.065  0.00  0.00    +0.000 A 
ATOM     20  C   UNL     1      48.092   9.425  16.846  0.00  0.00    +0.000 A 
ATOM     21  C   UNL     1      48.741   8.748  15.811  0.00  0.00    +0.000 A 
ATOM     22  N   UNL     1      49.197   7.478  15.991  0.00  0.00    +0.000 NA
BRANCH  17  26
ATOM     23  C   UNL     1      50.039   2.757  17.100  0.00  0.00    +0.000 A 
ATOM     24  C   UNL     1      50.985   3.659  17.547  0.00  0.00    +0.000 A 
ATOM     25  C   UNL     1      50.639   5.013  17.604  0.00  0.00    +0.000 A 
ATOM     26  C   UNL     1      49.361   5.433  17.209  0.00  0.00    +0.000 A 
ATOM     27  C   UNL     1      48.491   4.426  16.793  0.00  0.00    +0.000 A 
ATOM     28  N   UNL     1      48.789   3.114  16.737  0.00  0.00    +0.000 NA
BRANCH  23  30
ATOM     29  C   UNL     1      51.739   1.217  17.483  0.00  0.00    +0.000 C 
ATOM     30  O   UNL     1      50.416   1.435  16.997  0.00  0.00    +0.000 OA
ENDBRANCH  23  30
ENDBRANCH  17  26
ENDBRANCH   1  21
TORSDOF 5
ENDMDL
MODEL 8
REMARK VINA RESULT:    -6.281      5.248      8.701
REMARK INTER + INTRA:          -9.052
REMARK INTER:                  -8.124
REMARK INTRA:                  -0.928
REMARK UNBOUND:                -0.935
REMARK  Name = 
REMARK  6 active torsions:
REMARK  status: ('A' for Active; 'I' for Inactive)
REMARK    1  A    between atoms: C_1  and  O_2
REMARK    2  A    between atoms: O_2  and  C_3
REMARK    3  A    between atoms: C_6  and  C_7
REMARK    4  A    between atoms: C_11  and  C_12
REMARK    5  A    between atoms: C_12  and  N_13
REMARK    6  A    between atoms: C_17  and  C_18
REMARK                            x       y       z     vdW  Elec       q    Type
REMARK                         _______ _______ _______ _____ _____    ______ ____
ROOT
ATOM      1  C   UNL     1      49.503   8.093  16.827  0.00  0.00    +0.000 C 
ATOM      2  C   UNL     1      48.274   8.604  17.560  0.00  0.00    +0.000 C 
ATOM      3  C   UNL     1      49.380   9.555  17.259  0.00  0.00    +0.000 C 
ENDROOT
BRANCH   1   4
ATOM      4  N   UNL     1      50.618   7.379  17.478  0.00  0.00    +0.000 N 
ATOM      5  C   UNL     1      50.811   5.997  17.421  0.00  0.00    +0.000 A 
ATOM      6  C   UNL     1      49.778   5.079  17.552  0.00  0.00    +0.000 A 
ATOM      7  C   UNL     1      50.077   3.716  17.635  0.00  0.00    +0.000 A 
ATOM      8  C   UNL     1      51.405   3.301  17.580  0.00  0.00    +0.000 A 
ATOM      9  C   UNL     1      52.371   4.276  17.401  0.00  0.00    +0.000 A 
ATOM     10  N   UNL     1      52.101   5.604  17.335  0.00  0.00    +0.000 NA
ATOM     11  H   UNL     1      51.533   7.796  17.306  0.00  0.00    +0.000 HD
BRANCH   8  12
ATOM     12  C   UNL     1      51.732   1.866  17.701  0.00  0.00    +0.000 C 
ATOM     13  N   UNL     1      52.773   1.511  18.513  0.00  0.00    +0.000 N 
ATOM     14  O   UNL     1      51.065   1.015  17.125  0.00  0.00    +0.000 OA
ATOM     15  H   UNL     1      53.215   2.136  19.172  0.00  0.00    +0.000 HD
ATOM     16  H   UNL     1      52.906   0.516  18.658  0.00  0.00    +0.000 HD
ENDBRANCH   8  12
ENDBRANCH   1   4
BRANCH   1  21
ATOM     17  C   UNL     1      48.170   6.710  13.619  0.00  0.00    +0.000 A 
ATOM     18  C   UNL     1      49.097   7.124  12.665  0.00  0.00    +0.000 A 
ATOM     19  C   UNL     1      50.175   7.903  13.066  0.00  0.00    +0.000 A 
ATOM     20  C   UNL     1      50.306   8.237  14.407  0.00  0.00    +0.000 A 
ATOM     21  C   UNL     1      49.354   7.797  15.329  0.00  0.00    +0.000 A 
ATOM     22  N   UNL     1      48.282   7.064  14.923  0.00  0.00    +0.000 NA
BRANCH  17  26
ATOM     23  C   UNL     1      44.986   4.016  12.921  0.00  0.00    +0.000 A 
ATOM     24  C   UNL     1      44.851   5.304  12.441  0.00  0.00    +0.000 A 
ATOM     25  C   UNL     1      45.906   6.201  12.637  0.00  0.00    +0.000 A 
ATOM     26  C   UNL     1      47.066   5.792  13.312  0.00  0.00    +0.000 A 
ATOM     27  C   UNL     1      47.087   4.463  13.734  0.00  0.00    +0.000 A 
ATOM     28  N   UNL     1      46.094   3.572  13.551  0.00  0.00    +0.000 NA
BRANCH  23  30
ATOM     29  C   UNL     1      43.479   3.088  11.413  0.00  0.00    +0.000 C 
ATOM     30  O   UNL     1      43.914   3.162  12.769  0.00  0.00    +0.000 OA
ENDBRANCH  23  30
ENDBRANCH  17  26
ENDBRANCH   1  21
TORSDOF 5
ENDMDL
