MODEL 1
REMARK VINA RESULT:    -7.613      0.000      0.000
REMARK INTER + INTRA:         -11.112
REMARK INTER:                 -10.283
REMARK INTRA:                  -0.828
REMARK UNBOUND:                -0.828
REMARK  Name = 
REMARK  6 active torsions:
REMARK  status: ('A' for Active; 'I' for Inactive)
REMARK    1  A    between atoms: C_2  and  C_3
REMARK    2  A    between atoms: C_6  and  N_7
REMARK    3  A    between atoms: N_7  and  C_8
REMARK    4  A    between atoms: C_8  and  C_9
REMARK    5  A    between atoms: C_13  and  O_14
REMARK    6  A    between atoms: O_14  and  C_15
REMARK                            x       y       z     vdW  Elec       q    Type
REMARK                         _______ _______ _______ _____ _____    ______ ____
ROOT
ATOM      1  C   UNL     1      43.826   5.105  11.309  0.00  0.00    +0.000 C 
ATOM      2  C   UNL     1      42.463   5.327  11.948  0.00  0.00    +0.000 C 
ATOM      3  C   UNL     1      43.002   6.331  10.985  0.00  0.00    +0.000 C 
ENDROOT
BRANCH   1   4
ATOM      4  C   UNL     1      45.088   5.254  12.149  0.00  0.00    +0.000 A 
ATOM      5  C   UNL     1      45.983   6.318  11.949  0.00  0.00    +0.000 A 
ATOM      6  C   UNL     1      47.248   6.316  12.536  0.00  0.00    +0.000 A 
ATOM      7  C   UNL     1      47.639   5.246  13.337  0.00  0.00    +0.000 A 
ATOM      8  C   UNL     1      46.751   4.205  13.606  0.00  0.00    +0.000 A 
ATOM      9  C   UNL     1      45.479   4.225  13.029  0.00  0.00    +0.000 A 
BRANCH   8  10
ATOM     10  O   UNL     1      47.264   3.195  14.369  0.00  0.00    +0.000 OA
BRANCH  10  11
ATOM     11  C   UNL     1      47.738   3.555  15.655  0.00  0.00    +0.000 C 
ATOM     12  F   UNL     1      46.690   3.914  16.439  0.00  0.00    +0.000 F 
ATOM     13  F   UNL     1      48.273   2.440  16.214  0.00  0.00    +0.000 F 
ENDBRANCH  10  11
ENDBRANCH   8  10
ENDBRANCH   1   4
BRANCH   1  14
ATOM     14  N   UNL     1      43.861   3.891  10.474  0.00  0.00    +0.000 N 
ATOM     15  H   UNL     1      43.546   3.058  10.971  0.00  0.00    +0.000 HD
BRANCH  14  19
ATOM     16  C   UNL     1      46.576   2.716   7.615  0.00  0.00    +0.000 A 
ATOM     17  N   UNL     1      46.334   4.039   7.686  0.00  0.00    +0.000 NA
ATOM     18  C   UNL     1      45.468   4.427   8.654  0.00  0.00    +0.000 A 
ATOM     19  C   UNL     1      44.861   3.568   9.548  0.00  0.00    +0.000 A 
ATOM     20  C   UNL     1      45.203   2.235   9.357  0.00  0.00    +0.000 A 
ATOM     21  N   UNL     1      46.053   1.774   8.418  0.00  0.00    +0.000 NA
BRANCH  16  23
ATOM     22  N   UNL     1      48.127   1.865   5.705  0.00  0.00    +0.000 NA
ATOM     23  C   UNL     1      47.434   2.251   6.555  0.00  0.00    +0.000 C 
ENDBRANCH  16  23
ENDBRANCH  14  19
ENDBRANCH   1  14
TORSDOF 6
ENDMDL
MODEL 2
REMARK VINA RESULT:    -7.366      4.466      6.822
REMARK INTER + INTRA:         -10.777
REMARK INTER:                 -10.027
REMARK INTRA:                  -0.751
REMARK UNBOUND:                -0.828
REMARK  Name = 
REMARK  6 active torsions:
REMARK  status: ('A' for Active; 'I' for Inactive)
REMARK    1  A    between atoms: C_2  and  C_3
REMARK    2  A    between atoms: C_6  and  N_7
REMARK    3  A    between atoms: N_7  and  C_8
REMARK    4  A    between atoms: C_8  and  C_9
REMARK    5  A    between atoms: C_13  and  O_14
REMARK    6  A    between atoms: O_14  and  C_15
REMARK                            x       y       z     vdW  Elec       q    Type
REMARK                         _______ _______ _______ _____ _____    ______ ____
ROOT
ATOM      1  C   UNL     1      44.773   5.374  11.478  0.00  0.00    +0.000 C 
ATOM      2  C   UNL     1      43.904   6.623  11.435  0.00  0.00    +0.000 C 
ATOM      3  C   UNL     1      43.519   5.481  12.315  0.00  0.00    +0.000 C 
ENDROOT
BRANCH   1   4
ATOM      4  C   UNL     1      44.797   4.429  10.285  0.00  0.00    +0.000 A 
ATOM      5  C   UNL     1      44.314   3.112  10.380  0.00  0.00    +0.000 A 
ATOM      6  C   UNL     1      44.565   2.178   9.375  0.00  0.00    +0.000 A 
ATOM      7  C   UNL     1      45.303   2.549   8.253  0.00  0.00    +0.000 A 
ATOM      8  C   UNL     1      45.742   3.863   8.099  0.00  0.00    +0.000 A 
ATOM      9  C   UNL     1      45.471   4.796   9.102  0.00  0.00    +0.000 A 
BRANCH   8  10
ATOM     10  O   UNL     1      46.491   4.091   6.980  0.00  0.00    +0.000 OA
BRANCH  10  11
ATOM     11  C   UNL     1      47.011   2.946   6.326  0.00  0.00    +0.000 C 
ATOM     12  F   UNL     1      47.099   3.187   4.993  0.00  0.00    +0.000 F 
ATOM     13  F   UNL     1      48.282   2.773   6.770  0.00  0.00    +0.000 F 
ENDBRANCH  10  11
ENDBRANCH   8  10
ENDBRANCH   1   4
BRANCH   1  14
ATOM     14  N   UNL     1      46.129   5.654  11.985  0.00  0.00    +0.000 N 
ATOM     15  H   UNL     1      46.803   5.832  11.241  0.00  0.00    +0.000 HD
BRANCH  14  19
ATOM     16  C   UNL     1      47.739   3.960  15.371  0.00  0.00    +0.000 A 
ATOM     17  N   UNL     1      47.215   3.101  14.477  0.00  0.00    +0.000 NA
ATOM     18  C   UNL     1      46.719   3.658  13.345  0.00  0.00    +0.000 A 
ATOM     19  C   UNL     1      46.743   5.010  13.067  0.00  0.00    +0.000 A 
ATOM     20  C   UNL     1      47.313   5.776  14.077  0.00  0.00    +0.000 A 
ATOM     21  N   UNL     1      47.824   5.294  15.227  0.00  0.00    +0.000 NA
BRANCH  16  23
ATOM     22  N   UNL     1      48.604   2.977  17.621  0.00  0.00    +0.000 NA
ATOM     23  C   UNL     1      48.212   3.418  16.619  0.00  0.00    +0.000 C 
ENDBRANCH  16  23
ENDBRANCH  14  19
ENDBRANCH   1  14
TORSDOF 6
ENDMDL
MODEL 3
REMARK VINA RESULT:    -7.325      2.384      2.866
REMARK INTER + INTRA:         -10.723
REMARK INTER:                  -9.973
REMARK INTRA:                  -0.750
REMARK UNBOUND:                -0.828
REMARK  Name = 
REMARK  6 active torsions:
REMARK  status: ('A' for Active; 'I' for Inactive)
REMARK    1  A    between atoms: C_2  and  C_3
REMARK    2  A    between atoms: C_6  and  N_7
REMARK    3  A    between atoms: N_7  and  C_8
REMARK    4  A    between atoms: C_8  and  C_9
REMARK    5  A    between atoms: C_13  and  O_14
REMARK    6  A    between atoms: O_14  and  C_15
REMARK                            x       y       z     vdW  Elec       q    Type
REMARK                         _______ _______ _______ _____ _____    ______ ____
ROOT
ATOM      1  C   UNL     1      43.914   5.001  11.194  0.00  0.00    +0.000 C 
ATOM      2  C   UNL     1      42.606   5.152  11.957  0.00  0.00    +0.000 C 
ATOM      3  C   UNL     1      43.119   6.285  11.132  0.00  0.00    +0.000 C 
ENDROOT
BRANCH   1   4
ATOM      4  C   UNL     1      45.234   4.975  11.953  0.00  0.00    +0.000 A 
ATOM      5  C   UNL     1      45.529   3.962  12.882  0.00  0.00    +0.000 A 
ATOM      6  C   UNL     1      46.613   4.075  13.751  0.00  0.00    +0.000 A 
ATOM      7  C   UNL     1      47.424   5.206  13.704  0.00  0.00    +0.000 A 
ATOM      8  C   UNL     1      47.197   6.199  12.753  0.00  0.00    +0.000 A 
ATOM      9  C   UNL     1      46.120   6.069  11.873  0.00  0.00    +0.000 A 
BRANCH   8  10
ATOM     10  O   UNL     1      48.033   7.276  12.835  0.00  0.00    +0.000 OA
BRANCH  10  11
ATOM     11  C   UNL     1      48.611   7.719  11.619  0.00  0.00    +0.000 C 
ATOM     12  F   UNL     1      48.504   9.070  11.532  0.00  0.00    +0.000 F 
ATOM     13  F   UNL     1      49.938   7.441  11.680  0.00  0.00    +0.000 F 
ENDBRANCH  10  11
ENDBRANCH   8  10
ENDBRANCH   1   4
BRANCH   1  14
ATOM     14  N   UNL     1      43.846   3.940  10.172  0.00  0.00    +0.000 N 
ATOM     15  H   UNL     1      43.330   3.119  10.487  0.00  0.00    +0.000 HD
BRANCH  14  19
ATOM     16  C   UNL     1      46.683   2.631   7.496  0.00  0.00    +0.000 A 
ATOM     17  N   UNL     1      46.457   3.957   7.509  0.00  0.00    +0.000 NA
ATOM     18  C   UNL     1      45.549   4.391   8.418  0.00  0.00    +0.000 A 
ATOM     19  C   UNL     1      44.887   3.572   9.310  0.00  0.00    +0.000 A 
ATOM     20  C   UNL     1      45.219   2.228   9.183  0.00  0.00    +0.000 A 
ATOM     21  N   UNL     1      46.108   1.724   8.305  0.00  0.00    +0.000 NA
BRANCH  16  23
ATOM     22  N   UNL     1      48.307   1.700   5.686  0.00  0.00    +0.000 NA
ATOM     23  C   UNL     1      47.587   2.117   6.498  0.00  0.00    +0.000 C 
ENDBRANCH  16  23
ENDBRANCH  14  19
ENDBRANCH   1  14
TORSDOF 6
ENDMDL
MODEL 4
REMARK VINA RESULT:    -7.085      4.492      6.754
REMARK INTER + INTRA:         -10.399
REMARK INTER:                  -9.681
REMARK INTRA:                  -0.718
REMARK UNBOUND:                -0.828
REMARK  Name = 
REMARK  6 active torsions:
REMARK  status: ('A' for Active; 'I' for Inactive)
REMARK    1  A    between atoms: C_2  and  C_3
REMARK    2  A    between atoms: C_6  and  N_7
REMARK    3  A    between atoms: N_7  and  C_8
REMARK    4  A    between atoms: C_8  and  C_9
REMARK    5  A    between atoms: C_13  and  O_14
REMARK    6  A    between atoms: O_14  and  C_15
REMARK                            x       y       z     vdW  Elec       q    Type
REMARK                         _______ _______ _______ _____ _____    ______ ____
ROOT
ATOM      1  C   UNL     1      44.048   5.259  11.309  0.00  0.00    +0.000 C 
ATOM      2  C   UNL     1      42.646   5.834  11.447  0.00  0.00    +0.000 C 
ATOM      3  C   UNL     1      43.141   4.839  12.443  0.00  0.00    +0.000 C 
ENDROOT
BRANCH   1   4
ATOM      4  C   UNL     1      44.354   4.272  10.191  0.00  0.00    +0.000 A 
ATOM      5  C   UNL     1      44.095   2.898  10.332  0.00  0.00    +0.000 A 
ATOM      6  C   UNL     1      44.601   1.971   9.420  0.00  0.00    +0.000 A 
ATOM      7  C   UNL     1      45.376   2.407   8.348  0.00  0.00    +0.000 A 
ATOM      8  C   UNL     1      45.598   3.768   8.144  0.00  0.00    +0.000 A 
ATOM      9  C   UNL     1      45.072   4.690   9.052  0.00  0.00    +0.000 A 
BRANCH   8  10
ATOM     10  O   UNL     1      46.407   4.066   7.085  0.00  0.00    +0.000 OA
BRANCH  10  11
ATOM     11  C   UNL     1      46.931   2.964   6.363  0.00  0.00    +0.000 C 
ATOM     12  F   UNL     1      46.964   3.265   5.040  0.00  0.00    +0.000 F 
ATOM     13  F   UNL     1      48.220   2.803   6.754  0.00  0.00    +0.000 F 
ENDBRANCH  10  11
ENDBRANCH   8  10
ENDBRANCH   1   4
BRANCH   1  14
ATOM     14  N   UNL     1      45.091   6.294  11.429  0.00  0.00    +0.000 N 
ATOM     15  H   UNL     1      45.396   6.657  10.526  0.00  0.00    +0.000 HD
BRANCH  14  19
ATOM     16  C   UNL     1      48.048   6.499  14.282  0.00  0.00    +0.000 A 
ATOM     17  N   UNL     1      47.511   5.282  14.081  0.00  0.00    +0.000 NA
ATOM     18  C   UNL     1      46.564   5.209  13.113  0.00  0.00    +0.000 A 
ATOM     19  C   UNL     1      46.154   6.278  12.342  0.00  0.00    +0.000 A 
ATOM     20  C   UNL     1      46.792   7.470  12.660  0.00  0.00    +0.000 A 
ATOM     21  N   UNL     1      47.740   7.619  13.606  0.00  0.00    +0.000 NA
BRANCH  16  23
ATOM     22  N   UNL     1      49.788   6.753  16.202  0.00  0.00    +0.000 NA
ATOM     23  C   UNL     1      49.006   6.638  15.349  0.00  0.00    +0.000 C 
ENDBRANCH  16  23
ENDBRANCH  14  19
ENDBRANCH   1  14
TORSDOF 6
ENDMDL
MODEL 5
REMARK VINA RESULT:    -6.480      4.379      6.471
REMARK INTER + INTRA:          -9.581
REMARK INTER:                  -9.267
REMARK INTRA:                  -0.315
REMARK UNBOUND:                -0.828
REMARK  Name = 
REMARK  6 active torsions:
REMARK  status: ('A' for Active; 'I' for Inactive)
REMARK    1  A    between atoms: C_2  and  C_3
REMARK    2  A    between atoms: C_6  and  N_7
REMARK    3  A    between atoms: N_7  and  C_8
REMARK    4  A    between atoms: C_8  and  C_9
REMARK    5  A    between atoms: C_13  and  O_14
REMARK    6  A    between atoms: O_14  and  C_15
REMARK                            x       y       z     vdW  Elec       q    Type
REMARK                         _______ _______ _______ _____ _____    ______ ____
ROOT
ATOM      1  C   UNL     1      44.420   4.500  11.550  0.00  0.00    +0.000 C 
ATOM      2  C   UNL     1      42.908   4.377  11.673  0.00  0.00    +0.000 C 
ATOM      3  C   UNL     1      43.793   3.459  12.449  0.00  0.00    +0.000 C 
ENDROOT
BRANCH   1   4
ATOM      4  C   UNL     1      45.112   4.060  10.267  0.00  0.00    +0.000 A 
ATOM      5  C   UNL     1      45.530   4.991   9.300  0.00  0.00    +0.000 A 
ATOM      6  C   UNL     1      45.929   4.579   8.028  0.00  0.00    +0.000 A 
ATOM      7  C   UNL     1      45.918   3.225   7.703  0.00  0.00    +0.000 A 
ATOM      8  C   UNL     1      45.569   2.272   8.659  0.00  0.00    +0.000 A 
ATOM      9  C   UNL     1      45.189   2.692   9.936  0.00  0.00    +0.000 A 
BRANCH   8  10
ATOM     10  O   UNL     1      45.556   0.983   8.207  0.00  0.00    +0.000 OA
BRANCH  10  11
ATOM     11  C   UNL     1      46.768   0.495   7.659  0.00  0.00    +0.000 C 
ATOM     12  F   UNL     1      46.735  -0.861   7.622  0.00  0.00    +0.000 F 
ATOM     13  F   UNL     1      46.823   0.914   6.369  0.00  0.00    +0.000 F 
ENDBRANCH  10  11
ENDBRANCH   8  10
ENDBRANCH   1   4
BRANCH   1  14
ATOM     14  N   UNL     1      44.916   5.806  12.022  0.00  0.00    +0.000 N 
ATOM     15  H   UNL     1      44.640   6.578  11.416  0.00  0.00    +0.000 HD
BRANCH  14  19
ATOM     16  C   UNL     1      48.505   6.823  13.756  0.00  0.00    +0.000 A 
ATOM     17  N   UNL     1      47.917   5.710  14.233  0.00  0.00    +0.000 NA
ATOM     18  C   UNL     1      46.754   5.355  13.634  0.00  0.00    +0.000 A 
ATOM     19  C   UNL     1      46.175   6.044  12.587  0.00  0.00    +0.000 A 
ATOM     20  C   UNL     1      46.890   7.170  12.199  0.00  0.00    +0.000 A 
ATOM     21  N   UNL     1      48.050   7.584  12.746  0.00  0.00    +0.000 NA
BRANCH  16  23
ATOM     22  N   UNL     1      50.679   7.632  14.938  0.00  0.00    +0.000 NA
ATOM     23  C   UNL     1      49.705   7.277  14.411  0.00  0.00    +0.000 C 
ENDBRANCH  16  23
ENDBRANCH  14  19
ENDBRANCH   1  14
TORSDOF 6
ENDMDL
MODEL 6
REMARK VINA RESULT:    -6.322      4.105      6.542
REMARK INTER + INTRA:          -9.368
REMARK INTER:                  -8.587
REMARK INTRA:                  -0.781
REMARK UNBOUND:                -0.828
REMARK  Name = 
REMARK  6 active torsions:
REMARK  status: ('A' for Active; 'I' for Inactive)
REMARK    1  A    between atoms: C_2  and  C_3
REMARK    2  A    between atoms: C_6  and  N_7
REMARK    3  A    between atoms: N_7  and  C_8
REMARK    4  A    between atoms: C_8  and  C_9
REMARK    5  A    between atoms: C_13  and  O_14
REMARK    6  A    between atoms: O_14  and  C_15
REMARK                            x       y       z     vdW  Elec       q    Type
REMARK                         _______ _______ _______ _____ _____    ______ ____
ROOT
ATOM      1  C   UNL     1      46.146   7.314  12.210  0.00  0.00    +0.000 C 
ATOM      2  C   UNL     1      46.415   8.748  11.778  0.00  0.00    +0.000 C 
ATOM      3  C   UNL     1      45.611   8.482  13.007  0.00  0.00    +0.000 C 
ENDROOT
BRANCH   1   4
ATOM      4  C   UNL     1      45.181   6.451  11.409  0.00  0.00    +0.000 A 
ATOM      5  C   UNL     1      43.841   6.286  11.802  0.00  0.00    +0.000 A 
ATOM      6  C   UNL     1      43.034   5.309  11.221  0.00  0.00    +0.000 A 
ATOM      7  C   UNL     1      43.556   4.479  10.231  0.00  0.00    +0.000 A 
ATOM      8  C   UNL     1      44.860   4.658   9.774  0.00  0.00    +0.000 A 
ATOM      9  C   UNL     1      45.656   5.652  10.349  0.00  0.00    +0.000 A 
BRANCH   8  10
ATOM     10  O   UNL     1      45.269   3.756   8.834  0.00  0.00    +0.000 OA
BRANCH  10  11
ATOM     11  C   UNL     1      45.334   2.402   9.246  0.00  0.00    +0.000 C 
ATOM     12  F   UNL     1      44.235   1.740   8.800  0.00  0.00    +0.000 F 
ATOM     13  F   UNL     1      46.400   1.841   8.622  0.00  0.00    +0.000 F 
ENDBRANCH  10  11
ENDBRANCH   8  10
ENDBRANCH   1   4
BRANCH   1  14
ATOM     14  N   UNL     1      47.386   6.588  12.543  0.00  0.00    +0.000 N 
ATOM     15  H   UNL     1      47.897   6.277  11.717  0.00  0.00    +0.000 HD
BRANCH  14  19
ATOM     16  C   UNL     1      47.690   4.147  15.840  0.00  0.00    +0.000 A 
ATOM     17  N   UNL     1      47.061   3.617  14.774  0.00  0.00    +0.000 NA
ATOM     18  C   UNL     1      46.995   4.410  13.675  0.00  0.00    +0.000 A 
ATOM     19  C   UNL     1      47.539   5.676  13.595  0.00  0.00    +0.000 A 
ATOM     20  C   UNL     1      48.156   6.092  14.768  0.00  0.00    +0.000 A 
ATOM     21  N   UNL     1      48.259   5.362  15.896  0.00  0.00    +0.000 NA
BRANCH  16  23
ATOM     22  N   UNL     1      47.753   2.745  18.033  0.00  0.00    +0.000 NA
ATOM     23  C   UNL     1      47.720   3.367  17.051  0.00  0.00    +0.000 C 
ENDBRANCH  16  23
ENDBRANCH  14  19
ENDBRANCH   1  14
TORSDOF 6
ENDMDL
MODEL 7
REMARK VINA RESULT:    -5.497      4.317      6.247
REMARK INTER + INTRA:          -8.254
REMARK INTER:                  -7.520
REMARK INTRA:                  -0.734
REMARK UNBOUND:                -0.828
REMARK  Name = 
REMARK  6 active torsions:
REMARK  status: ('A' for Active; 'I' for Inactive)
REMARK    1  A    between atoms: C_2  and  C_3
REMARK    2  A    between atoms: C_6  and  N_7
REMARK    3  A    between atoms: N_7  and  C_8
REMARK    4  A    between atoms: C_8  and  C_9
REMARK    5  A    between atoms: C_13  and  O_14
REMARK    6  A    between atoms: O_14  and  C_15
REMARK                            x       y       z     vdW  Elec       q    Type
REMARK                         _______ _______ _______ _____ _____    ______ ____
ROOT
ATOM      1  C   UNL     1      46.498   5.071  13.708  0.00  0.00    +0.000 C 
ATOM      2  C   UNL     1      46.570   4.300  15.019  0.00  0.00    +0.000 C 
ATOM      3  C   UNL     1      47.452   3.911  13.879  0.00  0.00    +0.000 C 
ENDROOT
BRANCH   1   4
ATOM      4  C   UNL     1      45.283   4.913  12.804  0.00  0.00    +0.000 A 
ATOM      5  C   UNL     1      44.119   5.677  12.995  0.00  0.00    +0.000 A 
ATOM      6  C   UNL     1      42.931   5.359  12.337  0.00  0.00    +0.000 A 
ATOM      7  C   UNL     1      42.889   4.267  11.473  0.00  0.00    +0.000 A 
ATOM      8  C   UNL     1      44.042   3.527  11.213  0.00  0.00    +0.000 A 
ATOM      9  C   UNL     1      45.231   3.864  11.862  0.00  0.00    +0.000 A 
BRANCH   8  10
ATOM     10  O   UNL     1      43.863   2.457  10.383  0.00  0.00    +0.000 OA
BRANCH  10  11
ATOM     11  C   UNL     1      44.471   2.543   9.106  0.00  0.00    +0.000 C 
ATOM     12  F   UNL     1      44.677   3.847   8.789  0.00  0.00    +0.000 F 
ATOM     13  F   UNL     1      45.699   1.973   9.206  0.00  0.00    +0.000 F 
ENDBRANCH  10  11
ENDBRANCH   8  10
ENDBRANCH   1   4
BRANCH   1  14
ATOM     14  N   UNL     1      46.883   6.485  13.869  0.00  0.00    +0.000 N 
ATOM     15  H   UNL     1      46.081   7.115  13.886  0.00  0.00    +0.000 HD
BRANCH  14  19
ATOM     16  C   UNL     1      50.319   8.040  12.226  0.00  0.00    +0.000 A 
ATOM     17  N   UNL     1      49.296   7.846  11.373  0.00  0.00    +0.000 NA
ATOM     18  C   UNL     1      48.152   7.369  11.923  0.00  0.00    +0.000 A 
ATOM     19  C   UNL     1      47.987   7.102  13.267  0.00  0.00    +0.000 A 
ATOM     20  C   UNL     1      49.123   7.348  14.028  0.00  0.00    +0.000 A 
ATOM     21  N   UNL     1      50.293   7.820  13.552  0.00  0.00    +0.000 NA
BRANCH  16  23
ATOM     22  N   UNL     1      52.594   8.832  11.238  0.00  0.00    +0.000 NA
ATOM     23  C   UNL     1      51.576   8.477  11.674  0.00  0.00    +0.000 C 
ENDBRANCH  16  23
ENDBRANCH  14  19
ENDBRANCH   1  14
TORSDOF 6
ENDMDL
MODEL 8
REMARK VINA RESULT:    -5.490      2.877      5.047
REMARK INTER + INTRA:          -8.244
REMARK INTER:                  -7.766
REMARK INTRA:                  -0.478
REMARK UNBOUND:                -0.828
REMARK  Name = 
REMARK  6 active torsions:
REMARK  status: ('A' for Active; 'I' for Inactive)
REMARK    1  A    between atoms: C_2  and  C_3
REMARK    2  A    between atoms: C_6  and  N_7
REMARK    3  A    between atoms: N_7  and  C_8
REMARK    4  A    between atoms: C_8  and  C_9
REMARK    5  A    between atoms: C_13  and  O_14
REMARK    6  A    between atoms: O_14  and  C_15
REMARK                            x       y       z     vdW  Elec       q    Type
REMARK                         _______ _______ _______ _____ _____    ______ ____
ROOT
ATOM      1  C   UNL     1      48.544   7.384  14.107  0.00  0.00    +0.000 C 
ATOM      2  C   UNL     1      48.869   8.822  13.727  0.00  0.00    +0.000 C 
ATOM      3  C   UNL     1      49.428   7.696  12.921  0.00  0.00    +0.000 C 
ENDROOT
BRANCH   1   4
ATOM      4  C   UNL     1      49.160   6.775  15.358  0.00  0.00    +0.000 A 
ATOM      5  C   UNL     1      50.503   7.004  15.703  0.00  0.00    +0.000 A 
ATOM      6  C   UNL     1      51.130   6.254  16.698  0.00  0.00    +0.000 A 
ATOM      7  C   UNL     1      50.421   5.259  17.366  0.00  0.00    +0.000 A 
ATOM      8  C   UNL     1      49.070   5.050  17.092  0.00  0.00    +0.000 A 
ATOM      9  C   UNL     1      48.445   5.819  16.108  0.00  0.00    +0.000 A 
BRANCH   8  10
ATOM     10  O   UNL     1      48.497   4.020  17.782  0.00  0.00    +0.000 OA
BRANCH  10  11
ATOM     11  C   UNL     1      47.876   3.010  17.005  0.00  0.00    +0.000 C 
ATOM     12  F   UNL     1      48.800   2.082  16.648  0.00  0.00    +0.000 F 
ATOM     13  F   UNL     1      46.984   2.376  17.807  0.00  0.00    +0.000 F 
ENDBRANCH  10  11
ENDBRANCH   8  10
ENDBRANCH   1   4
BRANCH   1  14
ATOM     14  N   UNL     1      47.103   7.092  14.005  0.00  0.00    +0.000 N 
ATOM     15  H   UNL     1      46.626   7.130  14.905  0.00  0.00    +0.000 HD
BRANCH  14  19
ATOM     16  C   UNL     1      45.135   4.237  11.791  0.00  0.00    +0.000 A 
ATOM     17  N   UNL     1      45.528   5.334  11.117  0.00  0.00    +0.000 NA
ATOM     18  C   UNL     1      46.209   6.256  11.840  0.00  0.00    +0.000 A 
ATOM     19  C   UNL     1      46.525   6.121  13.178  0.00  0.00    +0.000 A 
ATOM     20  C   UNL     1      46.057   4.940  13.742  0.00  0.00    +0.000 A 
ATOM     21  N   UNL     1      45.373   3.981  13.088  0.00  0.00    +0.000 NA
BRANCH  16  23
ATOM     22  N   UNL     1      43.703   2.476  10.515  0.00  0.00    +0.000 NA
ATOM     23  C   UNL     1      44.345   3.264  11.079  0.00  0.00    +0.000 C 
ENDBRANCH  16  23
ENDBRANCH  14  19
ENDBRANCH   1  14
TORSDOF 6
ENDMDL
MODEL 9
REMARK VINA RESULT:    -5.177      4.764      6.954
REMARK INTER + INTRA:          -7.821
REMARK INTER:                  -7.167
REMARK INTRA:                  -0.654
REMARK UNBOUND:                -0.828
REMARK  Name = 
REMARK  6 active torsions:
REMARK  status: ('A' for Active; 'I' for Inactive)
REMARK    1  A    between atoms: C_2  and  C_3
REMARK    2  A    between atoms: C_6  and  N_7
REMARK    3  A    between atoms: N_7  and  C_8
REMARK    4  A    between atoms: C_8  and  C_9
REMARK    5  A    between atoms: C_13  and  O_14
REMARK    6  A    between atoms: O_14  and  C_15
REMARK                            x       y       z     vdW  Elec       q    Type
REMARK                         _______ _______ _______ _____ _____    ______ ____
ROOT
ATOM      1  C   UNL     1      46.027   7.192  12.216  0.00  0.00    +0.000 C 
ATOM      2  C   UNL     1      46.055   8.590  11.615  0.00  0.00    +0.000 C 
ATOM      3  C   UNL     1      45.517   8.385  12.992  0.00  0.00    +0.000 C 
ENDROOT
BRANCH   1   4
ATOM      4  C   UNL     1      45.035   6.163  11.691  0.00  0.00    +0.000 A 
ATOM      5  C   UNL     1      43.710   6.113  12.158  0.00  0.00    +0.000 A 
ATOM      6  C   UNL     1      42.885   5.026  11.869  0.00  0.00    +0.000 A 
ATOM      7  C   UNL     1      43.373   3.970  11.104  0.00  0.00    +0.000 A 
ATOM      8  C   UNL     1      44.661   4.018  10.573  0.00  0.00    +0.000 A 
ATOM      9  C   UNL     1      45.474   5.118  10.852  0.00  0.00    +0.000 A 
BRANCH   8  10
ATOM     10  O   UNL     1      45.038   2.904   9.878  0.00  0.00    +0.000 OA
BRANCH  10  11
ATOM     11  C   UNL     1      45.027   3.011   8.465  0.00  0.00    +0.000 C 
ATOM     12  F   UNL     1      44.297   4.096   8.098  0.00  0.00    +0.000 F 
ATOM     13  F   UNL     1      46.302   3.255   8.070  0.00  0.00    +0.000 F 
ENDBRANCH  10  11
ENDBRANCH   8  10
ENDBRANCH   1   4
BRANCH   1  14
ATOM     14  N   UNL     1      47.378   6.624  12.372  0.00  0.00    +0.000 N 
ATOM     15  H   UNL     1      47.467   5.693  11.966  0.00  0.00    +0.000 HD
BRANCH  14  19
ATOM     16  C   UNL     1      49.802   6.647  15.697  0.00  0.00    +0.000 A 
ATOM     17  N   UNL     1      50.167   7.473  14.699  0.00  0.00    +0.000 NA
ATOM     18  C   UNL     1      49.346   7.492  13.620  0.00  0.00    +0.000 A 
ATOM     19  C   UNL     1      48.188   6.749  13.508  0.00  0.00    +0.000 A 
ATOM     20  C   UNL     1      47.936   5.942  14.612  0.00  0.00    +0.000 A 
ATOM     21  N   UNL     1      48.705   5.870  15.716  0.00  0.00    +0.000 NA
BRANCH  16  23
ATOM     22  N   UNL     1      51.389   6.466  17.752  0.00  0.00    +0.000 NA
ATOM     23  C   UNL     1      50.683   6.541  16.832  0.00  0.00    +0.000 C 
ENDBRANCH  16  23
ENDBRANCH  14  19
ENDBRANCH   1  14
TORSDOF 6
ENDMDL
