MODEL 1
REMARK VINA RESULT:    -8.439      0.000      0.000
REMARK INTER + INTRA:         -12.571
REMARK INTER:                 -11.399
REMARK INTRA:                  -1.172
REMARK UNBOUND:                -1.172
REMARK  Name = 
REMARK  6 active torsions:
REMARK  status: ('A' for Active; 'I' for Inactive)
REMARK    1  A    between atoms: C_2  and  C_25
REMARK    2  A    between atoms: N_3  and  C_4
REMARK    3  A    between atoms: C_4  and  C_5
REMARK    4  A    between atoms: C_8  and  C_9
REMARK    5  A    between atoms: C_9  and  N_10
REMARK    6  A    between atoms: C_11  and  C_13
REMARK                            x       y       z     vdW  Elec       q    Type
REMARK                         _______ _______ _______ _____ _____    ______ ____
ROOT
ATOM      1  C   UNL     1      44.880   5.180  10.548  0.00  0.00    +0.000 A 
ATOM      2  C   UNL     1      44.262   5.468  11.772  0.00  0.00    +0.000 A 
ATOM      3  C   UNL     1      44.830   6.388  12.661  0.00  0.00    +0.000 A 
ATOM      4  C   UNL     1      46.018   7.055  12.333  0.00  0.00    +0.000 A 
ATOM      5  C   UNL     1      46.641   6.759  11.113  0.00  0.00    +0.000 A 
ATOM      6  C   UNL     1      46.072   5.840  10.225  0.00  0.00    +0.000 A 
ENDROOT
BRANCH   1   7
ATOM      7  C   UNL     1      44.255   4.206   9.583  0.00  0.00    +0.000 C 
BRANCH   7  10
ATOM      8  O   UNL     1      45.431   1.715   9.121  0.00  0.00    +0.000 OA
ATOM      9  C   UNL     1      45.681   2.634   8.347  0.00  0.00    +0.000 C 
ATOM     10  N   UNL     1      45.157   3.894   8.502  0.00  0.00    +0.000 N 
ATOM     11  H   UNL     1      45.281   4.580   7.772  0.00  0.00    +0.000 HD
BRANCH   9  12
ATOM     12  C   UNL     1      46.532   2.465   7.201  0.00  0.00    +0.000 A 
ATOM     13  C   UNL     1      46.603   3.094   5.972  0.00  0.00    +0.000 A 
ATOM     14  C   UNL     1      47.664   2.465   5.295  0.00  0.00    +0.000 A 
ATOM     15  N   UNL     1      48.235   1.510   6.029  0.00  0.00    +0.000 NA
ATOM     16  N   UNL     1      47.543   1.536   7.180  0.00  0.00    +0.000 N 
ATOM     17  H   UNL     1      47.797   0.894   7.923  0.00  0.00    +0.000 HD
ENDBRANCH   9  12
ENDBRANCH   7  10
ENDBRANCH   1   7
BRANCH   4  18
ATOM     18  C   UNL     1      46.649   8.035  13.292  0.00  0.00    +0.000 C 
BRANCH  18  19
ATOM     19  N   UNL     1      47.220   7.351  14.424  0.00  0.00    +0.000 N 
ATOM     20  C   UNL     1      48.513   6.897  14.416  0.00  0.00    +0.000 C 
ATOM     21  O   UNL     1      49.269   7.094  13.468  0.00  0.00    +0.000 OA
ATOM     22  H   UNL     1      46.565   6.973  15.100  0.00  0.00    +0.000 HD
BRANCH  20  23
ATOM     23  C   UNL     1      48.969   6.217  15.636  0.00  0.00    +0.000 A 
ATOM     24  C   UNL     1      50.092   6.680  16.308  0.00  0.00    +0.000 A 
ATOM     25  S   UNL     1      50.429   5.826  17.746  0.00  0.00    +0.000 S 
ATOM     26  C   UNL     1      49.119   4.770  17.492  0.00  0.00    +0.000 A 
ATOM     27  N   UNL     1      48.846   3.769  18.371  0.00  0.00    +0.000 NA
ATOM     28  C   UNL     1      47.845   3.024  18.038  0.00  0.00    +0.000 A 
ATOM     29  N   UNL     1      47.092   3.191  16.904  0.00  0.00    +0.000 N 
ATOM     30  C   UNL     1      47.316   4.202  16.002  0.00  0.00    +0.000 A 
ATOM     31  O   UNL     1      46.604   4.339  15.012  0.00  0.00    +0.000 OA
ATOM     32  C   UNL     1      48.430   5.070  16.330  0.00  0.00    +0.000 A 
ATOM     33  H   UNL     1      46.320   2.573  16.700  0.00  0.00    +0.000 HD
ENDBRANCH  20  23
ENDBRANCH  18  19
ENDBRANCH   4  18
TORSDOF 6
ENDMDL
MODEL 2
REMARK VINA RESULT:    -7.698      1.365      1.485
REMARK INTER + INTRA:         -11.570
REMARK INTER:                 -10.839
REMARK INTRA:                  -0.731
REMARK UNBOUND:                -1.172
REMARK  Name = 
REMARK  6 active torsions:
REMARK  status: ('A' for Active; 'I' for Inactive)
REMARK    1  A    between atoms: C_2  and  C_25
REMARK    2  A    between atoms: N_3  and  C_4
REMARK    3  A    between atoms: C_4  and  C_5
REMARK    4  A    between atoms: C_8  and  C_9
REMARK    5  A    between atoms: C_9  and  N_10
REMARK    6  A    between atoms: C_11  and  C_13
REMARK                            x       y       z     vdW  Elec       q    Type
REMARK                         _______ _______ _______ _____ _____    ______ ____
ROOT
ATOM      1  C   UNL     1      44.704   4.903  11.517  0.00  0.00    +0.000 A 
ATOM      2  C   UNL     1      44.420   6.266  11.358  0.00  0.00    +0.000 A 
ATOM      3  C   UNL     1      45.221   7.238  11.970  0.00  0.00    +0.000 A 
ATOM      4  C   UNL     1      46.333   6.867  12.736  0.00  0.00    +0.000 A 
ATOM      5  C   UNL     1      46.610   5.502  12.903  0.00  0.00    +0.000 A 
ATOM      6  C   UNL     1      45.811   4.532  12.290  0.00  0.00    +0.000 A 
ENDROOT
BRANCH   1   7
ATOM      7  C   UNL     1      43.856   3.858  10.839  0.00  0.00    +0.000 C 
BRANCH   7  10
ATOM      8  O   UNL     1      44.898   4.416   8.309  0.00  0.00    +0.000 OA
ATOM      9  C   UNL     1      45.143   3.325   8.817  0.00  0.00    +0.000 C 
ATOM     10  N   UNL     1      44.664   2.961  10.052  0.00  0.00    +0.000 N 
ATOM     11  H   UNL     1      44.997   2.114  10.487  0.00  0.00    +0.000 HD
BRANCH   9  12
ATOM     12  C   UNL     1      45.966   2.342   8.168  0.00  0.00    +0.000 A 
ATOM     13  C   UNL     1      46.961   2.421   7.212  0.00  0.00    +0.000 A 
ATOM     14  C   UNL     1      47.379   1.094   7.002  0.00  0.00    +0.000 A 
ATOM     15  N   UNL     1      46.711   0.229   7.764  0.00  0.00    +0.000 NA
ATOM     16  N   UNL     1      45.872   1.006   8.469  0.00  0.00    +0.000 N 
ATOM     17  H   UNL     1      45.248   0.574   9.142  0.00  0.00    +0.000 HD
ENDBRANCH   9  12
ENDBRANCH   7  10
ENDBRANCH   1   7
BRANCH   4  18
ATOM     18  C   UNL     1      47.191   7.906  13.415  0.00  0.00    +0.000 C 
BRANCH  18  19
ATOM     19  N   UNL     1      47.587   7.467  14.729  0.00  0.00    +0.000 N 
ATOM     20  C   UNL     1      48.852   7.006  14.984  0.00  0.00    +0.000 C 
ATOM     21  O   UNL     1      49.729   6.992  14.123  0.00  0.00    +0.000 OA
ATOM     22  H   UNL     1      46.838   7.246  15.376  0.00  0.00    +0.000 HD
BRANCH  20  23
ATOM     23  C   UNL     1      49.124   6.590  16.367  0.00  0.00    +0.000 A 
ATOM     24  C   UNL     1      49.772   7.458  17.236  0.00  0.00    +0.000 A 
ATOM     25  S   UNL     1      49.931   6.847  18.821  0.00  0.00    +0.000 S 
ATOM     26  C   UNL     1      49.189   5.377  18.388  0.00  0.00    +0.000 A 
ATOM     27  N   UNL     1      49.020   4.383  19.301  0.00  0.00    +0.000 NA
ATOM     28  C   UNL     1      48.474   3.312  18.828  0.00  0.00    +0.000 A 
ATOM     29  N   UNL     1      48.083   3.146  17.524  0.00  0.00    +0.000 N 
ATOM     30  C   UNL     1      48.213   4.130  16.575  0.00  0.00    +0.000 A 
ATOM     31  O   UNL     1      47.827   3.957  15.424  0.00  0.00    +0.000 OA
ATOM     32  C   UNL     1      48.821   5.356  17.055  0.00  0.00    +0.000 A 
ATOM     33  H   UNL     1      47.662   2.282  17.217  0.00  0.00    +0.000 HD
ENDBRANCH  20  23
ENDBRANCH  18  19
ENDBRANCH   4  18
TORSDOF 6
ENDMDL
MODEL 3
REMARK VINA RESULT:    -7.551      2.407      2.844
REMARK INTER + INTRA:         -11.371
REMARK INTER:                 -10.392
REMARK INTRA:                  -0.979
REMARK UNBOUND:                -1.172
REMARK  Name = 
REMARK  6 active torsions:
REMARK  status: ('A' for Active; 'I' for Inactive)
REMARK    1  A    between atoms: C_2  and  C_25
REMARK    2  A    between atoms: N_3  and  C_4
REMARK    3  A    between atoms: C_4  and  C_5
REMARK    4  A    between atoms: C_8  and  C_9
REMARK    5  A    between atoms: C_9  and  N_10
REMARK    6  A    between atoms: C_11  and  C_13
REMARK                            x       y       z     vdW  Elec       q    Type
REMARK                         _______ _______ _______ _____ _____    ______ ____
ROOT
ATOM      1  C   UNL     1      45.168   4.847  11.561  0.00  0.00    +0.000 A 
ATOM      2  C   UNL     1      45.454   6.160  11.164  0.00  0.00    +0.000 A 
ATOM      3  C   UNL     1      46.339   6.953  11.903  0.00  0.00    +0.000 A 
ATOM      4  C   UNL     1      46.972   6.442  13.044  0.00  0.00    +0.000 A 
ATOM      5  C   UNL     1      46.676   5.132  13.447  0.00  0.00    +0.000 A 
ATOM      6  C   UNL     1      45.793   4.340  12.707  0.00  0.00    +0.000 A 
ENDROOT
BRANCH   1   7
ATOM      7  C   UNL     1      44.232   3.986  10.752  0.00  0.00    +0.000 C 
BRANCH   7  10
ATOM      8  O   UNL     1      45.128   4.499   8.156  0.00  0.00    +0.000 OA
ATOM      9  C   UNL     1      45.373   3.405   8.656  0.00  0.00    +0.000 C 
ATOM     10  N   UNL     1      44.963   3.062   9.921  0.00  0.00    +0.000 N 
ATOM     11  H   UNL     1      45.298   2.207  10.340  0.00  0.00    +0.000 HD
BRANCH   9  12
ATOM     12  C   UNL     1      46.124   2.394   7.964  0.00  0.00    +0.000 A 
ATOM     13  C   UNL     1      47.009   2.432   6.902  0.00  0.00    +0.000 A 
ATOM     14  C   UNL     1      47.407   1.097   6.704  0.00  0.00    +0.000 A 
ATOM     15  N   UNL     1      46.829   0.265   7.571  0.00  0.00    +0.000 NA
ATOM     16  N   UNL     1      46.069   1.072   8.329  0.00  0.00    +0.000 N 
ATOM     17  H   UNL     1      45.523   0.670   9.084  0.00  0.00    +0.000 HD
ENDBRANCH   9  12
ENDBRANCH   7  10
ENDBRANCH   1   7
BRANCH   4  18
ATOM     18  C   UNL     1      47.912   7.295  13.858  0.00  0.00    +0.000 C 
BRANCH  18  19
ATOM     19  N   UNL     1      47.892   6.904  15.245  0.00  0.00    +0.000 N 
ATOM     20  C   UNL     1      49.034   6.535  15.908  0.00  0.00    +0.000 C 
ATOM     21  O   UNL     1      50.140   6.570  15.373  0.00  0.00    +0.000 OA
ATOM     22  H   UNL     1      46.990   6.641  15.627  0.00  0.00    +0.000 HD
BRANCH  20  23
ATOM     23  C   UNL     1      48.872   6.160  17.318  0.00  0.00    +0.000 A 
ATOM     24  C   UNL     1      49.205   4.878  17.736  0.00  0.00    +0.000 A 
ATOM     25  S   UNL     1      49.035   4.641  19.417  0.00  0.00    +0.000 S 
ATOM     26  C   UNL     1      48.454   6.225  19.638  0.00  0.00    +0.000 A 
ATOM     27  N   UNL     1      48.100   6.675  20.872  0.00  0.00    +0.000 NA
ATOM     28  C   UNL     1      47.645   7.884  20.889  0.00  0.00    +0.000 A 
ATOM     29  N   UNL     1      47.512   8.683  19.783  0.00  0.00    +0.000 N 
ATOM     30  C   UNL     1      47.878   8.279  18.522  0.00  0.00    +0.000 A 
ATOM     31  O   UNL     1      47.771   9.030  17.558  0.00  0.00    +0.000 OA
ATOM     32  C   UNL     1      48.397   6.927  18.448  0.00  0.00    +0.000 A 
ATOM     33  H   UNL     1      47.148   9.621  19.862  0.00  0.00    +0.000 HD
ENDBRANCH  20  23
ENDBRANCH  18  19
ENDBRANCH   4  18
TORSDOF 6
ENDMDL
MODEL 4
REMARK VINA RESULT:    -7.362      4.577      9.530
REMARK INTER + INTRA:         -11.117
REMARK INTER:                 -10.325
REMARK INTRA:                  -0.791
REMARK UNBOUND:                -1.172
REMARK  Name = 
REMARK  6 active torsions:
REMARK  status: ('A' for Active; 'I' for Inactive)
REMARK    1  A    between atoms: C_2  and  C_25
REMARK    2  A    between atoms: N_3  and  C_4
REMARK    3  A    between atoms: C_4  and  C_5
REMARK    4  A    between atoms: C_8  and  C_9
REMARK    5  A    between atoms: C_9  and  N_10
REMARK    6  A    between atoms: C_11  and  C_13
REMARK                            x       y       z     vdW  Elec       q    Type
REMARK                         _______ _______ _______ _____ _____    ______ ____
ROOT
ATOM      1  C   UNL     1      51.392   3.035  17.747  0.00  0.00    +0.000 A 
ATOM      2  C   UNL     1      50.704   4.209  18.081  0.00  0.00    +0.000 A 
ATOM      3  C   UNL     1      49.336   4.336  17.815  0.00  0.00    +0.000 A 
ATOM      4  C   UNL     1      48.622   3.282  17.229  0.00  0.00    +0.000 A 
ATOM      5  C   UNL     1      49.314   2.111  16.887  0.00  0.00    +0.000 A 
ATOM      6  C   UNL     1      50.680   1.985  17.153  0.00  0.00    +0.000 A 
ENDROOT
BRANCH   1   7
ATOM      7  C   UNL     1      52.860   2.891  18.053  0.00  0.00    +0.000 C 
BRANCH   7  10
ATOM      8  O   UNL     1      54.392   0.897  16.837  0.00  0.00    +0.000 OA
ATOM      9  C   UNL     1      53.923   0.679  17.950  0.00  0.00    +0.000 C 
ATOM     10  N   UNL     1      53.150   1.597  18.619  0.00  0.00    +0.000 N 
ATOM     11  H   UNL     1      52.897   1.430  19.582  0.00  0.00    +0.000 HD
BRANCH   9  12
ATOM     12  C   UNL     1      54.157  -0.550  18.657  0.00  0.00    +0.000 A 
ATOM     13  C   UNL     1      55.274  -1.098  19.259  0.00  0.00    +0.000 A 
ATOM     14  C   UNL     1      54.844  -2.331  19.784  0.00  0.00    +0.000 A 
ATOM     15  N   UNL     1      53.552  -2.559  19.543  0.00  0.00    +0.000 NA
ATOM     16  N   UNL     1      53.156  -1.465  18.872  0.00  0.00    +0.000 N 
ATOM     17  H   UNL     1      52.188  -1.391  18.576  0.00  0.00    +0.000 HD
ENDBRANCH   9  12
ENDBRANCH   7  10
ENDBRANCH   1   7
BRANCH   4  18
ATOM     18  C   UNL     1      47.152   3.415  16.923  0.00  0.00    +0.000 C 
BRANCH  18  19
ATOM     19  N   UNL     1      46.921   4.452  15.948  0.00  0.00    +0.000 N 
ATOM     20  C   UNL     1      47.036   4.215  14.603  0.00  0.00    +0.000 C 
ATOM     21  O   UNL     1      47.286   3.099  14.155  0.00  0.00    +0.000 OA
ATOM     22  H   UNL     1      46.953   5.407  16.289  0.00  0.00    +0.000 HD
BRANCH  20  23
ATOM     23  C   UNL     1      46.774   5.359  13.720  0.00  0.00    +0.000 A 
ATOM     24  C   UNL     1      47.770   6.298  13.489  0.00  0.00    +0.000 A 
ATOM     25  S   UNL     1      47.323   7.511  12.375  0.00  0.00    +0.000 S 
ATOM     26  C   UNL     1      45.761   6.856  12.204  0.00  0.00    +0.000 A 
ATOM     27  N   UNL     1      44.844   7.437  11.385  0.00  0.00    +0.000 NA
ATOM     28  C   UNL     1      43.691   6.855  11.377  0.00  0.00    +0.000 A 
ATOM     29  N   UNL     1      43.373   5.745  12.116  0.00  0.00    +0.000 N 
ATOM     30  C   UNL     1      44.273   5.112  12.937  0.00  0.00    +0.000 A 
ATOM     31  O   UNL     1      43.963   4.102  13.562  0.00  0.00    +0.000 OA
ATOM     32  C   UNL     1      45.586   5.725  12.982  0.00  0.00    +0.000 A 
ATOM     33  H   UNL     1      42.451   5.337  12.066  0.00  0.00    +0.000 HD
ENDBRANCH  20  23
ENDBRANCH  18  19
ENDBRANCH   4  18
TORSDOF 6
ENDMDL
MODEL 5
REMARK VINA RESULT:    -7.105      3.785      4.978
REMARK INTER + INTRA:         -10.769
REMARK INTER:                  -9.899
REMARK INTRA:                  -0.869
REMARK UNBOUND:                -1.172
REMARK  Name = 
REMARK  6 active torsions:
REMARK  status: ('A' for Active; 'I' for Inactive)
REMARK    1  A    between atoms: C_2  and  C_25
REMARK    2  A    between atoms: N_3  and  C_4
REMARK    3  A    between atoms: C_4  and  C_5
REMARK    4  A    between atoms: C_8  and  C_9
REMARK    5  A    between atoms: C_9  and  N_10
REMARK    6  A    between atoms: C_11  and  C_13
REMARK                            x       y       z     vdW  Elec       q    Type
REMARK                         _______ _______ _______ _____ _____    ______ ____
ROOT
ATOM      1  C   UNL     1      44.588   4.538  11.616  0.00  0.00    +0.000 A 
ATOM      2  C   UNL     1      43.967   5.741  11.256  0.00  0.00    +0.000 A 
ATOM      3  C   UNL     1      44.471   6.967  11.706  0.00  0.00    +0.000 A 
ATOM      4  C   UNL     1      45.618   7.016  12.509  0.00  0.00    +0.000 A 
ATOM      5  C   UNL     1      46.232   5.810  12.877  0.00  0.00    +0.000 A 
ATOM      6  C   UNL     1      45.729   4.586  12.427  0.00  0.00    +0.000 A 
ENDROOT
BRANCH   1   7
ATOM      7  C   UNL     1      44.059   3.219  11.113  0.00  0.00    +0.000 C 
BRANCH   7  10
ATOM      8  O   UNL     1      44.347   4.002   8.447  0.00  0.00    +0.000 OA
ATOM      9  C   UNL     1      45.044   3.083   8.868  0.00  0.00    +0.000 C 
ATOM     10  N   UNL     1      44.962   2.625  10.160  0.00  0.00    +0.000 N 
ATOM     11  H   UNL     1      45.643   1.961  10.499  0.00  0.00    +0.000 HD
BRANCH   9  12
ATOM     12  C   UNL     1      46.017   2.418   8.046  0.00  0.00    +0.000 A 
ATOM     13  C   UNL     1      46.894   2.858   7.072  0.00  0.00    +0.000 A 
ATOM     14  C   UNL     1      47.585   1.707   6.648  0.00  0.00    +0.000 A 
ATOM     15  N   UNL     1      47.189   0.613   7.300  0.00  0.00    +0.000 NA
ATOM     16  N   UNL     1      46.251   1.069   8.147  0.00  0.00    +0.000 N 
ATOM     17  H   UNL     1      45.793   0.415   8.773  0.00  0.00    +0.000 HD
ENDBRANCH   9  12
ENDBRANCH   7  10
ENDBRANCH   1   7
BRANCH   4  18
ATOM     18  C   UNL     1      46.157   8.331  13.014  0.00  0.00    +0.000 C 
BRANCH  18  19
ATOM     19  N   UNL     1      47.332   8.722  12.276  0.00  0.00    +0.000 N 
ATOM     20  C   UNL     1      48.141   9.745  12.698  0.00  0.00    +0.000 C 
ATOM     21  O   UNL     1      47.940  10.345  13.752  0.00  0.00    +0.000 OA
ATOM     22  H   UNL     1      47.381   8.417  11.310  0.00  0.00    +0.000 HD
BRANCH  20  23
ATOM     23  C   UNL     1      49.305  10.041  11.853  0.00  0.00    +0.000 A 
ATOM     24  C   UNL     1      49.523  11.336  11.403  0.00  0.00    +0.000 A 
ATOM     25  S   UNL     1      50.963  11.516  10.505  0.00  0.00    +0.000 S 
ATOM     26  C   UNL     1      51.318   9.857  10.637  0.00  0.00    +0.000 A 
ATOM     27  N   UNL     1      52.434   9.332  10.065  0.00  0.00    +0.000 NA
ATOM     28  C   UNL     1      52.561   8.055  10.215  0.00  0.00    +0.000 A 
ATOM     29  N   UNL     1      51.672   7.257  10.886  0.00  0.00    +0.000 N 
ATOM     30  C   UNL     1      50.545   7.746  11.499  0.00  0.00    +0.000 A 
ATOM     31  O   UNL     1      49.784   7.006  12.116  0.00  0.00    +0.000 OA
ATOM     32  C   UNL     1      50.354   9.177  11.361  0.00  0.00    +0.000 A 
ATOM     33  H   UNL     1      51.828   6.263  10.968  0.00  0.00    +0.000 HD
ENDBRANCH  20  23
ENDBRANCH  18  19
ENDBRANCH   4  18
TORSDOF 6
ENDMDL
MODEL 6
REMARK VINA RESULT:    -6.760      3.664      8.301
REMARK INTER + INTRA:         -10.303
REMARK INTER:                  -9.424
REMARK INTRA:                  -0.879
REMARK UNBOUND:                -1.172
REMARK  Name = 
REMARK  6 active torsions:
REMARK  status: ('A' for Active; 'I' for Inactive)
REMARK    1  A    between atoms: C_2  and  C_25
REMARK    2  A    between atoms: N_3  and  C_4
REMARK    3  A    between atoms: C_4  and  C_5
REMARK    4  A    between atoms: C_8  and  C_9
REMARK    5  A    between atoms: C_9  and  N_10
REMARK    6  A    between atoms: C_11  and  C_13
REMARK                            x       y       z     vdW  Elec       q    Type
REMARK                         _______ _______ _______ _____ _____    ______ ____
ROOT
ATOM      1  C   UNL     1      49.896   6.891  16.054  0.00  0.00    +0.000 A 
ATOM      2  C   UNL     1      50.572   7.838  15.273  0.00  0.00    +0.000 A 
ATOM      3  C   UNL     1      50.095   8.191  14.006  0.00  0.00    +0.000 A 
ATOM      4  C   UNL     1      48.919   7.619  13.501  0.00  0.00    +0.000 A 
ATOM      5  C   UNL     1      48.249   6.665  14.279  0.00  0.00    +0.000 A 
ATOM      6  C   UNL     1      48.725   6.313  15.546  0.00  0.00    +0.000 A 
ENDROOT
BRANCH   1   7
ATOM      7  C   UNL     1      50.397   6.528  17.428  0.00  0.00    +0.000 C 
BRANCH   7  10
ATOM      8  O   UNL     1      49.391   4.199  18.595  0.00  0.00    +0.000 OA
ATOM      9  C   UNL     1      50.472   4.145  18.015  0.00  0.00    +0.000 C 
ATOM     10  N   UNL     1      51.048   5.242  17.421  0.00  0.00    +0.000 N 
ATOM     11  H   UNL     1      51.867   5.125  16.844  0.00  0.00    +0.000 HD
BRANCH   9  12
ATOM     12  C   UNL     1      51.220   2.923  17.893  0.00  0.00    +0.000 A 
ATOM     13  C   UNL     1      51.016   1.754  17.185  0.00  0.00    +0.000 A 
ATOM     14  C   UNL     1      52.122   0.939  17.488  0.00  0.00    +0.000 A 
ATOM     15  N   UNL     1      52.974   1.536  18.323  0.00  0.00    +0.000 NA
ATOM     16  N   UNL     1      52.414   2.737  18.544  0.00  0.00    +0.000 N 
ATOM     17  H   UNL     1      52.887   3.397  19.153  0.00  0.00    +0.000 HD
ENDBRANCH   9  12
ENDBRANCH   7  10
ENDBRANCH   1   7
BRANCH   4  18
ATOM     18  C   UNL     1      48.407   7.979  12.129  0.00  0.00    +0.000 C 
BRANCH  18  19
ATOM     19  N   UNL     1      47.658   6.889  11.557  0.00  0.00    +0.000 N 
ATOM     20  C   UNL     1      46.297   6.948  11.409  0.00  0.00    +0.000 C 
ATOM     21  O   UNL     1      45.650   7.951  11.704  0.00  0.00    +0.000 OA
ATOM     22  H   UNL     1      48.121   5.987  11.533  0.00  0.00    +0.000 HD
BRANCH  20  23
ATOM     23  C   UNL     1      45.658   5.768  10.812  0.00  0.00    +0.000 A 
ATOM     24  C   UNL     1      45.787   5.524   9.451  0.00  0.00    +0.000 A 
ATOM     25  S   UNL     1      45.054   4.070   8.944  0.00  0.00    +0.000 S 
ATOM     26  C   UNL     1      44.488   3.742  10.515  0.00  0.00    +0.000 A 
ATOM     27  N   UNL     1      43.756   2.626  10.776  0.00  0.00    +0.000 NA
ATOM     28  C   UNL     1      43.363   2.521  12.002  0.00  0.00    +0.000 A 
ATOM     29  N   UNL     1      43.637   3.431  12.990  0.00  0.00    +0.000 N 
ATOM     30  C   UNL     1      44.391   4.559  12.777  0.00  0.00    +0.000 A 
ATOM     31  O   UNL     1      44.640   5.339  13.691  0.00  0.00    +0.000 OA
ATOM     32  C   UNL     1      44.858   4.726  11.414  0.00  0.00    +0.000 A 
ATOM     33  H   UNL     1      43.300   3.291  13.931  0.00  0.00    +0.000 HD
ENDBRANCH  20  23
ENDBRANCH  18  19
ENDBRANCH   4  18
TORSDOF 6
ENDMDL
MODEL 7
REMARK VINA RESULT:    -6.216      3.695      5.040
REMARK INTER + INTRA:          -9.568
REMARK INTER:                  -8.691
REMARK INTRA:                  -0.878
REMARK UNBOUND:                -1.172
REMARK  Name = 
REMARK  6 active torsions:
REMARK  status: ('A' for Active; 'I' for Inactive)
REMARK    1  A    between atoms: C_2  and  C_25
REMARK    2  A    between atoms: N_3  and  C_4
REMARK    3  A    between atoms: C_4  and  C_5
REMARK    4  A    between atoms: C_8  and  C_9
REMARK    5  A    between atoms: C_9  and  N_10
REMARK    6  A    between atoms: C_11  and  C_13
REMARK                            x       y       z     vdW  Elec       q    Type
REMARK                         _______ _______ _______ _____ _____    ______ ____
ROOT
ATOM      1  C   UNL     1      48.383   7.225  12.955  0.00  0.00    +0.000 A 
ATOM      2  C   UNL     1      48.109   6.600  14.178  0.00  0.00    +0.000 A 
ATOM      3  C   UNL     1      48.914   6.837  15.298  0.00  0.00    +0.000 A 
ATOM      4  C   UNL     1      49.999   7.720  15.222  0.00  0.00    +0.000 A 
ATOM      5  C   UNL     1      50.279   8.337  13.994  0.00  0.00    +0.000 A 
ATOM      6  C   UNL     1      49.473   8.101  12.876  0.00  0.00    +0.000 A 
ENDROOT
BRANCH   1   7
ATOM      7  C   UNL     1      47.502   6.987  11.756  0.00  0.00    +0.000 C 
BRANCH   7  10
ATOM      8  O   UNL     1      45.868   5.761   9.850  0.00  0.00    +0.000 OA
ATOM      9  C   UNL     1      45.757   5.421  11.025  0.00  0.00    +0.000 C 
ATOM     10  N   UNL     1      46.511   5.976  12.030  0.00  0.00    +0.000 N 
ATOM     11  H   UNL     1      46.483   5.575  12.955  0.00  0.00    +0.000 HD
BRANCH   9  12
ATOM     12  C   UNL     1      44.839   4.398  11.446  0.00  0.00    +0.000 A 
ATOM     13  C   UNL     1      43.864   3.672  10.788  0.00  0.00    +0.000 A 
ATOM     14  C   UNL     1      43.316   2.819  11.765  0.00  0.00    +0.000 A 
ATOM     15  N   UNL     1      43.895   2.979  12.955  0.00  0.00    +0.000 NA
ATOM     16  N   UNL     1      44.819   3.929  12.736  0.00  0.00    +0.000 N 
ATOM     17  H   UNL     1      45.411   4.228  13.503  0.00  0.00    +0.000 HD
ENDBRANCH   9  12
ENDBRANCH   7  10
ENDBRANCH   1   7
BRANCH   4  18
ATOM     18  C   UNL     1      50.885   7.968  16.418  0.00  0.00    +0.000 C 
BRANCH  18  19
ATOM     19  N   UNL     1      51.650   6.791  16.744  0.00  0.00    +0.000 N 
ATOM     20  C   UNL     1      51.354   6.018  17.836  0.00  0.00    +0.000 C 
ATOM     21  O   UNL     1      50.391   6.255  18.563  0.00  0.00    +0.000 OA
ATOM     22  H   UNL     1      52.566   6.716  16.316  0.00  0.00    +0.000 HD
BRANCH  20  23
ATOM     23  C   UNL     1      52.213   4.847  18.053  0.00  0.00    +0.000 A 
ATOM     24  C   UNL     1      53.519   5.018  18.492  0.00  0.00    +0.000 A 
ATOM     25  S   UNL     1      54.344   3.551  18.772  0.00  0.00    +0.000 S 
ATOM     26  C   UNL     1      53.004   2.635  18.260  0.00  0.00    +0.000 A 
ATOM     27  N   UNL     1      53.051   1.276  18.241  0.00  0.00    +0.000 NA
ATOM     28  C   UNL     1      51.977   0.711  17.799  0.00  0.00    +0.000 A 
ATOM     29  N   UNL     1      50.860   1.383  17.375  0.00  0.00    +0.000 N 
ATOM     30  C   UNL     1      50.759   2.752  17.399  0.00  0.00    +0.000 A 
ATOM     31  O   UNL     1      49.733   3.321  17.038  0.00  0.00    +0.000 OA
ATOM     32  C   UNL     1      51.940   3.437  17.888  0.00  0.00    +0.000 A 
ATOM     33  H   UNL     1      50.051   0.882  17.040  0.00  0.00    +0.000 HD
ENDBRANCH  20  23
ENDBRANCH  18  19
ENDBRANCH   4  18
TORSDOF 6
ENDMDL
MODEL 8
REMARK VINA RESULT:    -6.206      1.683      2.325
REMARK INTER + INTRA:          -9.554
REMARK INTER:                  -8.696
REMARK INTRA:                  -0.858
REMARK UNBOUND:                -1.172
REMARK  Name = 
REMARK  6 active torsions:
REMARK  status: ('A' for Active; 'I' for Inactive)
REMARK    1  A    between atoms: C_2  and  C_25
REMARK    2  A    between atoms: N_3  and  C_4
REMARK    3  A    between atoms: C_4  and  C_5
REMARK    4  A    between atoms: C_8  and  C_9
REMARK    5  A    between atoms: C_9  and  N_10
REMARK    6  A    between atoms: C_11  and  C_13
REMARK                            x       y       z     vdW  Elec       q    Type
REMARK                         _______ _______ _______ _____ _____    ______ ____
ROOT
ATOM      1  C   UNL     1      45.627   6.768  11.802  0.00  0.00    +0.000 A 
ATOM      2  C   UNL     1      46.868   6.225  12.157  0.00  0.00    +0.000 A 
ATOM      3  C   UNL     1      47.780   6.964  12.920  0.00  0.00    +0.000 A 
ATOM      4  C   UNL     1      47.459   8.255  13.361  0.00  0.00    +0.000 A 
ATOM      5  C   UNL     1      46.220   8.801  12.997  0.00  0.00    +0.000 A 
ATOM      6  C   UNL     1      45.310   8.062  12.236  0.00  0.00    +0.000 A 
ENDROOT
BRANCH   1   7
ATOM      7  C   UNL     1      44.637   5.964  11.000  0.00  0.00    +0.000 C 
BRANCH   7  10
ATOM      8  O   UNL     1      43.375   4.147   9.294  0.00  0.00    +0.000 OA
ATOM      9  C   UNL     1      44.595   4.087   9.416  0.00  0.00    +0.000 C 
ATOM     10  N   UNL     1      45.298   4.932  10.240  0.00  0.00    +0.000 N 
ATOM     11  H   UNL     1      46.306   4.936  10.209  0.00  0.00    +0.000 HD
BRANCH   9  12
ATOM     12  C   UNL     1      45.395   3.136   8.693  0.00  0.00    +0.000 A 
ATOM     13  C   UNL     1      46.271   3.250   7.630  0.00  0.00    +0.000 A 
ATOM     14  C   UNL     1      46.737   1.943   7.394  0.00  0.00    +0.000 A 
ATOM     15  N   UNL     1      46.207   1.058   8.239  0.00  0.00    +0.000 NA
ATOM     16  N   UNL     1      45.409   1.804   9.022  0.00  0.00    +0.000 N 
ATOM     17  H   UNL     1      44.889   1.353   9.767  0.00  0.00    +0.000 HD
ENDBRANCH   9  12
ENDBRANCH   7  10
ENDBRANCH   1   7
BRANCH   4  18
ATOM     18  C   UNL     1      48.442   9.066  14.168  0.00  0.00    +0.000 C 
BRANCH  18  19
ATOM     19  N   UNL     1      49.046   8.263  15.201  0.00  0.00    +0.000 N 
ATOM     20  C   UNL     1      50.310   7.750  15.068  0.00  0.00    +0.000 C 
ATOM     21  O   UNL     1      51.014   7.990  14.090  0.00  0.00    +0.000 OA
ATOM     22  H   UNL     1      48.417   7.861  15.887  0.00  0.00    +0.000 HD
BRANCH  20  23
ATOM     23  C   UNL     1      50.806   6.949  16.195  0.00  0.00    +0.000 A 
ATOM     24  C   UNL     1      52.079   7.178  16.700  0.00  0.00    +0.000 A 
ATOM     25  S   UNL     1      52.459   6.218  18.059  0.00  0.00    +0.000 S 
ATOM     26  C   UNL     1      50.957   5.421  17.985  0.00  0.00    +0.000 A 
ATOM     27  N   UNL     1      50.637   4.446  18.878  0.00  0.00    +0.000 NA
ATOM     28  C   UNL     1      49.481   3.904  18.685  0.00  0.00    +0.000 A 
ATOM     29  N   UNL     1      48.616   4.249  17.679  0.00  0.00    +0.000 N 
ATOM     30  C   UNL     1      48.887   5.242  16.770  0.00  0.00    +0.000 A 
ATOM     31  O   UNL     1      48.077   5.545  15.899  0.00  0.00    +0.000 OA
ATOM     32  C   UNL     1      50.175   5.886  16.943  0.00  0.00    +0.000 A 
ATOM     33  H   UNL     1      47.725   3.786  17.581  0.00  0.00    +0.000 HD
ENDBRANCH  20  23
ENDBRANCH  18  19
ENDBRANCH   4  18
TORSDOF 6
ENDMDL
MODEL 9
REMARK VINA RESULT:    -6.184      4.235      9.165
REMARK INTER + INTRA:          -9.525
REMARK INTER:                  -8.639
REMARK INTRA:                  -0.886
REMARK UNBOUND:                -1.172
REMARK  Name = 
REMARK  6 active torsions:
REMARK  status: ('A' for Active; 'I' for Inactive)
REMARK    1  A    between atoms: C_2  and  C_25
REMARK    2  A    between atoms: N_3  and  C_4
REMARK    3  A    between atoms: C_4  and  C_5
REMARK    4  A    between atoms: C_8  and  C_9
REMARK    5  A    between atoms: C_9  and  N_10
REMARK    6  A    between atoms: C_11  and  C_13
REMARK                            x       y       z     vdW  Elec       q    Type
REMARK                         _______ _______ _______ _____ _____    ______ ____
ROOT
ATOM      1  C   UNL     1      51.331   3.844  17.962  0.00  0.00    +0.000 A 
ATOM      2  C   UNL     1      50.408   4.873  18.192  0.00  0.00    +0.000 A 
ATOM      3  C   UNL     1      49.063   4.717  17.840  0.00  0.00    +0.000 A 
ATOM      4  C   UNL     1      48.608   3.521  17.271  0.00  0.00    +0.000 A 
ATOM      5  C   UNL     1      49.534   2.495  17.032  0.00  0.00    +0.000 A 
ATOM      6  C   UNL     1      50.878   2.651  17.385  0.00  0.00    +0.000 A 
ENDROOT
BRANCH   1   7
ATOM      7  C   UNL     1      52.775   4.003  18.362  0.00  0.00    +0.000 C 
BRANCH   7  10
ATOM      8  O   UNL     1      53.475   6.632  18.997  0.00  0.00    +0.000 OA
ATOM      9  C   UNL     1      53.772   6.197  17.888  0.00  0.00    +0.000 C 
ATOM     10  N   UNL     1      53.459   4.921  17.486  0.00  0.00    +0.000 N 
ATOM     11  H   UNL     1      53.838   4.563  16.622  0.00  0.00    +0.000 HD
BRANCH   9  12
ATOM     12  C   UNL     1      54.489   6.983  16.921  0.00  0.00    +0.000 A 
ATOM     13  C   UNL     1      55.515   7.903  17.022  0.00  0.00    +0.000 A 
ATOM     14  C   UNL     1      55.774   8.314  15.701  0.00  0.00    +0.000 A 
ATOM     15  N   UNL     1      54.981   7.705  14.819  0.00  0.00    +0.000 NA
ATOM     16  N   UNL     1      54.222   6.897  15.577  0.00  0.00    +0.000 N 
ATOM     17  H   UNL     1      53.529   6.307  15.129  0.00  0.00    +0.000 HD
ENDBRANCH   9  12
ENDBRANCH   7  10
ENDBRANCH   1   7
BRANCH   4  18
ATOM     18  C   UNL     1      47.163   3.350  16.872  0.00  0.00    +0.000 C 
BRANCH  18  19
ATOM     19  N   UNL     1      46.769   4.360  15.922  0.00  0.00    +0.000 N 
ATOM     20  C   UNL     1      46.884   4.163  14.570  0.00  0.00    +0.000 C 
ATOM     21  O   UNL     1      47.276   3.099  14.096  0.00  0.00    +0.000 OA
ATOM     22  H   UNL     1      46.676   5.304  16.279  0.00  0.00    +0.000 HD
BRANCH  20  23
ATOM     23  C   UNL     1      46.446   5.273  13.714  0.00  0.00    +0.000 A 
ATOM     24  C   UNL     1      47.286   6.358  13.504  0.00  0.00    +0.000 A 
ATOM     25  S   UNL     1      46.654   7.513  12.419  0.00  0.00    +0.000 S 
ATOM     26  C   UNL     1      45.209   6.632  12.236  0.00  0.00    +0.000 A 
ATOM     27  N   UNL     1      44.210   7.085  11.432  0.00  0.00    +0.000 NA
ATOM     28  C   UNL     1      43.159   6.334  11.413  0.00  0.00    +0.000 A 
ATOM     29  N   UNL     1      43.018   5.172  12.125  0.00  0.00    +0.000 N 
ATOM     30  C   UNL     1      44.008   4.665  12.930  0.00  0.00    +0.000 A 
ATOM     31  O   UNL     1      43.859   3.606  13.532  0.00  0.00    +0.000 OA
ATOM     32  C   UNL     1      45.213   5.470  12.987  0.00  0.00    +0.000 A 
ATOM     33  H   UNL     1      42.169   4.629  12.068  0.00  0.00    +0.000 HD
ENDBRANCH  20  23
ENDBRANCH  18  19
ENDBRANCH   4  18
TORSDOF 6
ENDMDL
