MODEL 1
REMARK VINA RESULT:    -8.584      0.000      0.000
REMARK INTER + INTRA:         -12.588
REMARK INTER:                 -11.594
REMARK INTRA:                  -0.993
REMARK UNBOUND:                -0.993
REMARK  Name = 
REMARK  6 active torsions:
REMARK  status: ('A' for Active; 'I' for Inactive)
REMARK    1  A    between atoms: C_2  and  C_25
REMARK    2  A    between atoms: N_3  and  C_4
REMARK    3  A    between atoms: C_4  and  C_5
REMARK    4  A    between atoms: C_8  and  C_9
REMARK    5  A    between atoms: C_9  and  N_10
REMARK    6  A    between atoms: C_11  and  C_13
REMARK                            x       y       z     vdW  Elec       q    Type
REMARK                         _______ _______ _______ _____ _____    ______ ____
ROOT
ATOM      1  C   UNL     1      45.013   6.355  11.238  0.00  0.00    +0.000 A 
ATOM      2  C   UNL     1      44.545   7.558  11.762  0.00  0.00    +0.000 A 
ATOM      3  C   UNL     1      45.359   8.280  12.633  0.00  0.00    +0.000 A 
ATOM      4  C   UNL     1      46.612   7.780  12.987  0.00  0.00    +0.000 A 
ATOM      5  C   UNL     1      47.000   6.576  12.411  0.00  0.00    +0.000 A 
ATOM      6  N   UNL     1      46.235   5.852  11.558  0.00  0.00    +0.000 NA
ENDROOT
BRANCH   1   7
ATOM      7  C   UNL     1      44.153   5.552  10.290  0.00  0.00    +0.000 C 
BRANCH   7  10
ATOM      8  O   UNL     1      44.335   2.754  10.111  0.00  0.00    +0.000 OA
ATOM      9  C   UNL     1      44.959   3.438   9.307  0.00  0.00    +0.000 C 
ATOM     10  N   UNL     1      44.932   4.815   9.315  0.00  0.00    +0.000 N 
ATOM     11  H   UNL     1      45.440   5.354   8.628  0.00  0.00    +0.000 HD
BRANCH   9  12
ATOM     12  C   UNL     1      45.753   2.787   8.231  0.00  0.00    +0.000 A 
ATOM     13  C   UNL     1      46.094   3.560   7.113  0.00  0.00    +0.000 A 
ATOM     14  C   UNL     1      46.845   3.008   6.074  0.00  0.00    +0.000 A 
ATOM     15  C   UNL     1      47.249   1.676   6.141  0.00  0.00    +0.000 A 
ATOM     16  C   UNL     1      46.899   0.894   7.244  0.00  0.00    +0.000 A 
ATOM     17  C   UNL     1      46.151   1.446   8.289  0.00  0.00    +0.000 A 
ENDBRANCH   9  12
ENDBRANCH   7  10
ENDBRANCH   1   7
BRANCH   4  18
ATOM     18  C   UNL     1      47.518   8.523  13.924  0.00  0.00    +0.000 C 
BRANCH  18  19
ATOM     19  N   UNL     1      47.837   7.735  15.087  0.00  0.00    +0.000 N 
ATOM     20  C   UNL     1      49.014   7.035  15.167  0.00  0.00    +0.000 C 
ATOM     21  O   UNL     1      49.868   7.099  14.285  0.00  0.00    +0.000 OA
ATOM     22  H   UNL     1      47.067   7.477  15.696  0.00  0.00    +0.000 HD
BRANCH  20  23
ATOM     23  C   UNL     1      49.232   6.250  16.390  0.00  0.00    +0.000 A 
ATOM     24  C   UNL     1      50.228   6.630  17.280  0.00  0.00    +0.000 A 
ATOM     25  S   UNL     1      50.314   5.648  18.672  0.00  0.00    +0.000 S 
ATOM     26  C   UNL     1      49.058   4.647  18.109  0.00  0.00    +0.000 A 
ATOM     27  N   UNL     1      48.644   3.572  18.832  0.00  0.00    +0.000 NA
ATOM     28  C   UNL     1      47.706   2.883  18.274  0.00  0.00    +0.000 A 
ATOM     29  N   UNL     1      47.140   3.175  17.060  0.00  0.00    +0.000 N 
ATOM     30  C   UNL     1      47.506   4.268  16.308  0.00  0.00    +0.000 A 
ATOM     31  O   UNL     1      46.951   4.524  15.243  0.00  0.00    +0.000 OA
ATOM     32  C   UNL     1      48.568   5.068  16.886  0.00  0.00    +0.000 A 
ATOM     33  H   UNL     1      46.402   2.599  16.682  0.00  0.00    +0.000 HD
ENDBRANCH  20  23
ENDBRANCH  18  19
ENDBRANCH   4  18
TORSDOF 6
ENDMDL
MODEL 2
REMARK VINA RESULT:    -7.590      1.838      2.430
REMARK INTER + INTRA:         -11.245
REMARK INTER:                 -10.322
REMARK INTRA:                  -0.923
REMARK UNBOUND:                -0.993
REMARK  Name = 
REMARK  6 active torsions:
REMARK  status: ('A' for Active; 'I' for Inactive)
REMARK    1  A    between atoms: C_2  and  C_25
REMARK    2  A    between atoms: N_3  and  C_4
REMARK    3  A    between atoms: C_4  and  C_5
REMARK    4  A    between atoms: C_8  and  C_9
REMARK    5  A    between atoms: C_9  and  N_10
REMARK    6  A    between atoms: C_11  and  C_13
REMARK                            x       y       z     vdW  Elec       q    Type
REMARK                         _______ _______ _______ _____ _____    ______ ____
ROOT
ATOM      1  C   UNL     1      45.230   6.249  11.230  0.00  0.00    +0.000 A 
ATOM      2  C   UNL     1      44.682   6.972  12.286  0.00  0.00    +0.000 A 
ATOM      3  C   UNL     1      45.532   7.673  13.141  0.00  0.00    +0.000 A 
ATOM      4  C   UNL     1      46.912   7.620  12.943  0.00  0.00    +0.000 A 
ATOM      5  C   UNL     1      47.370   6.878  11.860  0.00  0.00    +0.000 A 
ATOM      6  N   UNL     1      46.570   6.190  11.009  0.00  0.00    +0.000 NA
ENDROOT
BRANCH   1   7
ATOM      7  C   UNL     1      44.332   5.481  10.287  0.00  0.00    +0.000 C 
BRANCH   7  10
ATOM      8  O   UNL     1      44.470   2.692   9.985  0.00  0.00    +0.000 OA
ATOM      9  C   UNL     1      45.079   3.401   9.193  0.00  0.00    +0.000 C 
ATOM     10  N   UNL     1      45.072   4.776   9.259  0.00  0.00    +0.000 N 
ATOM     11  H   UNL     1      45.566   5.338   8.580  0.00  0.00    +0.000 HD
BRANCH   9  12
ATOM     12  C   UNL     1      45.831   2.787   8.066  0.00  0.00    +0.000 A 
ATOM     13  C   UNL     1      46.273   1.465   8.220  0.00  0.00    +0.000 A 
ATOM     14  C   UNL     1      46.977   0.831   7.195  0.00  0.00    +0.000 A 
ATOM     15  C   UNL     1      47.255   1.518   6.015  0.00  0.00    +0.000 A 
ATOM     16  C   UNL     1      46.834   2.841   5.861  0.00  0.00    +0.000 A 
ATOM     17  C   UNL     1      46.124   3.477   6.883  0.00  0.00    +0.000 A 
ENDBRANCH   9  12
ENDBRANCH   7  10
ENDBRANCH   1   7
BRANCH   4  18
ATOM     18  C   UNL     1      47.863   8.356  13.840  0.00  0.00    +0.000 C 
BRANCH  18  19
ATOM     19  N   UNL     1      47.862   7.809  15.173  0.00  0.00    +0.000 N 
ATOM     20  C   UNL     1      48.884   7.003  15.608  0.00  0.00    +0.000 C 
ATOM     21  O   UNL     1      49.865   6.765  14.908  0.00  0.00    +0.000 OA
ATOM     22  H   UNL     1      46.974   7.789  15.664  0.00  0.00    +0.000 HD
BRANCH  20  23
ATOM     23  C   UNL     1      48.776   6.485  16.979  0.00  0.00    +0.000 A 
ATOM     24  C   UNL     1      49.107   5.162  17.240  0.00  0.00    +0.000 A 
ATOM     25  S   UNL     1      48.980   4.735  18.886  0.00  0.00    +0.000 S 
ATOM     26  C   UNL     1      48.426   6.291  19.301  0.00  0.00    +0.000 A 
ATOM     27  N   UNL     1      48.101   6.596  20.586  0.00  0.00    +0.000 NA
ATOM     28  C   UNL     1      47.667   7.800  20.755  0.00  0.00    +0.000 A 
ATOM     29  N   UNL     1      47.532   8.728  19.755  0.00  0.00    +0.000 N 
ATOM     30  C   UNL     1      47.876   8.473  18.447  0.00  0.00    +0.000 A 
ATOM     31  O   UNL     1      47.782   9.339  17.582  0.00  0.00    +0.000 OA
ATOM     32  C   UNL     1      48.358   7.128  18.203  0.00  0.00    +0.000 A 
ATOM     33  H   UNL     1      47.194   9.658  19.954  0.00  0.00    +0.000 HD
ENDBRANCH  20  23
ENDBRANCH  18  19
ENDBRANCH   4  18
TORSDOF 6
ENDMDL
MODEL 3
REMARK VINA RESULT:    -7.445      1.735      2.333
REMARK INTER + INTRA:         -11.049
REMARK INTER:                 -10.271
REMARK INTRA:                  -0.779
REMARK UNBOUND:                -0.993
REMARK  Name = 
REMARK  6 active torsions:
REMARK  status: ('A' for Active; 'I' for Inactive)
REMARK    1  A    between atoms: C_2  and  C_25
REMARK    2  A    between atoms: N_3  and  C_4
REMARK    3  A    between atoms: C_4  and  C_5
REMARK    4  A    between atoms: C_8  and  C_9
REMARK    5  A    between atoms: C_9  and  N_10
REMARK    6  A    between atoms: C_11  and  C_13
REMARK                            x       y       z     vdW  Elec       q    Type
REMARK                         _______ _______ _______ _____ _____    ______ ____
ROOT
ATOM      1  C   UNL     1      45.567   6.161  11.964  0.00  0.00    +0.000 A 
ATOM      2  C   UNL     1      46.770   5.622  12.414  0.00  0.00    +0.000 A 
ATOM      3  C   UNL     1      47.588   6.388  13.244  0.00  0.00    +0.000 A 
ATOM      4  C   UNL     1      47.205   7.684  13.591  0.00  0.00    +0.000 A 
ATOM      5  C   UNL     1      45.985   8.137  13.102  0.00  0.00    +0.000 A 
ATOM      6  N   UNL     1      45.166   7.416  12.297  0.00  0.00    +0.000 NA
ENDROOT
BRANCH   1   7
ATOM      7  C   UNL     1      44.661   5.353  11.065  0.00  0.00    +0.000 C 
BRANCH   7  10
ATOM      8  O   UNL     1      43.825   3.012   9.758  0.00  0.00    +0.000 OA
ATOM      9  C   UNL     1      44.890   3.521   9.430  0.00  0.00    +0.000 C 
ATOM     10  N   UNL     1      45.383   4.668  10.012  0.00  0.00    +0.000 N 
ATOM     11  H   UNL     1      46.255   5.078   9.708  0.00  0.00    +0.000 HD
BRANCH   9  12
ATOM     12  C   UNL     1      45.692   2.930   8.325  0.00  0.00    +0.000 A 
ATOM     13  C   UNL     1      46.092   1.592   8.453  0.00  0.00    +0.000 A 
ATOM     14  C   UNL     1      46.839   0.979   7.445  0.00  0.00    +0.000 A 
ATOM     15  C   UNL     1      47.201   1.702   6.311  0.00  0.00    +0.000 A 
ATOM     16  C   UNL     1      46.820   3.040   6.184  0.00  0.00    +0.000 A 
ATOM     17  C   UNL     1      46.068   3.656   7.189  0.00  0.00    +0.000 A 
ENDBRANCH   9  12
ENDBRANCH   7  10
ENDBRANCH   1   7
BRANCH   4  18
ATOM     18  C   UNL     1      48.055   8.543  14.479  0.00  0.00    +0.000 C 
BRANCH  18  19
ATOM     19  N   UNL     1      49.233   7.840  14.924  0.00  0.00    +0.000 N 
ATOM     20  C   UNL     1      49.382   7.469  16.236  0.00  0.00    +0.000 C 
ATOM     21  O   UNL     1      48.500   7.662  17.069  0.00  0.00    +0.000 OA
ATOM     22  H   UNL     1      50.053   7.890  14.328  0.00  0.00    +0.000 HD
BRANCH  20  23
ATOM     23  C   UNL     1      50.627   6.772  16.585  0.00  0.00    +0.000 A 
ATOM     24  C   UNL     1      51.845   7.419  16.419  0.00  0.00    +0.000 A 
ATOM     25  S   UNL     1      53.187   6.494  16.921  0.00  0.00    +0.000 S 
ATOM     26  C   UNL     1      52.192   5.174  17.330  0.00  0.00    +0.000 A 
ATOM     27  N   UNL     1      52.726   4.020  17.810  0.00  0.00    +0.000 NA
ATOM     28  C   UNL     1      51.862   3.092  18.051  0.00  0.00    +0.000 A 
ATOM     29  N   UNL     1      50.510   3.215  17.857  0.00  0.00    +0.000 N 
ATOM     30  C   UNL     1      49.923   4.373  17.400  0.00  0.00    +0.000 A 
ATOM     31  O   UNL     1      48.705   4.465  17.277  0.00  0.00    +0.000 OA
ATOM     32  C   UNL     1      50.854   5.444  17.104  0.00  0.00    +0.000 A 
ATOM     33  H   UNL     1      49.885   2.452  18.073  0.00  0.00    +0.000 HD
ENDBRANCH  20  23
ENDBRANCH  18  19
ENDBRANCH   4  18
TORSDOF 6
ENDMDL
MODEL 4
REMARK VINA RESULT:    -7.175      3.122      8.581
REMARK INTER + INTRA:         -10.685
REMARK INTER:                  -9.891
REMARK INTRA:                  -0.794
REMARK UNBOUND:                -0.993
REMARK  Name = 
REMARK  6 active torsions:
REMARK  status: ('A' for Active; 'I' for Inactive)
REMARK    1  A    between atoms: C_2  and  C_25
REMARK    2  A    between atoms: N_3  and  C_4
REMARK    3  A    between atoms: C_4  and  C_5
REMARK    4  A    between atoms: C_8  and  C_9
REMARK    5  A    between atoms: C_9  and  N_10
REMARK    6  A    between atoms: C_11  and  C_13
REMARK                            x       y       z     vdW  Elec       q    Type
REMARK                         _______ _______ _______ _____ _____    ______ ____
ROOT
ATOM      1  C   UNL     1      49.346   7.616  15.748  0.00  0.00    +0.000 A 
ATOM      2  C   UNL     1      48.728   8.835  15.481  0.00  0.00    +0.000 A 
ATOM      3  C   UNL     1      47.872   8.936  14.385  0.00  0.00    +0.000 A 
ATOM      4  C   UNL     1      47.669   7.829  13.560  0.00  0.00    +0.000 A 
ATOM      5  C   UNL     1      48.322   6.652  13.906  0.00  0.00    +0.000 A 
ATOM      6  N   UNL     1      49.155   6.520  14.967  0.00  0.00    +0.000 NA
ENDROOT
BRANCH   1   7
ATOM      7  C   UNL     1      50.277   7.478  16.930  0.00  0.00    +0.000 C 
BRANCH   7  10
ATOM      8  O   UNL     1      49.368   5.320  18.482  0.00  0.00    +0.000 OA
ATOM      9  C   UNL     1      50.375   5.172  17.799  0.00  0.00    +0.000 C 
ATOM     10  N   UNL     1      50.897   6.170  17.006  0.00  0.00    +0.000 N 
ATOM     11  H   UNL     1      51.717   6.014  16.437  0.00  0.00    +0.000 HD
BRANCH   9  12
ATOM     12  C   UNL     1      51.065   3.855  17.761  0.00  0.00    +0.000 A 
ATOM     13  C   UNL     1      50.326   2.743  17.331  0.00  0.00    +0.000 A 
ATOM     14  C   UNL     1      50.921   1.482  17.266  0.00  0.00    +0.000 A 
ATOM     15  C   UNL     1      52.252   1.322  17.643  0.00  0.00    +0.000 A 
ATOM     16  C   UNL     1      52.990   2.420  18.089  0.00  0.00    +0.000 A 
ATOM     17  C   UNL     1      52.399   3.686  18.151  0.00  0.00    +0.000 A 
ENDBRANCH   9  12
ENDBRANCH   7  10
ENDBRANCH   1   7
BRANCH   4  18
ATOM     18  C   UNL     1      46.759   7.894  12.369  0.00  0.00    +0.000 C 
BRANCH  18  19
ATOM     19  N   UNL     1      46.269   6.588  12.006  0.00  0.00    +0.000 N 
ATOM     20  C   UNL     1      44.968   6.404  11.614  0.00  0.00    +0.000 C 
ATOM     21  O   UNL     1      44.186   7.345  11.496  0.00  0.00    +0.000 OA
ATOM     22  H   UNL     1      46.807   5.788  12.325  0.00  0.00    +0.000 HD
BRANCH  20  23
ATOM     23  C   UNL     1      44.568   5.030  11.282  0.00  0.00    +0.000 A 
ATOM     24  C   UNL     1      43.774   4.313  12.169  0.00  0.00    +0.000 A 
ATOM     25  S   UNL     1      43.356   2.757  11.610  0.00  0.00    +0.000 S 
ATOM     26  C   UNL     1      44.264   2.966  10.186  0.00  0.00    +0.000 A 
ATOM     27  N   UNL     1      44.350   1.972   9.261  0.00  0.00    +0.000 NA
ATOM     28  C   UNL     1      45.095   2.252   8.245  0.00  0.00    +0.000 A 
ATOM     29  N   UNL     1      45.760   3.438   8.068  0.00  0.00    +0.000 N 
ATOM     30  C   UNL     1      45.679   4.481   8.963  0.00  0.00    +0.000 A 
ATOM     31  O   UNL     1      46.253   5.546   8.754  0.00  0.00    +0.000 OA
ATOM     32  C   UNL     1      44.862   4.211  10.130  0.00  0.00    +0.000 A 
ATOM     33  H   UNL     1      46.321   3.599   7.245  0.00  0.00    +0.000 HD
ENDBRANCH  20  23
ENDBRANCH  18  19
ENDBRANCH   4  18
TORSDOF 6
ENDMDL
MODEL 5
REMARK VINA RESULT:    -7.046      3.636      8.415
REMARK INTER + INTRA:         -10.510
REMARK INTER:                  -9.553
REMARK INTRA:                  -0.956
REMARK UNBOUND:                -0.993
REMARK  Name = 
REMARK  6 active torsions:
REMARK  status: ('A' for Active; 'I' for Inactive)
REMARK    1  A    between atoms: C_2  and  C_25
REMARK    2  A    between atoms: N_3  and  C_4
REMARK    3  A    between atoms: C_4  and  C_5
REMARK    4  A    between atoms: C_8  and  C_9
REMARK    5  A    between atoms: C_9  and  N_10
REMARK    6  A    between atoms: C_11  and  C_13
REMARK                            x       y       z     vdW  Elec       q    Type
REMARK                         _______ _______ _______ _____ _____    ______ ____
ROOT
ATOM      1  C   UNL     1      49.419   6.491  16.372  0.00  0.00    +0.000 A 
ATOM      2  C   UNL     1      50.137   7.521  15.771  0.00  0.00    +0.000 A 
ATOM      3  C   UNL     1      49.804   7.913  14.474  0.00  0.00    +0.000 A 
ATOM      4  C   UNL     1      48.781   7.254  13.792  0.00  0.00    +0.000 A 
ATOM      5  C   UNL     1      48.115   6.241  14.473  0.00  0.00    +0.000 A 
ATOM      6  N   UNL     1      48.411   5.841  15.734  0.00  0.00    +0.000 NA
ENDROOT
BRANCH   1   7
ATOM      7  C   UNL     1      49.758   6.047  17.777  0.00  0.00    +0.000 C 
BRANCH   7  10
ATOM      8  O   UNL     1      49.404   3.261  17.805  0.00  0.00    +0.000 OA
ATOM      9  C   UNL     1      50.544   3.711  17.824  0.00  0.00    +0.000 C 
ATOM     10  N   UNL     1      50.818   5.060  17.812  0.00  0.00    +0.000 N 
ATOM     11  H   UNL     1      51.768   5.403  17.807  0.00  0.00    +0.000 HD
BRANCH   9  12
ATOM     12  C   UNL     1      51.711   2.788  17.812  0.00  0.00    +0.000 A 
ATOM     13  C   UNL     1      52.964   3.314  18.157  0.00  0.00    +0.000 A 
ATOM     14  C   UNL     1      54.095   2.496  18.171  0.00  0.00    +0.000 A 
ATOM     15  C   UNL     1      53.982   1.150  17.829  0.00  0.00    +0.000 A 
ATOM     16  C   UNL     1      52.741   0.622  17.467  0.00  0.00    +0.000 A 
ATOM     17  C   UNL     1      51.606   1.437  17.457  0.00  0.00    +0.000 A 
ENDBRANCH   9  12
ENDBRANCH   7  10
ENDBRANCH   1   7
BRANCH   4  18
ATOM     18  C   UNL     1      48.392   7.640  12.396  0.00  0.00    +0.000 C 
BRANCH  18  19
ATOM     19  N   UNL     1      47.642   6.594  11.748  0.00  0.00    +0.000 N 
ATOM     20  C   UNL     1      46.322   6.769  11.420  0.00  0.00    +0.000 C 
ATOM     21  O   UNL     1      45.743   7.836  11.605  0.00  0.00    +0.000 OA
ATOM     22  H   UNL     1      48.016   5.652  11.809  0.00  0.00    +0.000 HD
BRANCH  20  23
ATOM     23  C   UNL     1      45.647   5.633  10.777  0.00  0.00    +0.000 A 
ATOM     24  C   UNL     1      45.717   5.484   9.398  0.00  0.00    +0.000 A 
ATOM     25  S   UNL     1      44.929   4.088   8.817  0.00  0.00    +0.000 S 
ATOM     26  C   UNL     1      44.420   3.659  10.384  0.00  0.00    +0.000 A 
ATOM     27  N   UNL     1      43.662   2.549  10.593  0.00  0.00    +0.000 NA
ATOM     28  C   UNL     1      43.322   2.359  11.823  0.00  0.00    +0.000 A 
ATOM     29  N   UNL     1      43.674   3.178  12.865  0.00  0.00    +0.000 N 
ATOM     30  C   UNL     1      44.462   4.294  12.705  0.00  0.00    +0.000 A 
ATOM     31  O   UNL     1      44.794   4.983  13.666  0.00  0.00    +0.000 OA
ATOM     32  C   UNL     1      44.862   4.558  11.337  0.00  0.00    +0.000 A 
ATOM     33  H   UNL     1      43.381   2.969  13.809  0.00  0.00    +0.000 HD
ENDBRANCH  20  23
ENDBRANCH  18  19
ENDBRANCH   4  18
TORSDOF 6
ENDMDL
MODEL 6
REMARK VINA RESULT:    -6.845      4.115      8.688
REMARK INTER + INTRA:         -10.239
REMARK INTER:                  -9.180
REMARK INTRA:                  -1.059
REMARK UNBOUND:                -0.993
REMARK  Name = 
REMARK  6 active torsions:
REMARK  status: ('A' for Active; 'I' for Inactive)
REMARK    1  A    between atoms: C_2  and  C_25
REMARK    2  A    between atoms: N_3  and  C_4
REMARK    3  A    between atoms: C_4  and  C_5
REMARK    4  A    between atoms: C_8  and  C_9
REMARK    5  A    between atoms: C_9  and  N_10
REMARK    6  A    between atoms: C_11  and  C_13
REMARK                            x       y       z     vdW  Elec       q    Type
REMARK                         _______ _______ _______ _____ _____    ______ ____
ROOT
ATOM      1  C   UNL     1      49.707   4.616  17.687  0.00  0.00    +0.000 A 
ATOM      2  C   UNL     1      48.556   4.227  17.006  0.00  0.00    +0.000 A 
ATOM      3  C   UNL     1      48.084   5.024  15.964  0.00  0.00    +0.000 A 
ATOM      4  C   UNL     1      48.751   6.204  15.636  0.00  0.00    +0.000 A 
ATOM      5  C   UNL     1      49.894   6.511  16.365  0.00  0.00    +0.000 A 
ATOM      6  N   UNL     1      50.381   5.756  17.380  0.00  0.00    +0.000 NA
ENDROOT
BRANCH   1   7
ATOM      7  C   UNL     1      50.242   3.771  18.820  0.00  0.00    +0.000 C 
BRANCH   7  10
ATOM      8  O   UNL     1      50.837   1.498  17.282  0.00  0.00    +0.000 OA
ATOM      9  C   UNL     1      51.761   2.127  17.786  0.00  0.00    +0.000 C 
ATOM     10  N   UNL     1      51.570   3.253  18.554  0.00  0.00    +0.000 N 
ATOM     11  H   UNL     1      52.351   3.765  18.939  0.00  0.00    +0.000 HD
BRANCH   9  12
ATOM     12  C   UNL     1      53.168   1.714  17.537  0.00  0.00    +0.000 A 
ATOM     13  C   UNL     1      53.415   0.358  17.281  0.00  0.00    +0.000 A 
ATOM     14  C   UNL     1      54.714  -0.089  17.032  0.00  0.00    +0.000 A 
ATOM     15  C   UNL     1      55.775   0.814  17.051  0.00  0.00    +0.000 A 
ATOM     16  C   UNL     1      55.539   2.164  17.322  0.00  0.00    +0.000 A 
ATOM     17  C   UNL     1      54.239   2.616  17.566  0.00  0.00    +0.000 A 
ENDBRANCH   9  12
ENDBRANCH   7  10
ENDBRANCH   1   7
BRANCH   4  18
ATOM     18  C   UNL     1      48.275   7.092  14.524  0.00  0.00    +0.000 C 
BRANCH  18  19
ATOM     19  N   UNL     1      47.043   6.610  13.953  0.00  0.00    +0.000 N 
ATOM     20  C   UNL     1      46.769   6.774  12.619  0.00  0.00    +0.000 C 
ATOM     21  O   UNL     1      47.581   7.278  11.847  0.00  0.00    +0.000 OA
ATOM     22  H   UNL     1      46.279   6.421  14.595  0.00  0.00    +0.000 HD
BRANCH  20  23
ATOM     23  C   UNL     1      45.477   6.260  12.144  0.00  0.00    +0.000 A 
ATOM     24  C   UNL     1      44.559   7.132  11.574  0.00  0.00    +0.000 A 
ATOM     25  S   UNL     1      43.136   6.369  11.026  0.00  0.00    +0.000 S 
ATOM     26  C   UNL     1      43.673   4.852  11.580  0.00  0.00    +0.000 A 
ATOM     27  N   UNL     1      42.897   3.743  11.442  0.00  0.00    +0.000 NA
ATOM     28  C   UNL     1      43.413   2.667  11.932  0.00  0.00    +0.000 A 
ATOM     29  N   UNL     1      44.637   2.597  12.545  0.00  0.00    +0.000 N 
ATOM     30  C   UNL     1      45.468   3.686  12.681  0.00  0.00    +0.000 A 
ATOM     31  O   UNL     1      46.576   3.581  13.198  0.00  0.00    +0.000 OA
ATOM     32  C   UNL     1      44.928   4.924  12.157  0.00  0.00    +0.000 A 
ATOM     33  H   UNL     1      44.988   1.720  12.900  0.00  0.00    +0.000 HD
ENDBRANCH  20  23
ENDBRANCH  18  19
ENDBRANCH   4  18
TORSDOF 6
ENDMDL
MODEL 7
REMARK VINA RESULT:    -6.477      3.091      4.349
REMARK INTER + INTRA:          -9.741
REMARK INTER:                  -8.925
REMARK INTRA:                  -0.816
REMARK UNBOUND:                -0.993
REMARK  Name = 
REMARK  6 active torsions:
REMARK  status: ('A' for Active; 'I' for Inactive)
REMARK    1  A    between atoms: C_2  and  C_25
REMARK    2  A    between atoms: N_3  and  C_4
REMARK    3  A    between atoms: C_4  and  C_5
REMARK    4  A    between atoms: C_8  and  C_9
REMARK    5  A    between atoms: C_9  and  N_10
REMARK    6  A    between atoms: C_11  and  C_13
REMARK                            x       y       z     vdW  Elec       q    Type
REMARK                         _______ _______ _______ _____ _____    ______ ____
ROOT
ATOM      1  C   UNL     1      47.737   7.454  13.504  0.00  0.00    +0.000 A 
ATOM      2  C   UNL     1      47.792   6.144  13.975  0.00  0.00    +0.000 A 
ATOM      3  C   UNL     1      48.253   5.908  15.269  0.00  0.00    +0.000 A 
ATOM      4  C   UNL     1      48.674   6.976  16.061  0.00  0.00    +0.000 A 
ATOM      5  C   UNL     1      48.577   8.250  15.512  0.00  0.00    +0.000 A 
ATOM      6  N   UNL     1      48.129   8.513  14.260  0.00  0.00    +0.000 NA
ENDROOT
BRANCH   1   7
ATOM      7  C   UNL     1      47.240   7.739  12.106  0.00  0.00    +0.000 C 
BRANCH   7  10
ATOM      8  O   UNL     1      44.613   7.066  11.373  0.00  0.00    +0.000 OA
ATOM      9  C   UNL     1      45.521   6.297  11.083  0.00  0.00    +0.000 C 
ATOM     10  N   UNL     1      46.839   6.539  11.398  0.00  0.00    +0.000 N 
ATOM     11  H   UNL     1      47.571   5.897  11.128  0.00  0.00    +0.000 HD
BRANCH   9  12
ATOM     12  C   UNL     1      45.232   5.058  10.312  0.00  0.00    +0.000 A 
ATOM     13  C   UNL     1      44.499   4.047  10.951  0.00  0.00    +0.000 A 
ATOM     14  C   UNL     1      44.189   2.865  10.277  0.00  0.00    +0.000 A 
ATOM     15  C   UNL     1      44.619   2.680   8.965  0.00  0.00    +0.000 A 
ATOM     16  C   UNL     1      45.364   3.674   8.327  0.00  0.00    +0.000 A 
ATOM     17  C   UNL     1      45.672   4.862   8.997  0.00  0.00    +0.000 A 
ENDBRANCH   9  12
ENDBRANCH   7  10
ENDBRANCH   1   7
BRANCH   4  18
ATOM     18  C   UNL     1      49.179   6.767  17.458  0.00  0.00    +0.000 C 
BRANCH  18  19
ATOM     19  N   UNL     1      50.395   5.993  17.470  0.00  0.00    +0.000 N 
ATOM     20  C   UNL     1      50.581   4.982  18.378  0.00  0.00    +0.000 C 
ATOM     21  O   UNL     1      49.704   4.654  19.174  0.00  0.00    +0.000 OA
ATOM     22  H   UNL     1      51.203   6.394  17.004  0.00  0.00    +0.000 HD
BRANCH  20  23
ATOM     23  C   UNL     1      51.863   4.267  18.313  0.00  0.00    +0.000 A 
ATOM     24  C   UNL     1      53.034   4.924  18.668  0.00  0.00    +0.000 A 
ATOM     25  S   UNL     1      54.424   3.939  18.589  0.00  0.00    +0.000 S 
ATOM     26  C   UNL     1      53.518   2.612  18.028  0.00  0.00    +0.000 A 
ATOM     27  N   UNL     1      54.121   1.429  17.733  0.00  0.00    +0.000 NA
ATOM     28  C   UNL     1      53.321   0.519  17.290  0.00  0.00    +0.000 A 
ATOM     29  N   UNL     1      51.971   0.683  17.117  0.00  0.00    +0.000 N 
ATOM     30  C   UNL     1      51.314   1.852  17.428  0.00  0.00    +0.000 A 
ATOM     31  O   UNL     1      50.097   1.953  17.301  0.00  0.00    +0.000 OA
ATOM     32  C   UNL     1      52.172   2.912  17.920  0.00  0.00    +0.000 A 
ATOM     33  H   UNL     1      51.397  -0.073  16.773  0.00  0.00    +0.000 HD
ENDBRANCH  20  23
ENDBRANCH  18  19
ENDBRANCH   4  18
TORSDOF 6
ENDMDL
MODEL 8
REMARK VINA RESULT:    -6.369      1.876      2.072
REMARK INTER + INTRA:          -9.596
REMARK INTER:                  -8.861
REMARK INTRA:                  -0.735
REMARK UNBOUND:                -0.993
REMARK  Name = 
REMARK  6 active torsions:
REMARK  status: ('A' for Active; 'I' for Inactive)
REMARK    1  A    between atoms: C_2  and  C_25
REMARK    2  A    between atoms: N_3  and  C_4
REMARK    3  A    between atoms: C_4  and  C_5
REMARK    4  A    between atoms: C_8  and  C_9
REMARK    5  A    between atoms: C_9  and  N_10
REMARK    6  A    between atoms: C_11  and  C_13
REMARK                            x       y       z     vdW  Elec       q    Type
REMARK                         _______ _______ _______ _____ _____    ______ ____
ROOT
ATOM      1  C   UNL     1      45.791   7.009  12.215  0.00  0.00    +0.000 A 
ATOM      2  C   UNL     1      46.038   8.377  12.132  0.00  0.00    +0.000 A 
ATOM      3  C   UNL     1      47.075   8.925  12.887  0.00  0.00    +0.000 A 
ATOM      4  C   UNL     1      47.829   8.105  13.728  0.00  0.00    +0.000 A 
ATOM      5  C   UNL     1      47.515   6.751  13.741  0.00  0.00    +0.000 A 
ATOM      6  N   UNL     1      46.518   6.187  13.017  0.00  0.00    +0.000 NA
ENDROOT
BRANCH   1   7
ATOM      7  C   UNL     1      44.675   6.387  11.406  0.00  0.00    +0.000 C 
BRANCH   7  10
ATOM      8  O   UNL     1      44.566   3.584  11.275  0.00  0.00    +0.000 OA
ATOM      9  C   UNL     1      45.065   4.199  10.340  0.00  0.00    +0.000 C 
ATOM     10  N   UNL     1      45.163   5.572  10.312  0.00  0.00    +0.000 N 
ATOM     11  H   UNL     1      45.560   6.054   9.519  0.00  0.00    +0.000 HD
BRANCH   9  12
ATOM     12  C   UNL     1      45.554   3.466   9.141  0.00  0.00    +0.000 A 
ATOM     13  C   UNL     1      46.000   4.223   8.049  0.00  0.00    +0.000 A 
ATOM     14  C   UNL     1      46.478   3.593   6.899  0.00  0.00    +0.000 A 
ATOM     15  C   UNL     1      46.501   2.202   6.829  0.00  0.00    +0.000 A 
ATOM     16  C   UNL     1      46.043   1.440   7.906  0.00  0.00    +0.000 A 
ATOM     17  C   UNL     1      45.568   2.068   9.061  0.00  0.00    +0.000 A 
ENDBRANCH   9  12
ENDBRANCH   7  10
ENDBRANCH   1   7
BRANCH   4  18
ATOM     18  C   UNL     1      48.951   8.654  14.559  0.00  0.00    +0.000 C 
BRANCH  18  19
ATOM     19  N   UNL     1      48.959   8.079  15.881  0.00  0.00    +0.000 N 
ATOM     20  C   UNL     1      48.337   8.707  16.930  0.00  0.00    +0.000 C 
ATOM     21  O   UNL     1      47.699   9.746  16.778  0.00  0.00    +0.000 OA
ATOM     22  H   UNL     1      49.665   7.376  16.074  0.00  0.00    +0.000 HD
BRANCH  20  23
ATOM     23  C   UNL     1      48.420   8.043  18.238  0.00  0.00    +0.000 A 
ATOM     24  C   UNL     1      48.481   8.810  19.394  0.00  0.00    +0.000 A 
ATOM     25  S   UNL     1      48.519   7.888  20.828  0.00  0.00    +0.000 S 
ATOM     26  C   UNL     1      48.509   6.428  19.952  0.00  0.00    +0.000 A 
ATOM     27  N   UNL     1      48.555   5.229  20.593  0.00  0.00    +0.000 NA
ATOM     28  C   UNL     1      48.572   4.205  19.807  0.00  0.00    +0.000 A 
ATOM     29  N   UNL     1      48.543   4.271  18.438  0.00  0.00    +0.000 N 
ATOM     30  C   UNL     1      48.467   5.460  17.749  0.00  0.00    +0.000 A 
ATOM     31  O   UNL     1      48.401   5.482  16.523  0.00  0.00    +0.000 OA
ATOM     32  C   UNL     1      48.458   6.642  18.587  0.00  0.00    +0.000 A 
ATOM     33  H   UNL     1      48.550   3.430  17.880  0.00  0.00    +0.000 HD
ENDBRANCH  20  23
ENDBRANCH  18  19
ENDBRANCH   4  18
TORSDOF 6
ENDMDL
