MODEL 1
REMARK VINA RESULT:    -8.778      0.000      0.000
REMARK INTER + INTRA:         -14.823
REMARK INTER:                 -12.883
REMARK INTRA:                  -1.939
REMARK UNBOUND:                -1.939
REMARK  Name = 
REMARK  10 active torsions:
REMARK  status: ('A' for Active; 'I' for Inactive)
REMARK    1  A    between atoms: C_1  and  O_2
REMARK    2  A    between atoms: O_2  and  C_3
REMARK    3  A    between atoms: C_10  and  C_11
REMARK    4  A    between atoms: N_13  and  C_14
REMARK    5  A    between atoms: C_14  and  C_15
REMARK    6  A    between atoms: C_18  and  N_19
REMARK    7  A    between atoms: N_19  and  C_20
REMARK    8  A    between atoms: C_20  and  C_21
REMARK    9  A    between atoms: C_20  and  C_22
REMARK   10  A    between atoms: C_22  and  C_23
REMARK                            x       y       z     vdW  Elec       q    Type
REMARK                         _______ _______ _______ _____ _____    ______ ____
ROOT
ATOM      1  C   UNL     1      46.296   7.367  12.515  0.00  0.00    +0.000 A 
ATOM      2  C   UNL     1      44.983   7.030  12.857  0.00  0.00    +0.000 A 
ATOM      3  C   UNL     1      44.269   6.100  12.092  0.00  0.00    +0.000 A 
ATOM      4  C   UNL     1      44.828   5.505  10.954  0.00  0.00    +0.000 A 
ATOM      5  C   UNL     1      46.131   5.868  10.608  0.00  0.00    +0.000 A 
ATOM      6  C   UNL     1      46.861   6.778  11.380  0.00  0.00    +0.000 A 
ENDROOT
BRANCH   4   7
ATOM      7  N   UNL     1      44.094   4.504  10.306  0.00  0.00    +0.000 N 
ATOM      8  H   UNL     1      43.097   4.705  10.366  0.00  0.00    +0.000 HD
BRANCH   7   9
ATOM      9  C   UNL     1      44.413   3.085  10.542  0.00  0.00    +0.000 C 
ATOM     10  C   UNL     1      43.449   2.487  11.575  0.00  0.00    +0.000 C 
BRANCH   9  11
ATOM     11  C   UNL     1      44.266   2.285   9.231  0.00  0.00    +0.000 C 
BRANCH  11  12
ATOM     12  C   UNL     1      45.496   2.275   8.357  0.00  0.00    +0.000 A 
ATOM     13  C   UNL     1      45.852   3.413   7.633  0.00  0.00    +0.000 A 
ATOM     14  C   UNL     1      46.945   3.354   6.776  0.00  0.00    +0.000 A 
ATOM     15  C   UNL     1      47.658   2.168   6.668  0.00  0.00    +0.000 A 
ATOM     16  C   UNL     1      47.250   1.088   7.433  0.00  0.00    +0.000 A 
ATOM     17  N   UNL     1      46.186   1.111   8.267  0.00  0.00    +0.000 NA
ENDBRANCH  11  12
ENDBRANCH   9  11
ENDBRANCH   7   9
ENDBRANCH   4   7
BRANCH   1  18
ATOM     18  C   UNL     1      47.122   8.276  13.385  0.00  0.00    +0.000 C 
BRANCH  18  21
ATOM     19  C   UNL     1      48.740   6.908  14.619  0.00  0.00    +0.000 C 
ATOM     20  O   UNL     1      49.552   6.969  13.701  0.00  0.00    +0.000 OA
ATOM     21  N   UNL     1      47.548   7.586  14.577  0.00  0.00    +0.000 N 
ATOM     22  H   UNL     1      46.854   7.400  15.290  0.00  0.00    +0.000 HD
BRANCH  19  30
ATOM     23  C   UNL     1      47.204   4.260  16.069  0.00  0.00    +0.000 A 
ATOM     24  N   UNL     1      46.740   3.242  16.834  0.00  0.00    +0.000 NA
ATOM     25  C   UNL     1      47.357   2.935  17.980  0.00  0.00    +0.000 A 
ATOM     26  C   UNL     1      48.468   3.594  18.453  0.00  0.00    +0.000 A 
ATOM     27  C   UNL     1      48.948   4.647  17.663  0.00  0.00    +0.000 A 
ATOM     28  S   UNL     1      50.328   5.607  18.014  0.00  0.00    +0.000 S 
ATOM     29  C   UNL     1      50.138   6.517  16.599  0.00  0.00    +0.000 A 
ATOM     30  C   UNL     1      49.026   6.161  15.852  0.00  0.00    +0.000 A 
ATOM     31  C   UNL     1      48.329   5.027  16.461  0.00  0.00    +0.000 A 
BRANCH  23  33
ATOM     32  C   UNL     1      46.921   3.700  13.811  0.00  0.00    +0.000 C 
ATOM     33  O   UNL     1      46.539   4.549  14.892  0.00  0.00    +0.000 OA
ENDBRANCH  23  33
ENDBRANCH  19  30
ENDBRANCH  18  21
ENDBRANCH   1  18
TORSDOF 8
ENDMDL
MODEL 2
REMARK VINA RESULT:    -7.234      2.024      2.696
REMARK INTER + INTRA:         -12.556
REMARK INTER:                 -11.140
REMARK INTRA:                  -1.417
REMARK UNBOUND:                -1.939
REMARK  Name = 
REMARK  10 active torsions:
REMARK  status: ('A' for Active; 'I' for Inactive)
REMARK    1  A    between atoms: C_1  and  O_2
REMARK    2  A    between atoms: O_2  and  C_3
REMARK    3  A    between atoms: C_10  and  C_11
REMARK    4  A    between atoms: N_13  and  C_14
REMARK    5  A    between atoms: C_14  and  C_15
REMARK    6  A    between atoms: C_18  and  N_19
REMARK    7  A    between atoms: N_19  and  C_20
REMARK    8  A    between atoms: C_20  and  C_21
REMARK    9  A    between atoms: C_20  and  C_22
REMARK   10  A    between atoms: C_22  and  C_23
REMARK                            x       y       z     vdW  Elec       q    Type
REMARK                         _______ _______ _______ _____ _____    ______ ____
ROOT
ATOM      1  C   UNL     1      46.645   7.475  12.601  0.00  0.00    +0.000 A 
ATOM      2  C   UNL     1      45.320   7.223  12.969  0.00  0.00    +0.000 A 
ATOM      3  C   UNL     1      44.534   6.337  12.222  0.00  0.00    +0.000 A 
ATOM      4  C   UNL     1      45.033   5.704  11.077  0.00  0.00    +0.000 A 
ATOM      5  C   UNL     1      46.350   5.981  10.705  0.00  0.00    +0.000 A 
ATOM      6  C   UNL     1      47.150   6.846  11.459  0.00  0.00    +0.000 A 
ENDROOT
BRANCH   4   7
ATOM      7  N   UNL     1      44.225   4.749  10.447  0.00  0.00    +0.000 N 
ATOM      8  H   UNL     1      43.243   5.009  10.533  0.00  0.00    +0.000 HD
BRANCH   7   9
ATOM      9  C   UNL     1      44.465   3.313  10.674  0.00  0.00    +0.000 C 
ATOM     10  C   UNL     1      43.497   2.772  11.735  0.00  0.00    +0.000 C 
BRANCH   9  11
ATOM     11  C   UNL     1      44.234   2.526   9.368  0.00  0.00    +0.000 C 
BRANCH  11  12
ATOM     12  C   UNL     1      45.451   2.394   8.487  0.00  0.00    +0.000 A 
ATOM     13  C   UNL     1      45.914   3.492   7.761  0.00  0.00    +0.000 A 
ATOM     14  C   UNL     1      46.990   3.325   6.896  0.00  0.00    +0.000 A 
ATOM     15  C   UNL     1      47.581   2.075   6.784  0.00  0.00    +0.000 A 
ATOM     16  C   UNL     1      47.072   1.040   7.551  0.00  0.00    +0.000 A 
ATOM     17  N   UNL     1      46.021   1.167   8.392  0.00  0.00    +0.000 NA
ENDBRANCH  11  12
ENDBRANCH   9  11
ENDBRANCH   7   9
ENDBRANCH   4   7
BRANCH   1  18
ATOM     18  C   UNL     1      47.543   8.332  13.451  0.00  0.00    +0.000 C 
BRANCH  18  21
ATOM     19  C   UNL     1      48.678   7.012  15.178  0.00  0.00    +0.000 C 
ATOM     20  O   UNL     1      49.652   6.828  14.454  0.00  0.00    +0.000 OA
ATOM     21  N   UNL     1      47.628   7.804  14.791  0.00  0.00    +0.000 N 
ATOM     22  H   UNL     1      46.790   7.819  15.359  0.00  0.00    +0.000 HD
BRANCH  19  30
ATOM     23  C   UNL     1      48.169   8.453  18.200  0.00  0.00    +0.000 A 
ATOM     24  N   UNL     1      48.017   8.811  19.499  0.00  0.00    +0.000 NA
ATOM     25  C   UNL     1      48.078   7.880  20.458  0.00  0.00    +0.000 A 
ATOM     26  C   UNL     1      48.283   6.541  20.215  0.00  0.00    +0.000 A 
ATOM     27  C   UNL     1      48.440   6.171  18.873  0.00  0.00    +0.000 A 
ATOM     28  S   UNL     1      48.680   4.568  18.304  0.00  0.00    +0.000 S 
ATOM     29  C   UNL     1      48.730   5.078  16.690  0.00  0.00    +0.000 A 
ATOM     30  C   UNL     1      48.611   6.450  16.535  0.00  0.00    +0.000 A 
ATOM     31  C   UNL     1      48.406   7.107  17.828  0.00  0.00    +0.000 A 
BRANCH  23  33
ATOM     32  C   UNL     1      47.880  10.741  17.785  0.00  0.00    +0.000 C 
ATOM     33  O   UNL     1      48.102   9.442  17.238  0.00  0.00    +0.000 OA
ENDBRANCH  23  33
ENDBRANCH  19  30
ENDBRANCH  18  21
ENDBRANCH   1  18
TORSDOF 8
ENDMDL
MODEL 3
REMARK VINA RESULT:    -7.132      1.882      2.012
REMARK INTER + INTRA:         -12.406
REMARK INTER:                 -11.053
REMARK INTRA:                  -1.353
REMARK UNBOUND:                -1.939
REMARK  Name = 
REMARK  10 active torsions:
REMARK  status: ('A' for Active; 'I' for Inactive)
REMARK    1  A    between atoms: C_1  and  O_2
REMARK    2  A    between atoms: O_2  and  C_3
REMARK    3  A    between atoms: C_10  and  C_11
REMARK    4  A    between atoms: N_13  and  C_14
REMARK    5  A    between atoms: C_14  and  C_15
REMARK    6  A    between atoms: C_18  and  N_19
REMARK    7  A    between atoms: N_19  and  C_20
REMARK    8  A    between atoms: C_20  and  C_21
REMARK    9  A    between atoms: C_20  and  C_22
REMARK   10  A    between atoms: C_22  and  C_23
REMARK                            x       y       z     vdW  Elec       q    Type
REMARK                         _______ _______ _______ _____ _____    ______ ____
ROOT
ATOM      1  C   UNL     1      46.871   8.361  12.739  0.00  0.00    +0.000 A 
ATOM      2  C   UNL     1      45.477   8.450  12.662  0.00  0.00    +0.000 A 
ATOM      3  C   UNL     1      44.743   7.481  11.967  0.00  0.00    +0.000 A 
ATOM      4  C   UNL     1      45.374   6.419  11.307  0.00  0.00    +0.000 A 
ATOM      5  C   UNL     1      46.767   6.354  11.369  0.00  0.00    +0.000 A 
ATOM      6  C   UNL     1      47.508   7.304  12.082  0.00  0.00    +0.000 A 
ENDROOT
BRANCH   4   7
ATOM      7  N   UNL     1      44.568   5.431  10.728  0.00  0.00    +0.000 N 
ATOM      8  H   UNL     1      43.597   5.564  11.006  0.00  0.00    +0.000 HD
BRANCH   7   9
ATOM      9  C   UNL     1      44.991   4.021  10.759  0.00  0.00    +0.000 C 
ATOM     10  C   UNL     1      44.472   3.337  12.031  0.00  0.00    +0.000 C 
BRANCH   9  11
ATOM     11  C   UNL     1      44.417   3.269   9.541  0.00  0.00    +0.000 C 
BRANCH  11  12
ATOM     12  C   UNL     1      45.450   2.772   8.562  0.00  0.00    +0.000 A 
ATOM     13  C   UNL     1      45.928   3.615   7.558  0.00  0.00    +0.000 A 
ATOM     14  C   UNL     1      46.821   3.110   6.620  0.00  0.00    +0.000 A 
ATOM     15  C   UNL     1      47.222   1.784   6.711  0.00  0.00    +0.000 A 
ATOM     16  C   UNL     1      46.713   1.018   7.746  0.00  0.00    +0.000 A 
ATOM     17  N   UNL     1      45.836   1.476   8.667  0.00  0.00    +0.000 NA
ENDBRANCH  11  12
ENDBRANCH   9  11
ENDBRANCH   7   9
ENDBRANCH   4   7
BRANCH   1  18
ATOM     18  C   UNL     1      47.671   9.323  13.574  0.00  0.00    +0.000 C 
BRANCH  18  21
ATOM     19  C   UNL     1      48.626   8.741  15.756  0.00  0.00    +0.000 C 
ATOM     20  O   UNL     1      49.771   8.878  15.336  0.00  0.00    +0.000 OA
ATOM     21  N   UNL     1      47.532   9.014  14.976  0.00  0.00    +0.000 N 
ATOM     22  H   UNL     1      46.612   8.759  15.315  0.00  0.00    +0.000 HD
BRANCH  19  30
ATOM     23  C   UNL     1      48.603   5.717  17.281  0.00  0.00    +0.000 A 
ATOM     24  N   UNL     1      48.507   4.627  18.081  0.00  0.00    +0.000 NA
ATOM     25  C   UNL     1      48.169   4.773  19.367  0.00  0.00    +0.000 A 
ATOM     26  C   UNL     1      47.910   5.988  19.958  0.00  0.00    +0.000 A 
ATOM     27  C   UNL     1      48.010   7.115  19.131  0.00  0.00    +0.000 A 
ATOM     28  S   UNL     1      47.763   8.740  19.629  0.00  0.00    +0.000 S 
ATOM     29  C   UNL     1      48.097   9.335  18.079  0.00  0.00    +0.000 A 
ATOM     30  C   UNL     1      48.358   8.344  17.146  0.00  0.00    +0.000 A 
ATOM     31  C   UNL     1      48.340   7.020  17.771  0.00  0.00    +0.000 A 
BRANCH  23  33
ATOM     32  C   UNL     1      47.840   5.205  15.125  0.00  0.00    +0.000 C 
ATOM     33  O   UNL     1      48.953   5.527  15.957  0.00  0.00    +0.000 OA
ENDBRANCH  23  33
ENDBRANCH  19  30
ENDBRANCH  18  21
ENDBRANCH   1  18
TORSDOF 8
ENDMDL
MODEL 4
REMARK VINA RESULT:    -7.013      1.627      1.884
REMARK INTER + INTRA:         -12.232
REMARK INTER:                 -10.610
REMARK INTRA:                  -1.622
REMARK UNBOUND:                -1.939
REMARK  Name = 
REMARK  10 active torsions:
REMARK  status: ('A' for Active; 'I' for Inactive)
REMARK    1  A    between atoms: C_1  and  O_2
REMARK    2  A    between atoms: O_2  and  C_3
REMARK    3  A    between atoms: C_10  and  C_11
REMARK    4  A    between atoms: N_13  and  C_14
REMARK    5  A    between atoms: C_14  and  C_15
REMARK    6  A    between atoms: C_18  and  N_19
REMARK    7  A    between atoms: N_19  and  C_20
REMARK    8  A    between atoms: C_20  and  C_21
REMARK    9  A    between atoms: C_20  and  C_22
REMARK   10  A    between atoms: C_22  and  C_23
REMARK                            x       y       z     vdW  Elec       q    Type
REMARK                         _______ _______ _______ _____ _____    ______ ____
ROOT
ATOM      1  C   UNL     1      47.747   8.046  13.070  0.00  0.00    +0.000 A 
ATOM      2  C   UNL     1      46.490   8.658  13.089  0.00  0.00    +0.000 A 
ATOM      3  C   UNL     1      45.413   8.084  12.402  0.00  0.00    +0.000 A 
ATOM      4  C   UNL     1      45.564   6.908  11.657  0.00  0.00    +0.000 A 
ATOM      5  C   UNL     1      46.830   6.319  11.625  0.00  0.00    +0.000 A 
ATOM      6  C   UNL     1      47.906   6.872  12.328  0.00  0.00    +0.000 A 
ENDROOT
BRANCH   4   7
ATOM      7  N   UNL     1      44.419   6.336  11.090  0.00  0.00    +0.000 N 
ATOM      8  H   UNL     1      43.584   6.813  11.427  0.00  0.00    +0.000 HD
BRANCH   7   9
ATOM      9  C   UNL     1      44.269   4.871  11.046  0.00  0.00    +0.000 C 
ATOM     10  C   UNL     1      43.163   4.420  12.009  0.00  0.00    +0.000 C 
BRANCH   9  11
ATOM     11  C   UNL     1      43.879   4.422   9.623  0.00  0.00    +0.000 C 
BRANCH  11  12
ATOM     12  C   UNL     1      44.930   3.610   8.908  0.00  0.00    +0.000 A 
ATOM     13  C   UNL     1      45.798   4.224   8.004  0.00  0.00    +0.000 A 
ATOM     14  C   UNL     1      46.705   3.442   7.300  0.00  0.00    +0.000 A 
ATOM     15  C   UNL     1      46.732   2.071   7.519  0.00  0.00    +0.000 A 
ATOM     16  C   UNL     1      45.849   1.541   8.445  0.00  0.00    +0.000 A 
ATOM     17  N   UNL     1      44.947   2.273   9.137  0.00  0.00    +0.000 NA
ENDBRANCH  11  12
ENDBRANCH   9  11
ENDBRANCH   7   9
ENDBRANCH   4   7
BRANCH   1  18
ATOM     18  C   UNL     1      48.889   8.580  13.892  0.00  0.00    +0.000 C 
BRANCH  18  21
ATOM     19  C   UNL     1      48.584   8.259  16.304  0.00  0.00    +0.000 C 
ATOM     20  O   UNL     1      47.894   9.271  16.392  0.00  0.00    +0.000 OA
ATOM     21  N   UNL     1      49.052   7.806  15.097  0.00  0.00    +0.000 N 
ATOM     22  H   UNL     1      49.725   7.049  15.086  0.00  0.00    +0.000 HD
BRANCH  19  30
ATOM     23  C   UNL     1      48.296   4.933  16.870  0.00  0.00    +0.000 A 
ATOM     24  N   UNL     1      48.238   3.657  17.326  0.00  0.00    +0.000 NA
ATOM     25  C   UNL     1      48.617   3.379  18.578  0.00  0.00    +0.000 A 
ATOM     26  C   UNL     1      49.081   4.322  19.466  0.00  0.00    +0.000 A 
ATOM     27  C   UNL     1      49.141   5.640  18.996  0.00  0.00    +0.000 A 
ATOM     28  S   UNL     1      49.706   6.992  19.893  0.00  0.00    +0.000 S 
ATOM     29  C   UNL     1      49.442   8.047  18.594  0.00  0.00    +0.000 A 
ATOM     30  C   UNL     1      48.891   7.433  17.481  0.00  0.00    +0.000 A 
ATOM     31  C   UNL     1      48.738   5.994  17.699  0.00  0.00    +0.000 A 
BRANCH  23  33
ATOM     32  C   UNL     1      47.155   4.106  14.998  0.00  0.00    +0.000 C 
ATOM     33  O   UNL     1      47.895   5.182  15.572  0.00  0.00    +0.000 OA
ENDBRANCH  23  33
ENDBRANCH  19  30
ENDBRANCH  18  21
ENDBRANCH   1  18
TORSDOF 8
ENDMDL
MODEL 5
REMARK VINA RESULT:    -6.348      3.599      8.898
REMARK INTER + INTRA:         -11.257
REMARK INTER:                  -9.670
REMARK INTRA:                  -1.587
REMARK UNBOUND:                -1.939
REMARK  Name = 
REMARK  10 active torsions:
REMARK  status: ('A' for Active; 'I' for Inactive)
REMARK    1  A    between atoms: C_1  and  O_2
REMARK    2  A    between atoms: O_2  and  C_3
REMARK    3  A    between atoms: C_10  and  C_11
REMARK    4  A    between atoms: N_13  and  C_14
REMARK    5  A    between atoms: C_14  and  C_15
REMARK    6  A    between atoms: C_18  and  N_19
REMARK    7  A    between atoms: N_19  and  C_20
REMARK    8  A    between atoms: C_20  and  C_21
REMARK    9  A    between atoms: C_20  and  C_22
REMARK   10  A    between atoms: C_22  and  C_23
REMARK                            x       y       z     vdW  Elec       q    Type
REMARK                         _______ _______ _______ _____ _____    ______ ____
ROOT
ATOM      1  C   UNL     1      48.748   3.237  17.323  0.00  0.00    +0.000 A 
ATOM      2  C   UNL     1      49.399   4.369  17.824  0.00  0.00    +0.000 A 
ATOM      3  C   UNL     1      50.787   4.365  18.006  0.00  0.00    +0.000 A 
ATOM      4  C   UNL     1      51.558   3.231  17.725  0.00  0.00    +0.000 A 
ATOM      5  C   UNL     1      50.895   2.098  17.249  0.00  0.00    +0.000 A 
ATOM      6  C   UNL     1      49.511   2.101  17.041  0.00  0.00    +0.000 A 
ENDROOT
BRANCH   4   7
ATOM      7  N   UNL     1      52.951   3.339  17.828  0.00  0.00    +0.000 N 
ATOM      8  H   UNL     1      53.390   2.453  17.582  0.00  0.00    +0.000 HD
BRANCH   7   9
ATOM      9  C   UNL     1      53.557   3.977  19.009  0.00  0.00    +0.000 C 
ATOM     10  C   UNL     1      54.012   2.912  20.015  0.00  0.00    +0.000 C 
BRANCH   9  11
ATOM     11  C   UNL     1      54.793   4.799  18.589  0.00  0.00    +0.000 C 
BRANCH  11  12
ATOM     12  C   UNL     1      54.749   5.329  17.178  0.00  0.00    +0.000 A 
ATOM     13  C   UNL     1      55.743   4.975  16.264  0.00  0.00    +0.000 A 
ATOM     14  C   UNL     1      55.723   5.538  14.993  0.00  0.00    +0.000 A 
ATOM     15  C   UNL     1      54.712   6.429  14.662  0.00  0.00    +0.000 A 
ATOM     16  C   UNL     1      53.754   6.715  15.620  0.00  0.00    +0.000 A 
ATOM     17  N   UNL     1      53.752   6.194  16.867  0.00  0.00    +0.000 NA
ENDBRANCH  11  12
ENDBRANCH   9  11
ENDBRANCH   7   9
ENDBRANCH   4   7
BRANCH   1  18
ATOM     18  C   UNL     1      47.276   3.256  17.012  0.00  0.00    +0.000 C 
BRANCH  18  21
ATOM     19  C   UNL     1      47.096   4.180  14.747  0.00  0.00    +0.000 C 
ATOM     20  O   UNL     1      47.352   3.092  14.240  0.00  0.00    +0.000 OA
ATOM     21  N   UNL     1      46.964   4.332  16.104  0.00  0.00    +0.000 N 
ATOM     22  H   UNL     1      46.887   5.266  16.486  0.00  0.00    +0.000 HD
BRANCH  19  30
ATOM     23  C   UNL     1      44.517   5.028  12.723  0.00  0.00    +0.000 A 
ATOM     24  N   UNL     1      43.624   5.555  11.849  0.00  0.00    +0.000 NA
ATOM     25  C   UNL     1      43.869   6.741  11.281  0.00  0.00    +0.000 A 
ATOM     26  C   UNL     1      44.993   7.494  11.531  0.00  0.00    +0.000 A 
ATOM     27  C   UNL     1      45.916   6.949  12.434  0.00  0.00    +0.000 A 
ATOM     28  S   UNL     1      47.379   7.697  12.933  0.00  0.00    +0.000 S 
ATOM     29  C   UNL     1      47.767   6.405  13.958  0.00  0.00    +0.000 A 
ATOM     30  C   UNL     1      46.844   5.372  13.925  0.00  0.00    +0.000 A 
ATOM     31  C   UNL     1      45.722   5.700  13.044  0.00  0.00    +0.000 A 
BRANCH  23  33
ATOM     32  C   UNL     1      43.596   2.901  12.381  0.00  0.00    +0.000 C 
ATOM     33  O   UNL     1      44.231   3.800  13.288  0.00  0.00    +0.000 OA
ENDBRANCH  23  33
ENDBRANCH  19  30
ENDBRANCH  18  21
ENDBRANCH   1  18
TORSDOF 8
ENDMDL
MODEL 6
REMARK VINA RESULT:    -6.309      2.145      2.933
REMARK INTER + INTRA:         -11.199
REMARK INTER:                  -9.678
REMARK INTRA:                  -1.521
REMARK UNBOUND:                -1.939
REMARK  Name = 
REMARK  10 active torsions:
REMARK  status: ('A' for Active; 'I' for Inactive)
REMARK    1  A    between atoms: C_1  and  O_2
REMARK    2  A    between atoms: O_2  and  C_3
REMARK    3  A    between atoms: C_10  and  C_11
REMARK    4  A    between atoms: N_13  and  C_14
REMARK    5  A    between atoms: C_14  and  C_15
REMARK    6  A    between atoms: C_18  and  N_19
REMARK    7  A    between atoms: N_19  and  C_20
REMARK    8  A    between atoms: C_20  and  C_21
REMARK    9  A    between atoms: C_20  and  C_22
REMARK   10  A    between atoms: C_22  and  C_23
REMARK                            x       y       z     vdW  Elec       q    Type
REMARK                         _______ _______ _______ _____ _____    ______ ____
ROOT
ATOM      1  C   UNL     1      47.779   8.898  12.187  0.00  0.00    +0.000 A 
ATOM      2  C   UNL     1      46.448   9.246  12.436  0.00  0.00    +0.000 A 
ATOM      3  C   UNL     1      45.425   8.306  12.258  0.00  0.00    +0.000 A 
ATOM      4  C   UNL     1      45.694   7.010  11.802  0.00  0.00    +0.000 A 
ATOM      5  C   UNL     1      47.024   6.681  11.532  0.00  0.00    +0.000 A 
ATOM      6  C   UNL     1      48.055   7.606  11.730  0.00  0.00    +0.000 A 
ENDROOT
BRANCH   4   7
ATOM      7  N   UNL     1      44.635   6.095  11.755  0.00  0.00    +0.000 N 
ATOM      8  H   UNL     1      44.087   6.148  12.612  0.00  0.00    +0.000 HD
BRANCH   7   9
ATOM      9  C   UNL     1      44.874   4.712  11.306  0.00  0.00    +0.000 C 
ATOM     10  C   UNL     1      44.230   3.717  12.281  0.00  0.00    +0.000 C 
BRANCH   9  11
ATOM     11  C   UNL     1      44.248   4.492   9.913  0.00  0.00    +0.000 C 
BRANCH  11  12
ATOM     12  C   UNL     1      45.101   3.698   8.956  0.00  0.00    +0.000 A 
ATOM     13  C   UNL     1      45.196   2.312   9.086  0.00  0.00    +0.000 A 
ATOM     14  C   UNL     1      46.050   1.612   8.241  0.00  0.00    +0.000 A 
ATOM     15  C   UNL     1      46.777   2.307   7.285  0.00  0.00    +0.000 A 
ATOM     16  C   UNL     1      46.613   3.680   7.210  0.00  0.00    +0.000 A 
ATOM     17  N   UNL     1      45.801   4.391   8.024  0.00  0.00    +0.000 NA
ENDBRANCH  11  12
ENDBRANCH   9  11
ENDBRANCH   7   9
ENDBRANCH   4   7
BRANCH   1  18
ATOM     18  C   UNL     1      48.905   9.853  12.479  0.00  0.00    +0.000 C 
BRANCH  18  21
ATOM     19  C   UNL     1      50.906   8.743  13.360  0.00  0.00    +0.000 C 
ATOM     20  O   UNL     1      51.413   8.684  12.243  0.00  0.00    +0.000 OA
ATOM     21  N   UNL     1      49.706   9.370  13.576  0.00  0.00    +0.000 N 
ATOM     22  H   UNL     1      49.262   9.278  14.482  0.00  0.00    +0.000 HD
BRANCH  19  30
ATOM     23  C   UNL     1      49.947   6.488  15.698  0.00  0.00    +0.000 A 
ATOM     24  N   UNL     1      49.768   5.649  16.747  0.00  0.00    +0.000 NA
ATOM     25  C   UNL     1      50.734   5.510  17.662  0.00  0.00    +0.000 A 
ATOM     26  C   UNL     1      51.938   6.173  17.611  0.00  0.00    +0.000 A 
ATOM     27  C   UNL     1      52.125   7.040  16.527  0.00  0.00    +0.000 A 
ATOM     28  S   UNL     1      53.542   7.960  16.220  0.00  0.00    +0.000 S 
ATOM     29  C   UNL     1      52.887   8.619  14.804  0.00  0.00    +0.000 A 
ATOM     30  C   UNL     1      51.590   8.206  14.545  0.00  0.00    +0.000 A 
ATOM     31  C   UNL     1      51.138   7.241  15.549  0.00  0.00    +0.000 A 
BRANCH  23  33
ATOM     32  C   UNL     1      47.841   5.715  15.022  0.00  0.00    +0.000 C 
ATOM     33  O   UNL     1      48.927   6.607  14.774  0.00  0.00    +0.000 OA
ENDBRANCH  23  33
ENDBRANCH  19  30
ENDBRANCH  18  21
ENDBRANCH   1  18
TORSDOF 8
ENDMDL
MODEL 7
REMARK VINA RESULT:    -6.286      4.391      9.182
REMARK INTER + INTRA:         -11.164
REMARK INTER:                  -9.953
REMARK INTRA:                  -1.211
REMARK UNBOUND:                -1.939
REMARK  Name = 
REMARK  10 active torsions:
REMARK  status: ('A' for Active; 'I' for Inactive)
REMARK    1  A    between atoms: C_1  and  O_2
REMARK    2  A    between atoms: O_2  and  C_3
REMARK    3  A    between atoms: C_10  and  C_11
REMARK    4  A    between atoms: N_13  and  C_14
REMARK    5  A    between atoms: C_14  and  C_15
REMARK    6  A    between atoms: C_18  and  N_19
REMARK    7  A    between atoms: N_19  and  C_20
REMARK    8  A    between atoms: C_20  and  C_21
REMARK    9  A    between atoms: C_20  and  C_22
REMARK   10  A    between atoms: C_22  and  C_23
REMARK                            x       y       z     vdW  Elec       q    Type
REMARK                         _______ _______ _______ _____ _____    ______ ____
ROOT
ATOM      1  C   UNL     1      48.672   3.383  17.488  0.00  0.00    +0.000 A 
ATOM      2  C   UNL     1      49.069   4.492  18.240  0.00  0.00    +0.000 A 
ATOM      3  C   UNL     1      50.416   4.672  18.579  0.00  0.00    +0.000 A 
ATOM      4  C   UNL     1      51.394   3.742  18.208  0.00  0.00    +0.000 A 
ATOM      5  C   UNL     1      50.982   2.625  17.479  0.00  0.00    +0.000 A 
ATOM      6  C   UNL     1      49.643   2.449  17.114  0.00  0.00    +0.000 A 
ENDROOT
BRANCH   4   7
ATOM      7  N   UNL     1      52.732   4.046  18.487  0.00  0.00    +0.000 N 
ATOM      8  H   UNL     1      52.904   5.040  18.340  0.00  0.00    +0.000 HD
BRANCH   7   9
ATOM      9  C   UNL     1      53.809   3.189  17.963  0.00  0.00    +0.000 C 
ATOM     10  C   UNL     1      55.046   4.033  17.626  0.00  0.00    +0.000 C 
BRANCH   9  11
ATOM     11  C   UNL     1      54.216   2.144  19.023  0.00  0.00    +0.000 C 
BRANCH  11  12
ATOM     12  C   UNL     1      54.483   0.764  18.479  0.00  0.00    +0.000 A 
ATOM     13  C   UNL     1      54.511   0.546  17.101  0.00  0.00    +0.000 A 
ATOM     14  C   UNL     1      54.681  -0.749  16.625  0.00  0.00    +0.000 A 
ATOM     15  C   UNL     1      54.828  -1.791  17.531  0.00  0.00    +0.000 A 
ATOM     16  C   UNL     1      54.806  -1.488  18.882  0.00  0.00    +0.000 A 
ATOM     17  N   UNL     1      54.631  -0.242  19.377  0.00  0.00    +0.000 NA
ENDBRANCH  11  12
ENDBRANCH   9  11
ENDBRANCH   7   9
ENDBRANCH   4   7
BRANCH   1  18
ATOM     18  C   UNL     1      47.252   3.227  17.014  0.00  0.00    +0.000 C 
BRANCH  18  21
ATOM     19  C   UNL     1      47.102   4.185  14.762  0.00  0.00    +0.000 C 
ATOM     20  O   UNL     1      47.464   3.132  14.246  0.00  0.00    +0.000 OA
ATOM     21  N   UNL     1      46.898   4.296  16.114  0.00  0.00    +0.000 N 
ATOM     22  H   UNL     1      46.732   5.213  16.510  0.00  0.00    +0.000 HD
BRANCH  19  30
ATOM     23  C   UNL     1      44.505   4.920  12.717  0.00  0.00    +0.000 A 
ATOM     24  N   UNL     1      43.595   5.409  11.839  0.00  0.00    +0.000 NA
ATOM     25  C   UNL     1      43.781   6.614  11.289  0.00  0.00    +0.000 A 
ATOM     26  C   UNL     1      44.860   7.423  11.563  0.00  0.00    +0.000 A 
ATOM     27  C   UNL     1      45.800   6.918  12.470  0.00  0.00    +0.000 A 
ATOM     28  S   UNL     1      47.215   7.737  12.997  0.00  0.00    +0.000 S 
ATOM     29  C   UNL     1      47.660   6.454  14.010  0.00  0.00    +0.000 A 
ATOM     30  C   UNL     1      46.795   5.373  13.952  0.00  0.00    +0.000 A 
ATOM     31  C   UNL     1      45.667   5.652  13.062  0.00  0.00    +0.000 A 
BRANCH  23  33
ATOM     32  C   UNL     1      43.544   2.806  12.398  0.00  0.00    +0.000 C 
ATOM     33  O   UNL     1      44.279   3.670  13.263  0.00  0.00    +0.000 OA
ENDBRANCH  23  33
ENDBRANCH  19  30
ENDBRANCH  18  21
ENDBRANCH   1  18
TORSDOF 8
ENDMDL
MODEL 8
REMARK VINA RESULT:    -5.925      3.417      7.871
REMARK INTER + INTRA:         -10.635
REMARK INTER:                  -8.890
REMARK INTRA:                  -1.745
REMARK UNBOUND:                -1.939
REMARK  Name = 
REMARK  10 active torsions:
REMARK  status: ('A' for Active; 'I' for Inactive)
REMARK    1  A    between atoms: C_1  and  O_2
REMARK    2  A    between atoms: O_2  and  C_3
REMARK    3  A    between atoms: C_10  and  C_11
REMARK    4  A    between atoms: N_13  and  C_14
REMARK    5  A    between atoms: C_14  and  C_15
REMARK    6  A    between atoms: C_18  and  N_19
REMARK    7  A    between atoms: N_19  and  C_20
REMARK    8  A    between atoms: C_20  and  C_21
REMARK    9  A    between atoms: C_20  and  C_22
REMARK   10  A    between atoms: C_22  and  C_23
REMARK                            x       y       z     vdW  Elec       q    Type
REMARK                         _______ _______ _______ _____ _____    ______ ____
ROOT
ATOM      1  C   UNL     1      48.432   8.600  15.456  0.00  0.00    +0.000 A 
ATOM      2  C   UNL     1      49.066   7.357  15.542  0.00  0.00    +0.000 A 
ATOM      3  C   UNL     1      49.450   6.842  16.787  0.00  0.00    +0.000 A 
ATOM      4  C   UNL     1      49.241   7.560  17.970  0.00  0.00    +0.000 A 
ATOM      5  C   UNL     1      48.630   8.811  17.871  0.00  0.00    +0.000 A 
ATOM      6  C   UNL     1      48.221   9.322  16.634  0.00  0.00    +0.000 A 
ENDROOT
BRANCH   4   7
ATOM      7  N   UNL     1      49.551   6.933  19.184  0.00  0.00    +0.000 N 
ATOM      8  H   UNL     1      50.361   6.326  19.069  0.00  0.00    +0.000 HD
BRANCH   7   9
ATOM      9  C   UNL     1      48.482   6.324  19.994  0.00  0.00    +0.000 C 
ATOM     10  C   UNL     1      47.145   6.383  19.243  0.00  0.00    +0.000 C 
BRANCH   9  11
ATOM     11  C   UNL     1      48.809   4.842  20.274  0.00  0.00    +0.000 C 
BRANCH  11  12
ATOM     12  C   UNL     1      49.358   4.083  19.091  0.00  0.00    +0.000 A 
ATOM     13  C   UNL     1      48.521   3.263  18.334  0.00  0.00    +0.000 A 
ATOM     14  C   UNL     1      49.066   2.514  17.298  0.00  0.00    +0.000 A 
ATOM     15  C   UNL     1      50.426   2.608  17.036  0.00  0.00    +0.000 A 
ATOM     16  C   UNL     1      51.185   3.457  17.824  0.00  0.00    +0.000 A 
ATOM     17  N   UNL     1      50.687   4.190  18.845  0.00  0.00    +0.000 NA
ENDBRANCH  11  12
ENDBRANCH   9  11
ENDBRANCH   7   9
ENDBRANCH   4   7
BRANCH   1  18
ATOM     18  C   UNL     1      47.908   9.122  14.146  0.00  0.00    +0.000 C 
BRANCH  18  21
ATOM     19  C   UNL     1      46.883   7.486  12.633  0.00  0.00    +0.000 C 
ATOM     20  O   UNL     1      47.960   7.250  12.094  0.00  0.00    +0.000 OA
ATOM     21  N   UNL     1      46.781   8.339  13.703  0.00  0.00    +0.000 N 
ATOM     22  H   UNL     1      45.861   8.608  14.028  0.00  0.00    +0.000 HD
BRANCH  19  30
ATOM     23  C   UNL     1      45.851   4.272  12.901  0.00  0.00    +0.000 A 
ATOM     24  N   UNL     1      45.253   3.055  12.869  0.00  0.00    +0.000 NA
ATOM     25  C   UNL     1      44.052   2.919  12.296  0.00  0.00    +0.000 A 
ATOM     26  C   UNL     1      43.353   3.956  11.724  0.00  0.00    +0.000 A 
ATOM     27  C   UNL     1      43.970   5.213  11.757  0.00  0.00    +0.000 A 
ATOM     28  S   UNL     1      43.300   6.668  11.138  0.00  0.00    +0.000 S 
ATOM     29  C   UNL     1      44.650   7.572  11.618  0.00  0.00    +0.000 A 
ATOM     30  C   UNL     1      45.646   6.813  12.210  0.00  0.00    +0.000 A 
ATOM     31  C   UNL     1      45.238   5.412  12.326  0.00  0.00    +0.000 A 
BRANCH  23  33
ATOM     32  C   UNL     1      47.025   4.409  14.925  0.00  0.00    +0.000 C 
ATOM     33  O   UNL     1      47.092   4.374  13.500  0.00  0.00    +0.000 OA
ENDBRANCH  23  33
ENDBRANCH  19  30
ENDBRANCH  18  21
ENDBRANCH   1  18
TORSDOF 8
ENDMDL
MODEL 9
REMARK VINA RESULT:    -5.852      3.486      8.101
REMARK INTER + INTRA:         -10.529
REMARK INTER:                  -8.338
REMARK INTRA:                  -2.191
REMARK UNBOUND:                -1.939
REMARK  Name = 
REMARK  10 active torsions:
REMARK  status: ('A' for Active; 'I' for Inactive)
REMARK    1  A    between atoms: C_1  and  O_2
REMARK    2  A    between atoms: O_2  and  C_3
REMARK    3  A    between atoms: C_10  and  C_11
REMARK    4  A    between atoms: N_13  and  C_14
REMARK    5  A    between atoms: C_14  and  C_15
REMARK    6  A    between atoms: C_18  and  N_19
REMARK    7  A    between atoms: N_19  and  C_20
REMARK    8  A    between atoms: C_20  and  C_21
REMARK    9  A    between atoms: C_20  and  C_22
REMARK   10  A    between atoms: C_22  and  C_23
REMARK                            x       y       z     vdW  Elec       q    Type
REMARK                         _______ _______ _______ _____ _____    ______ ____
ROOT
ATOM      1  C   UNL     1      49.302   8.100  15.900  0.00  0.00    +0.000 A 
ATOM      2  C   UNL     1      50.427   7.273  15.983  0.00  0.00    +0.000 A 
ATOM      3  C   UNL     1      50.916   6.866  17.231  0.00  0.00    +0.000 A 
ATOM      4  C   UNL     1      50.321   7.293  18.424  0.00  0.00    +0.000 A 
ATOM      5  C   UNL     1      49.213   8.138  18.330  0.00  0.00    +0.000 A 
ATOM      6  C   UNL     1      48.703   8.530  17.087  0.00  0.00    +0.000 A 
ENDROOT
BRANCH   4   7
ATOM      7  N   UNL     1      50.798   6.756  19.626  0.00  0.00    +0.000 N 
ATOM      8  H   UNL     1      51.667   7.215  19.895  0.00  0.00    +0.000 HD
BRANCH   7   9
ATOM      9  C   UNL     1      50.829   5.296  19.822  0.00  0.00    +0.000 C 
ATOM     10  C   UNL     1      51.547   4.951  21.134  0.00  0.00    +0.000 C 
BRANCH   9  11
ATOM     11  C   UNL     1      49.392   4.742  19.901  0.00  0.00    +0.000 C 
BRANCH  11  12
ATOM     12  C   UNL     1      48.876   4.142  18.617  0.00  0.00    +0.000 A 
ATOM     13  C   UNL     1      47.703   4.627  18.037  0.00  0.00    +0.000 A 
ATOM     14  C   UNL     1      47.206   4.006  16.897  0.00  0.00    +0.000 A 
ATOM     15  C   UNL     1      47.894   2.927  16.359  0.00  0.00    +0.000 A 
ATOM     16  C   UNL     1      49.059   2.517  16.984  0.00  0.00    +0.000 A 
ATOM     17  N   UNL     1      49.562   3.092  18.100  0.00  0.00    +0.000 NA
ENDBRANCH  11  12
ENDBRANCH   9  11
ENDBRANCH   7   9
ENDBRANCH   4   7
BRANCH   1  18
ATOM     18  C   UNL     1      48.690   8.456  14.572  0.00  0.00    +0.000 C 
BRANCH  18  21
ATOM     19  C   UNL     1      47.892   6.499  13.329  0.00  0.00    +0.000 C 
ATOM     20  O   UNL     1      49.017   6.265  12.897  0.00  0.00    +0.000 OA
ATOM     21  N   UNL     1      47.657   7.514  14.221  0.00  0.00    +0.000 N 
ATOM     22  H   UNL     1      46.700   7.756  14.446  0.00  0.00    +0.000 HD
BRANCH  19  30
ATOM     23  C   UNL     1      44.924   7.229  11.872  0.00  0.00    +0.000 A 
ATOM     24  N   UNL     1      43.678   7.293  11.340  0.00  0.00    +0.000 NA
ATOM     25  C   UNL     1      42.935   6.184  11.254  0.00  0.00    +0.000 A 
ATOM     26  C   UNL     1      43.356   4.943  11.671  0.00  0.00    +0.000 A 
ATOM     27  C   UNL     1      44.643   4.877  12.221  0.00  0.00    +0.000 A 
ATOM     28  S   UNL     1      45.411   3.450  12.790  0.00  0.00    +0.000 S 
ATOM     29  C   UNL     1      46.819   4.295  13.206  0.00  0.00    +0.000 A 
ATOM     30  C   UNL     1      46.741   5.658  12.972  0.00  0.00    +0.000 A 
ATOM     31  C   UNL     1      45.460   6.011  12.355  0.00  0.00    +0.000 A 
BRANCH  23  33
ATOM     32  C   UNL     1      44.852   9.568  12.003  0.00  0.00    +0.000 C 
ATOM     33  O   UNL     1      45.662   8.395  11.946  0.00  0.00    +0.000 OA
ENDBRANCH  23  33
ENDBRANCH  19  30
ENDBRANCH  18  21
ENDBRANCH   1  18
TORSDOF 8
ENDMDL
