MODEL 1
REMARK VINA RESULT:    -9.221      0.000      0.000
REMARK INTER + INTRA:         -14.125
REMARK INTER:                 -12.995
REMARK INTRA:                  -1.130
REMARK UNBOUND:                -1.130
REMARK  Name = 
REMARK  8 active torsions:
REMARK  status: ('A' for Active; 'I' for Inactive)
REMARK    1  A    between atoms: C_1  and  C_2
REMARK    2  A    between atoms: C_2  and  N_3
REMARK    3  A    between atoms: C_2  and  C_26
REMARK    4  A    between atoms: N_3  and  C_4
REMARK    5  A    between atoms: C_4  and  C_5
REMARK    6  A    between atoms: C_10  and  C_11
REMARK    7  A    between atoms: C_11  and  N_12
REMARK    8  A    between atoms: C_13  and  C_15
REMARK                            x       y       z     vdW  Elec       q    Type
REMARK                         _______ _______ _______ _____ _____    ______ ____
ROOT
ATOM      1  C   UNL     1      45.058   6.014  11.994  0.00  0.00    +0.000 A 
ATOM      2  C   UNL     1      46.063   6.852  11.496  0.00  0.00    +0.000 A 
ATOM      3  C   UNL     1      47.334   6.821  12.059  0.00  0.00    +0.000 A 
ATOM      4  F   UNL     1      48.293   7.617  11.564  0.00  0.00    +0.000 F 
ATOM      5  C   UNL     1      47.640   5.961  13.108  0.00  0.00    +0.000 A 
ATOM      6  C   UNL     1      46.654   5.107  13.616  0.00  0.00    +0.000 A 
ATOM      7  C   UNL     1      45.361   5.164  13.073  0.00  0.00    +0.000 A 
ENDROOT
BRANCH   1   8
ATOM      8  C   UNL     1      43.689   5.963  11.353  0.00  0.00    +0.000 C 
BRANCH   8   9
ATOM      9  N   UNL     1      43.641   4.967  10.291  0.00  0.00    +0.000 NA
ATOM     10  H   UNL     1      44.016   5.378   9.437  0.00  0.00    +0.000 HD
BRANCH   9  12
ATOM     11  C   UNL     1      43.498   2.558  11.011  0.00  0.00    +0.000 C 
ATOM     12  C   UNL     1      44.385   3.735  10.584  0.00  0.00    +0.000 C 
BRANCH  12  13
ATOM     13  C   UNL     1      45.191   3.339   9.354  0.00  0.00    +0.000 A 
ATOM     14  C   UNL     1      45.630   4.312   8.436  0.00  0.00    +0.000 A 
ATOM     15  C   UNL     1      46.365   3.949   7.303  0.00  0.00    +0.000 A 
ATOM     16  C   UNL     1      46.669   2.609   7.073  0.00  0.00    +0.000 A 
ATOM     17  C   UNL     1      46.241   1.638   7.976  0.00  0.00    +0.000 A 
ATOM     18 CL   UNL     1      46.620  -0.017   7.694  0.00  0.00    +0.000 Cl
ATOM     19  C   UNL     1      45.505   1.997   9.109  0.00  0.00    +0.000 A 
ENDBRANCH  12  13
ENDBRANCH   9  12
ENDBRANCH   8   9
ENDBRANCH   1   8
BRANCH   6  20
ATOM     20  C   UNL     1      46.969   4.135  14.719  0.00  0.00    +0.000 C 
BRANCH  20  21
ATOM     21  N   UNL     1      47.462   4.799  15.896  0.00  0.00    +0.000 N 
ATOM     22  C   UNL     1      47.211   4.334  17.159  0.00  0.00    +0.000 C 
ATOM     23  O   UNL     1      46.531   3.332  17.369  0.00  0.00    +0.000 OA
ATOM     24  H   UNL     1      47.863   5.723  15.771  0.00  0.00    +0.000 HD
BRANCH  22  25
ATOM     25  C   UNL     1      47.868   5.047  18.260  0.00  0.00    +0.000 A 
ATOM     26  C   UNL     1      47.097   5.770  19.161  0.00  0.00    +0.000 A 
ATOM     27  S   UNL     1      48.007   6.531  20.387  0.00  0.00    +0.000 S 
ATOM     28  C   UNL     1      49.467   5.952  19.735  0.00  0.00    +0.000 A 
ATOM     29  N   UNL     1      50.662   6.277  20.299  0.00  0.00    +0.000 NA
ATOM     30  C   UNL     1      51.691   5.799  19.686  0.00  0.00    +0.000 A 
ATOM     31  N   UNL     1      51.635   5.008  18.567  0.00  0.00    +0.000 N 
ATOM     32  C   UNL     1      50.450   4.597  18.001  0.00  0.00    +0.000 A 
ATOM     33  O   UNL     1      50.429   3.791  17.079  0.00  0.00    +0.000 OA
ATOM     34  C   UNL     1      49.263   5.158  18.621  0.00  0.00    +0.000 A 
ATOM     35  H   UNL     1      52.477   4.638  18.153  0.00  0.00    +0.000 HD
ENDBRANCH  22  25
ENDBRANCH  20  21
ENDBRANCH   6  20
TORSDOF 7
ENDMDL
MODEL 2
REMARK VINA RESULT:    -7.957      4.228      9.411
REMARK INTER + INTRA:         -12.344
REMARK INTER:                 -10.862
REMARK INTRA:                  -1.482
REMARK UNBOUND:                -1.130
REMARK  Name = 
REMARK  8 active torsions:
REMARK  status: ('A' for Active; 'I' for Inactive)
REMARK    1  A    between atoms: C_1  and  C_2
REMARK    2  A    between atoms: C_2  and  N_3
REMARK    3  A    between atoms: C_2  and  C_26
REMARK    4  A    between atoms: N_3  and  C_4
REMARK    5  A    between atoms: C_4  and  C_5
REMARK    6  A    between atoms: C_10  and  C_11
REMARK    7  A    between atoms: C_11  and  N_12
REMARK    8  A    between atoms: C_13  and  C_15
REMARK                            x       y       z     vdW  Elec       q    Type
REMARK                         _______ _______ _______ _____ _____    ______ ____
ROOT
ATOM      1  C   UNL     1      49.267   4.893  19.086  0.00  0.00    +0.000 A 
ATOM      2  C   UNL     1      48.496   3.731  18.957  0.00  0.00    +0.000 A 
ATOM      3  C   UNL     1      47.804   3.485  17.776  0.00  0.00    +0.000 A 
ATOM      4  F   UNL     1      47.081   2.363  17.658  0.00  0.00    +0.000 F 
ATOM      5  C   UNL     1      47.868   4.368  16.702  0.00  0.00    +0.000 A 
ATOM      6  C   UNL     1      48.640   5.531  16.805  0.00  0.00    +0.000 A 
ATOM      7  C   UNL     1      49.309   5.798  18.010  0.00  0.00    +0.000 A 
ENDROOT
BRANCH   1   8
ATOM      8  C   UNL     1      50.096   5.152  20.324  0.00  0.00    +0.000 C 
BRANCH   8   9
ATOM      9  N   UNL     1      51.365   4.438  20.267  0.00  0.00    +0.000 NA
ATOM     10  H   UNL     1      51.197   3.452  20.464  0.00  0.00    +0.000 HD
BRANCH   9  12
ATOM     11  C   UNL     1      53.290   5.464  19.009  0.00  0.00    +0.000 C 
ATOM     12  C   UNL     1      52.061   4.545  18.979  0.00  0.00    +0.000 C 
BRANCH  12  13
ATOM     13  C   UNL     1      52.483   3.153  18.526  0.00  0.00    +0.000 A 
ATOM     14  C   UNL     1      51.642   2.376  17.707  0.00  0.00    +0.000 A 
ATOM     15  C   UNL     1      52.025   1.096  17.296  0.00  0.00    +0.000 A 
ATOM     16  C   UNL     1      53.253   0.576  17.700  0.00  0.00    +0.000 A 
ATOM     17  C   UNL     1      54.093   1.337  18.510  0.00  0.00    +0.000 A 
ATOM     18 CL   UNL     1      55.611   0.696  19.006  0.00  0.00    +0.000 Cl
ATOM     19  C   UNL     1      53.713   2.616  18.924  0.00  0.00    +0.000 A 
ENDBRANCH  12  13
ENDBRANCH   9  12
ENDBRANCH   8   9
ENDBRANCH   1   8
BRANCH   6  20
ATOM     20  C   UNL     1      48.765   6.478  15.644  0.00  0.00    +0.000 C 
BRANCH  20  21
ATOM     21  N   UNL     1      47.603   6.444  14.796  0.00  0.00    +0.000 N 
ATOM     22  C   UNL     1      47.680   6.154  13.460  0.00  0.00    +0.000 C 
ATOM     23  O   UNL     1      48.748   5.926  12.896  0.00  0.00    +0.000 OA
ATOM     24  H   UNL     1      46.739   6.809  15.182  0.00  0.00    +0.000 HD
BRANCH  22  25
ATOM     25  C   UNL     1      46.405   6.046  12.741  0.00  0.00    +0.000 A 
ATOM     26  C   UNL     1      45.844   7.182  12.173  0.00  0.00    +0.000 A 
ATOM     27  S   UNL     1      44.371   6.889  11.364  0.00  0.00    +0.000 S 
ATOM     28  C   UNL     1      44.412   5.240  11.777  0.00  0.00    +0.000 A 
ATOM     29  N   UNL     1      43.402   4.404  11.415  0.00  0.00    +0.000 NA
ATOM     30  C   UNL     1      43.544   3.187  11.820  0.00  0.00    +0.000 A 
ATOM     31  N   UNL     1      44.615   2.724  12.541  0.00  0.00    +0.000 N 
ATOM     32  C   UNL     1      45.691   3.515  12.871  0.00  0.00    +0.000 A 
ATOM     33  O   UNL     1      46.688   3.044  13.406  0.00  0.00    +0.000 OA
ATOM     34  C   UNL     1      45.552   4.908  12.488  0.00  0.00    +0.000 A 
ATOM     35  H   UNL     1      44.682   1.752  12.799  0.00  0.00    +0.000 HD
ENDBRANCH  22  25
ENDBRANCH  20  21
ENDBRANCH   6  20
TORSDOF 7
ENDMDL
MODEL 3
REMARK VINA RESULT:    -7.907      1.703      2.317
REMARK INTER + INTRA:         -12.273
REMARK INTER:                 -11.313
REMARK INTRA:                  -0.960
REMARK UNBOUND:                -1.130
REMARK  Name = 
REMARK  8 active torsions:
REMARK  status: ('A' for Active; 'I' for Inactive)
REMARK    1  A    between atoms: C_1  and  C_2
REMARK    2  A    between atoms: C_2  and  N_3
REMARK    3  A    between atoms: C_2  and  C_26
REMARK    4  A    between atoms: N_3  and  C_4
REMARK    5  A    between atoms: C_4  and  C_5
REMARK    6  A    between atoms: C_10  and  C_11
REMARK    7  A    between atoms: C_11  and  N_12
REMARK    8  A    between atoms: C_13  and  C_15
REMARK                            x       y       z     vdW  Elec       q    Type
REMARK                         _______ _______ _______ _____ _____    ______ ____
ROOT
ATOM      1  C   UNL     1      45.397   5.585  12.945  0.00  0.00    +0.000 A 
ATOM      2  C   UNL     1      44.970   6.745  12.289  0.00  0.00    +0.000 A 
ATOM      3  C   UNL     1      45.798   7.861  12.240  0.00  0.00    +0.000 A 
ATOM      4  F   UNL     1      45.384   8.961  11.596  0.00  0.00    +0.000 F 
ATOM      5  C   UNL     1      47.062   7.849  12.823  0.00  0.00    +0.000 A 
ATOM      6  C   UNL     1      47.515   6.697  13.476  0.00  0.00    +0.000 A 
ATOM      7  C   UNL     1      46.664   5.584  13.557  0.00  0.00    +0.000 A 
ENDROOT
BRANCH   1   8
ATOM      8  C   UNL     1      44.556   4.328  12.947  0.00  0.00    +0.000 C 
BRANCH   8   9
ATOM      9  N   UNL     1      45.009   3.389  11.930  0.00  0.00    +0.000 NA
ATOM     10  H   UNL     1      45.052   2.456  12.339  0.00  0.00    +0.000 HD
BRANCH   9  12
ATOM     11  C   UNL     1      43.269   4.572  10.547  0.00  0.00    +0.000 C 
ATOM     12  C   UNL     1      44.158   3.336  10.734  0.00  0.00    +0.000 C 
BRANCH  12  13
ATOM     13  C   UNL     1      45.040   3.157   9.506  0.00  0.00    +0.000 A 
ATOM     14  C   UNL     1      45.438   4.268   8.736  0.00  0.00    +0.000 A 
ATOM     15  C   UNL     1      46.242   4.104   7.605  0.00  0.00    +0.000 A 
ATOM     16  C   UNL     1      46.658   2.830   7.227  0.00  0.00    +0.000 A 
ATOM     17  C   UNL     1      46.272   1.724   7.982  0.00  0.00    +0.000 A 
ATOM     18 CL   UNL     1      46.789   0.150   7.517  0.00  0.00    +0.000 Cl
ATOM     19  C   UNL     1      45.467   1.883   9.113  0.00  0.00    +0.000 A 
ENDBRANCH  12  13
ENDBRANCH   9  12
ENDBRANCH   8   9
ENDBRANCH   1   8
BRANCH   6  20
ATOM     20  C   UNL     1      48.893   6.642  14.074  0.00  0.00    +0.000 C 
BRANCH  20  21
ATOM     21  N   UNL     1      48.855   6.629  15.513  0.00  0.00    +0.000 N 
ATOM     22  C   UNL     1      49.987   6.718  16.277  0.00  0.00    +0.000 C 
ATOM     23  O   UNL     1      51.110   6.794  15.783  0.00  0.00    +0.000 OA
ATOM     24  H   UNL     1      47.972   6.380  15.948  0.00  0.00    +0.000 HD
BRANCH  22  25
ATOM     25  C   UNL     1      49.790   6.805  17.728  0.00  0.00    +0.000 A 
ATOM     26  C   UNL     1      50.085   7.991  18.388  0.00  0.00    +0.000 A 
ATOM     27  S   UNL     1      49.790   7.934  20.067  0.00  0.00    +0.000 S 
ATOM     28  C   UNL     1      49.294   6.310  19.978  0.00  0.00    +0.000 A 
ATOM     29  N   UNL     1      48.933   5.627  21.098  0.00  0.00    +0.000 NA
ATOM     30  C   UNL     1      48.610   4.396  20.893  0.00  0.00    +0.000 A 
ATOM     31  N   UNL     1      48.597   3.785  19.665  0.00  0.00    +0.000 N 
ATOM     32  C   UNL     1      48.888   4.453  18.496  0.00  0.00    +0.000 A 
ATOM     33  O   UNL     1      48.747   3.916  17.404  0.00  0.00    +0.000 OA
ATOM     34  C   UNL     1      49.314   5.828  18.681  0.00  0.00    +0.000 A 
ATOM     35  H   UNL     1      48.303   2.827  19.567  0.00  0.00    +0.000 HD
ENDBRANCH  22  25
ENDBRANCH  20  21
ENDBRANCH   6  20
TORSDOF 7
ENDMDL
MODEL 4
REMARK VINA RESULT:    -7.847      4.016      8.152
REMARK INTER + INTRA:         -12.188
REMARK INTER:                 -10.435
REMARK INTRA:                  -1.753
REMARK UNBOUND:                -1.130
REMARK  Name = 
REMARK  8 active torsions:
REMARK  status: ('A' for Active; 'I' for Inactive)
REMARK    1  A    between atoms: C_1  and  C_2
REMARK    2  A    between atoms: C_2  and  N_3
REMARK    3  A    between atoms: C_2  and  C_26
REMARK    4  A    between atoms: N_3  and  C_4
REMARK    5  A    between atoms: C_4  and  C_5
REMARK    6  A    between atoms: C_10  and  C_11
REMARK    7  A    between atoms: C_11  and  N_12
REMARK    8  A    between atoms: C_13  and  C_15
REMARK                            x       y       z     vdW  Elec       q    Type
REMARK                         _______ _______ _______ _____ _____    ______ ____
ROOT
ATOM      1  C   UNL     1      50.551   5.066  17.396  0.00  0.00    +0.000 A 
ATOM      2  C   UNL     1      51.368   3.934  17.507  0.00  0.00    +0.000 A 
ATOM      3  C   UNL     1      50.815   2.664  17.385  0.00  0.00    +0.000 A 
ATOM      4  F   UNL     1      51.609   1.588  17.479  0.00  0.00    +0.000 F 
ATOM      5  C   UNL     1      49.457   2.487  17.140  0.00  0.00    +0.000 A 
ATOM      6  C   UNL     1      48.622   3.604  17.015  0.00  0.00    +0.000 A 
ATOM      7  C   UNL     1      49.174   4.884  17.174  0.00  0.00    +0.000 A 
ENDROOT
BRANCH   1   8
ATOM      8  C   UNL     1      51.132   6.461  17.442  0.00  0.00    +0.000 C 
BRANCH   8   9
ATOM      9  N   UNL     1      50.964   7.145  16.166  0.00  0.00    +0.000 NA
ATOM     10  H   UNL     1      50.720   6.457  15.454  0.00  0.00    +0.000 HD
BRANCH   9  12
ATOM     11  C   UNL     1      50.299   9.415  17.030  0.00  0.00    +0.000 C 
ATOM     12  C   UNL     1      49.937   8.194  16.174  0.00  0.00    +0.000 C 
BRANCH  12  13
ATOM     13  C   UNL     1      49.675   8.642  14.742  0.00  0.00    +0.000 A 
ATOM     14  C   UNL     1      48.834   9.738  14.471  0.00  0.00    +0.000 A 
ATOM     15  C   UNL     1      48.588  10.146  13.157  0.00  0.00    +0.000 A 
ATOM     16  C   UNL     1      49.177   9.462  12.097  0.00  0.00    +0.000 A 
ATOM     17  C   UNL     1      50.013   8.377  12.352  0.00  0.00    +0.000 A 
ATOM     18 CL   UNL     1      50.744   7.534  11.042  0.00  0.00    +0.000 Cl
ATOM     19  C   UNL     1      50.260   7.965  13.665  0.00  0.00    +0.000 A 
ENDBRANCH  12  13
ENDBRANCH   9  12
ENDBRANCH   8   9
ENDBRANCH   1   8
BRANCH   6  20
ATOM     20  C   UNL     1      47.160   3.442  16.704  0.00  0.00    +0.000 C 
BRANCH  20  21
ATOM     21  N   UNL     1      46.709   4.400  15.730  0.00  0.00    +0.000 N 
ATOM     22  C   UNL     1      46.757   4.155  14.384  0.00  0.00    +0.000 C 
ATOM     23  O   UNL     1      47.209   3.110  13.921  0.00  0.00    +0.000 OA
ATOM     24  H   UNL     1      46.508   5.338  16.064  0.00  0.00    +0.000 HD
BRANCH  22  25
ATOM     25  C   UNL     1      46.161   5.174  13.513  0.00  0.00    +0.000 A 
ATOM     26  C   UNL     1      46.856   6.351  13.266  0.00  0.00    +0.000 A 
ATOM     27  S   UNL     1      46.036   7.427  12.226  0.00  0.00    +0.000 S 
ATOM     28  C   UNL     1      44.707   6.374  12.100  0.00  0.00    +0.000 A 
ATOM     29  N   UNL     1      43.612   6.716  11.368  0.00  0.00    +0.000 NA
ATOM     30  C   UNL     1      42.664   5.841  11.383  0.00  0.00    +0.000 A 
ATOM     31  N   UNL     1      42.716   4.644  12.051  0.00  0.00    +0.000 N 
ATOM     32  C   UNL     1      43.827   4.226  12.747  0.00  0.00    +0.000 A 
ATOM     33  O   UNL     1      43.892   3.100  13.228  0.00  0.00    +0.000 OA
ATOM     34  C   UNL     1      44.900   5.201  12.808  0.00  0.00    +0.000 A 
ATOM     35  H   UNL     1      41.953   3.989  11.996  0.00  0.00    +0.000 HD
ENDBRANCH  22  25
ENDBRANCH  20  21
ENDBRANCH   6  20
TORSDOF 7
ENDMDL
MODEL 5
REMARK VINA RESULT:    -7.656      4.029      8.675
REMARK INTER + INTRA:         -11.918
REMARK INTER:                 -10.507
REMARK INTRA:                  -1.411
REMARK UNBOUND:                -1.130
REMARK  Name = 
REMARK  8 active torsions:
REMARK  status: ('A' for Active; 'I' for Inactive)
REMARK    1  A    between atoms: C_1  and  C_2
REMARK    2  A    between atoms: C_2  and  N_3
REMARK    3  A    between atoms: C_2  and  C_26
REMARK    4  A    between atoms: N_3  and  C_4
REMARK    5  A    between atoms: C_4  and  C_5
REMARK    6  A    between atoms: C_10  and  C_11
REMARK    7  A    between atoms: C_11  and  N_12
REMARK    8  A    between atoms: C_13  and  C_15
REMARK                            x       y       z     vdW  Elec       q    Type
REMARK                         _______ _______ _______ _____ _____    ______ ____
ROOT
ATOM      1  C   UNL     1      49.441   8.013  14.601  0.00  0.00    +0.000 A 
ATOM      2  C   UNL     1      50.560   8.118  13.766  0.00  0.00    +0.000 A 
ATOM      3  C   UNL     1      50.395   8.169  12.386  0.00  0.00    +0.000 A 
ATOM      4  F   UNL     1      51.472   8.284  11.597  0.00  0.00    +0.000 F 
ATOM      5  C   UNL     1      49.130   8.130  11.807  0.00  0.00    +0.000 A 
ATOM      6  C   UNL     1      47.996   8.035  12.622  0.00  0.00    +0.000 A 
ATOM      7  C   UNL     1      48.165   7.947  14.013  0.00  0.00    +0.000 A 
ENDROOT
BRANCH   1   8
ATOM      8  C   UNL     1      49.579   8.037  16.106  0.00  0.00    +0.000 C 
BRANCH   8   9
ATOM      9  N   UNL     1      48.382   7.518  16.754  0.00  0.00    +0.000 NA
ATOM     10  H   UNL     1      47.862   6.955  16.082  0.00  0.00    +0.000 HD
BRANCH   9  12
ATOM     11  C   UNL     1      47.610   6.874  19.063  0.00  0.00    +0.000 C 
ATOM     12  C   UNL     1      48.646   6.700  17.945  0.00  0.00    +0.000 C 
BRANCH  12  13
ATOM     13  C   UNL     1      48.706   5.234  17.535  0.00  0.00    +0.000 A 
ATOM     14  C   UNL     1      47.577   4.590  16.992  0.00  0.00    +0.000 A 
ATOM     15  C   UNL     1      47.629   3.243  16.622  0.00  0.00    +0.000 A 
ATOM     16  C   UNL     1      48.809   2.522  16.791  0.00  0.00    +0.000 A 
ATOM     17  C   UNL     1      49.933   3.149  17.325  0.00  0.00    +0.000 A 
ATOM     18 CL   UNL     1      51.391   2.260  17.531  0.00  0.00    +0.000 Cl
ATOM     19  C   UNL     1      49.884   4.495  17.699  0.00  0.00    +0.000 A 
ENDBRANCH  12  13
ENDBRANCH   9  12
ENDBRANCH   8   9
ENDBRANCH   1   8
BRANCH   6  20
ATOM     20  C   UNL     1      46.616   8.038  12.026  0.00  0.00    +0.000 C 
BRANCH  20  21
ATOM     21  N   UNL     1      46.117   6.705  11.820  0.00  0.00    +0.000 N 
ATOM     22  C   UNL     1      44.807   6.452  11.509  0.00  0.00    +0.000 C 
ATOM     23  O   UNL     1      43.971   7.346  11.407  0.00  0.00    +0.000 OA
ATOM     24  H   UNL     1      46.729   5.938  12.079  0.00  0.00    +0.000 HD
BRANCH  22  25
ATOM     25  C   UNL     1      44.463   5.056  11.218  0.00  0.00    +0.000 A 
ATOM     26  C   UNL     1      43.651   4.355  12.100  0.00  0.00    +0.000 A 
ATOM     27  S   UNL     1      43.334   2.751  11.614  0.00  0.00    +0.000 S 
ATOM     28  C   UNL     1      44.303   2.924  10.227  0.00  0.00    +0.000 A 
ATOM     29  N   UNL     1      44.493   1.882   9.373  0.00  0.00    +0.000 NA
ATOM     30  C   UNL     1      45.274   2.141   8.380  0.00  0.00    +0.000 A 
ATOM     31  N   UNL     1      45.872   3.353   8.151  0.00  0.00    +0.000 N 
ATOM     32  C   UNL     1      45.656   4.454   8.949  0.00  0.00    +0.000 A 
ATOM     33  O   UNL     1      46.104   5.556   8.650  0.00  0.00    +0.000 OA
ATOM     34  C   UNL     1      44.829   4.199  10.114  0.00  0.00    +0.000 A 
ATOM     35  H   UNL     1      46.448   3.500   7.337  0.00  0.00    +0.000 HD
ENDBRANCH  22  25
ENDBRANCH  20  21
ENDBRANCH   6  20
TORSDOF 7
ENDMDL
MODEL 6
REMARK VINA RESULT:    -7.630      4.341      9.824
REMARK INTER + INTRA:         -11.883
REMARK INTER:                  -9.926
REMARK INTRA:                  -1.957
REMARK UNBOUND:                -1.130
REMARK  Name = 
REMARK  8 active torsions:
REMARK  status: ('A' for Active; 'I' for Inactive)
REMARK    1  A    between atoms: C_1  and  C_2
REMARK    2  A    between atoms: C_2  and  N_3
REMARK    3  A    between atoms: C_2  and  C_26
REMARK    4  A    between atoms: N_3  and  C_4
REMARK    5  A    between atoms: C_4  and  C_5
REMARK    6  A    between atoms: C_10  and  C_11
REMARK    7  A    between atoms: C_11  and  N_12
REMARK    8  A    between atoms: C_13  and  C_15
REMARK                            x       y       z     vdW  Elec       q    Type
REMARK                         _______ _______ _______ _____ _____    ______ ____
ROOT
ATOM      1  C   UNL     1      50.104   4.382  17.973  0.00  0.00    +0.000 A 
ATOM      2  C   UNL     1      49.076   3.446  18.138  0.00  0.00    +0.000 A 
ATOM      3  C   UNL     1      47.898   3.573  17.409  0.00  0.00    +0.000 A 
ATOM      4  F   UNL     1      46.927   2.663  17.564  0.00  0.00    +0.000 F 
ATOM      5  C   UNL     1      47.718   4.611  16.500  0.00  0.00    +0.000 A 
ATOM      6  C   UNL     1      48.737   5.552  16.311  0.00  0.00    +0.000 A 
ATOM      7  C   UNL     1      49.910   5.446  17.073  0.00  0.00    +0.000 A 
ENDROOT
BRANCH   1   8
ATOM      8  C   UNL     1      51.428   4.228  18.688  0.00  0.00    +0.000 C 
BRANCH   8   9
ATOM      9  N   UNL     1      51.263   4.337  20.132  0.00  0.00    +0.000 NA
ATOM     10  H   UNL     1      51.975   3.768  20.588  0.00  0.00    +0.000 HD
BRANCH   9  12
ATOM     11  C   UNL     1      52.341   6.599  19.879  0.00  0.00    +0.000 C 
ATOM     12  C   UNL     1      51.357   5.708  20.649  0.00  0.00    +0.000 C 
BRANCH  12  13
ATOM     13  C   UNL     1      49.973   6.344  20.622  0.00  0.00    +0.000 A 
ATOM     14  C   UNL     1      48.854   5.657  21.132  0.00  0.00    +0.000 A 
ATOM     15  C   UNL     1      47.583   6.237  21.102  0.00  0.00    +0.000 A 
ATOM     16  C   UNL     1      47.413   7.510  20.561  0.00  0.00    +0.000 A 
ATOM     17  C   UNL     1      48.513   8.199  20.056  0.00  0.00    +0.000 A 
ATOM     18 CL   UNL     1      48.304   9.772  19.391  0.00  0.00    +0.000 Cl
ATOM     19  C   UNL     1      49.786   7.622  20.082  0.00  0.00    +0.000 A 
ENDBRANCH  12  13
ENDBRANCH   9  12
ENDBRANCH   8   9
ENDBRANCH   1   8
BRANCH   6  20
ATOM     20  C   UNL     1      48.587   6.657  15.302  0.00  0.00    +0.000 C 
BRANCH  20  21
ATOM     21  N   UNL     1      47.388   6.513  14.521  0.00  0.00    +0.000 N 
ATOM     22  C   UNL     1      47.415   6.221  13.183  0.00  0.00    +0.000 C 
ATOM     23  O   UNL     1      48.466   6.085  12.560  0.00  0.00    +0.000 OA
ATOM     24  H   UNL     1      46.517   6.802  14.955  0.00  0.00    +0.000 HD
BRANCH  22  25
ATOM     25  C   UNL     1      46.117   5.995  12.538  0.00  0.00    +0.000 A 
ATOM     26  C   UNL     1      45.432   7.069  11.985  0.00  0.00    +0.000 A 
ATOM     27  S   UNL     1      43.948   6.639  11.264  0.00  0.00    +0.000 S 
ATOM     28  C   UNL     1      44.149   5.008  11.698  0.00  0.00    +0.000 A 
ATOM     29  N   UNL     1      43.194   4.084  11.405  0.00  0.00    +0.000 NA
ATOM     30  C   UNL     1      43.459   2.891  11.819  0.00  0.00    +0.000 A 
ATOM     31  N   UNL     1      44.602   2.532  12.487  0.00  0.00    +0.000 N 
ATOM     32  C   UNL     1      45.625   3.416  12.745  0.00  0.00    +0.000 A 
ATOM     33  O   UNL     1      46.686   3.039  13.231  0.00  0.00    +0.000 OA
ATOM     34  C   UNL     1      45.350   4.785  12.350  0.00  0.00    +0.000 A 
ATOM     35  H   UNL     1      44.764   1.574  12.756  0.00  0.00    +0.000 HD
ENDBRANCH  22  25
ENDBRANCH  20  21
ENDBRANCH   6  20
TORSDOF 7
ENDMDL
MODEL 7
REMARK VINA RESULT:    -7.380      2.549      3.912
REMARK INTER + INTRA:         -11.530
REMARK INTER:                 -10.398
REMARK INTRA:                  -1.132
REMARK UNBOUND:                -1.130
REMARK  Name = 
REMARK  8 active torsions:
REMARK  status: ('A' for Active; 'I' for Inactive)
REMARK    1  A    between atoms: C_1  and  C_2
REMARK    2  A    between atoms: C_2  and  N_3
REMARK    3  A    between atoms: C_2  and  C_26
REMARK    4  A    between atoms: N_3  and  C_4
REMARK    5  A    between atoms: C_4  and  C_5
REMARK    6  A    between atoms: C_10  and  C_11
REMARK    7  A    between atoms: C_11  and  N_12
REMARK    8  A    between atoms: C_13  and  C_15
REMARK                            x       y       z     vdW  Elec       q    Type
REMARK                         _______ _______ _______ _____ _____    ______ ____
ROOT
ATOM      1  C   UNL     1      47.878   6.354  13.252  0.00  0.00    +0.000 A 
ATOM      2  C   UNL     1      48.592   6.837  12.148  0.00  0.00    +0.000 A 
ATOM      3  C   UNL     1      49.693   7.663  12.341  0.00  0.00    +0.000 A 
ATOM      4  F   UNL     1      50.378   8.106  11.277  0.00  0.00    +0.000 F 
ATOM      5  C   UNL     1      50.117   8.017  13.618  0.00  0.00    +0.000 A 
ATOM      6  C   UNL     1      49.425   7.539  14.736  0.00  0.00    +0.000 A 
ATOM      7  C   UNL     1      48.291   6.735  14.541  0.00  0.00    +0.000 A 
ENDROOT
BRANCH   1   8
ATOM      8  C   UNL     1      46.726   5.389  13.082  0.00  0.00    +0.000 C 
BRANCH   8   9
ATOM      9  N   UNL     1      45.465   5.997  13.486  0.00  0.00    +0.000 NA
ATOM     10  H   UNL     1      45.662   6.873  13.970  0.00  0.00    +0.000 HD
BRANCH   9  12
ATOM     11  C   UNL     1      44.951   7.472  11.511  0.00  0.00    +0.000 C 
ATOM     12  C   UNL     1      44.544   6.272  12.376  0.00  0.00    +0.000 C 
BRANCH  12  13
ATOM     13  C   UNL     1      44.438   5.030  11.501  0.00  0.00    +0.000 A 
ATOM     14  C   UNL     1      43.751   3.887  11.951  0.00  0.00    +0.000 A 
ATOM     15  C   UNL     1      43.658   2.745  11.151  0.00  0.00    +0.000 A 
ATOM     16  C   UNL     1      44.253   2.730   9.891  0.00  0.00    +0.000 A 
ATOM     17  C   UNL     1      44.933   3.857   9.434  0.00  0.00    +0.000 A 
ATOM     18 CL   UNL     1      45.664   3.840   7.876  0.00  0.00    +0.000 Cl
ATOM     19  C   UNL     1      45.030   5.000  10.232  0.00  0.00    +0.000 A 
ENDBRANCH  12  13
ENDBRANCH   9  12
ENDBRANCH   8   9
ENDBRANCH   1   8
BRANCH   6  20
ATOM     20  C   UNL     1      49.889   7.869  16.128  0.00  0.00    +0.000 C 
BRANCH  20  21
ATOM     21  N   UNL     1      50.790   6.874  16.644  0.00  0.00    +0.000 N 
ATOM     22  C   UNL     1      50.432   6.007  17.641  0.00  0.00    +0.000 C 
ATOM     23  O   UNL     1      49.325   6.036  18.174  0.00  0.00    +0.000 OA
ATOM     24  H   UNL     1      51.764   6.944  16.364  0.00  0.00    +0.000 HD
BRANCH  22  25
ATOM     25  C   UNL     1      51.414   4.974  17.992  0.00  0.00    +0.000 A 
ATOM     26  C   UNL     1      52.588   5.339  18.637  0.00  0.00    +0.000 A 
ATOM     27  S   UNL     1      53.617   4.024  18.986  0.00  0.00    +0.000 S 
ATOM     28  C   UNL     1      52.548   2.925  18.253  0.00  0.00    +0.000 A 
ATOM     29  N   UNL     1      52.852   1.601  18.173  0.00  0.00    +0.000 NA
ATOM     30  C   UNL     1      51.969   0.885  17.564  0.00  0.00    +0.000 A 
ATOM     31  N   UNL     1      50.798   1.368  17.040  0.00  0.00    +0.000 N 
ATOM     32  C   UNL     1      50.415   2.685  17.155  0.00  0.00    +0.000 A 
ATOM     33  O   UNL     1      49.308   3.062  16.789  0.00  0.00    +0.000 OA
ATOM     34  C   UNL     1      51.403   3.544  17.783  0.00  0.00    +0.000 A 
ATOM     35  H   UNL     1      50.133   0.749  16.604  0.00  0.00    +0.000 HD
ENDBRANCH  22  25
ENDBRANCH  20  21
ENDBRANCH   6  20
TORSDOF 7
ENDMDL
MODEL 8
REMARK VINA RESULT:    -7.216      3.608      5.287
REMARK INTER + INTRA:         -11.299
REMARK INTER:                  -9.398
REMARK INTRA:                  -1.901
REMARK UNBOUND:                -1.130
REMARK  Name = 
REMARK  8 active torsions:
REMARK  status: ('A' for Active; 'I' for Inactive)
REMARK    1  A    between atoms: C_1  and  C_2
REMARK    2  A    between atoms: C_2  and  N_3
REMARK    3  A    between atoms: C_2  and  C_26
REMARK    4  A    between atoms: N_3  and  C_4
REMARK    5  A    between atoms: C_4  and  C_5
REMARK    6  A    between atoms: C_10  and  C_11
REMARK    7  A    between atoms: C_11  and  N_12
REMARK    8  A    between atoms: C_13  and  C_15
REMARK                            x       y       z     vdW  Elec       q    Type
REMARK                         _______ _______ _______ _____ _____    ______ ____
ROOT
ATOM      1  C   UNL     1      45.242   7.248  12.446  0.00  0.00    +0.000 A 
ATOM      2  C   UNL     1      44.341   6.846  11.453  0.00  0.00    +0.000 A 
ATOM      3  C   UNL     1      44.190   5.496  11.158  0.00  0.00    +0.000 A 
ATOM      4  F   UNL     1      43.313   5.121  10.215  0.00  0.00    +0.000 F 
ATOM      5  C   UNL     1      44.910   4.521  11.841  0.00  0.00    +0.000 A 
ATOM      6  C   UNL     1      45.809   4.898  12.845  0.00  0.00    +0.000 A 
ATOM      7  C   UNL     1      45.989   6.263  13.117  0.00  0.00    +0.000 A 
ENDROOT
BRANCH   1   8
ATOM      8  C   UNL     1      45.372   8.700  12.848  0.00  0.00    +0.000 C 
BRANCH   8   9
ATOM      9  N   UNL     1      46.766   9.067  13.055  0.00  0.00    +0.000 NA
ATOM     10  H   UNL     1      47.323   8.217  13.128  0.00  0.00    +0.000 HD
BRANCH   9  12
ATOM     11  C   UNL     1      47.395  11.400  12.345  0.00  0.00    +0.000 C 
ATOM     12  C   UNL     1      47.334   9.908  11.993  0.00  0.00    +0.000 C 
BRANCH  12  13
ATOM     13  C   UNL     1      48.734   9.409  11.662  0.00  0.00    +0.000 A 
ATOM     14  C   UNL     1      49.061   8.045  11.782  0.00  0.00    +0.000 A 
ATOM     15  C   UNL     1      50.348   7.588  11.484  0.00  0.00    +0.000 A 
ATOM     16  C   UNL     1      51.325   8.488  11.066  0.00  0.00    +0.000 A 
ATOM     17  C   UNL     1      51.013   9.840  10.942  0.00  0.00    +0.000 A 
ATOM     18 CL   UNL     1      52.218  10.952  10.421  0.00  0.00    +0.000 Cl
ATOM     19  C   UNL     1      49.728  10.302  11.240  0.00  0.00    +0.000 A 
ENDBRANCH  12  13
ENDBRANCH   9  12
ENDBRANCH   8   9
ENDBRANCH   1   8
BRANCH   6  20
ATOM     20  C   UNL     1      46.566   3.864  13.630  0.00  0.00    +0.000 C 
BRANCH  20  21
ATOM     21  N   UNL     1      46.988   4.363  14.912  0.00  0.00    +0.000 N 
ATOM     22  C   UNL     1      47.824   3.657  15.735  0.00  0.00    +0.000 C 
ATOM     23  O   UNL     1      48.251   2.543  15.441  0.00  0.00    +0.000 OA
ATOM     24  H   UNL     1      46.509   5.186  15.266  0.00  0.00    +0.000 HD
BRANCH  22  25
ATOM     25  C   UNL     1      48.257   4.336  16.962  0.00  0.00    +0.000 A 
ATOM     26  C   UNL     1      48.073   3.713  18.189  0.00  0.00    +0.000 A 
ATOM     27  S   UNL     1      48.641   4.624  19.514  0.00  0.00    +0.000 S 
ATOM     28  C   UNL     1      49.119   5.901  18.498  0.00  0.00    +0.000 A 
ATOM     29  N   UNL     1      49.660   7.038  19.013  0.00  0.00    +0.000 NA
ATOM     30  C   UNL     1      49.948   7.938  18.135  0.00  0.00    +0.000 A 
ATOM     31  N   UNL     1      49.759   7.800  16.784  0.00  0.00    +0.000 N 
ATOM     32  C   UNL     1      49.279   6.645  16.211  0.00  0.00    +0.000 A 
ATOM     33  O   UNL     1      49.239   6.505  14.995  0.00  0.00    +0.000 OA
ATOM     34  C   UNL     1      48.886   5.622  17.163  0.00  0.00    +0.000 A 
ATOM     35  H   UNL     1      50.036   8.530  16.147  0.00  0.00    +0.000 HD
ENDBRANCH  22  25
ENDBRANCH  20  21
ENDBRANCH   6  20
TORSDOF 7
ENDMDL
MODEL 9
REMARK VINA RESULT:    -7.090      3.601      5.779
REMARK INTER + INTRA:         -11.122
REMARK INTER:                  -8.815
REMARK INTRA:                  -2.307
REMARK UNBOUND:                -1.130
REMARK  Name = 
REMARK  8 active torsions:
REMARK  status: ('A' for Active; 'I' for Inactive)
REMARK    1  A    between atoms: C_1  and  C_2
REMARK    2  A    between atoms: C_2  and  N_3
REMARK    3  A    between atoms: C_2  and  C_26
REMARK    4  A    between atoms: N_3  and  C_4
REMARK    5  A    between atoms: C_4  and  C_5
REMARK    6  A    between atoms: C_10  and  C_11
REMARK    7  A    between atoms: C_11  and  N_12
REMARK    8  A    between atoms: C_13  and  C_15
REMARK                            x       y       z     vdW  Elec       q    Type
REMARK                         _______ _______ _______ _____ _____    ______ ____
ROOT
ATOM      1  C   UNL     1      47.384   6.936  12.168  0.00  0.00    +0.000 A 
ATOM      2  C   UNL     1      46.122   7.084  11.581  0.00  0.00    +0.000 A 
ATOM      3  C   UNL     1      45.084   6.231  11.942  0.00  0.00    +0.000 A 
ATOM      4  F   UNL     1      43.876   6.391  11.384  0.00  0.00    +0.000 F 
ATOM      5  C   UNL     1      45.267   5.231  12.892  0.00  0.00    +0.000 A 
ATOM      6  C   UNL     1      46.518   5.071  13.500  0.00  0.00    +0.000 A 
ATOM      7  C   UNL     1      47.574   5.908  13.109  0.00  0.00    +0.000 A 
ENDROOT
BRANCH   1   8
ATOM      8  C   UNL     1      48.511   7.896  11.859  0.00  0.00    +0.000 C 
BRANCH   8   9
ATOM      9  N   UNL     1      48.302   9.182  12.511  0.00  0.00    +0.000 NA
ATOM     10  H   UNL     1      47.570   9.080  13.213  0.00  0.00    +0.000 HD
BRANCH   9  12
ATOM     11  C   UNL     1      49.334  11.177  13.651  0.00  0.00    +0.000 C 
ATOM     12  C   UNL     1      49.499   9.732  13.160  0.00  0.00    +0.000 C 
BRANCH  12  13
ATOM     13  C   UNL     1      49.880   8.840  14.335  0.00  0.00    +0.000 A 
ATOM     14  C   UNL     1      48.941   8.528  15.337  0.00  0.00    +0.000 A 
ATOM     15  C   UNL     1      49.292   7.715  16.418  0.00  0.00    +0.000 A 
ATOM     16  C   UNL     1      50.585   7.205  16.513  0.00  0.00    +0.000 A 
ATOM     17  C   UNL     1      51.521   7.506  15.526  0.00  0.00    +0.000 A 
ATOM     18 CL   UNL     1      53.117   6.874  15.641  0.00  0.00    +0.000 Cl
ATOM     19  C   UNL     1      51.175   8.320  14.444  0.00  0.00    +0.000 A 
ENDBRANCH  12  13
ENDBRANCH   9  12
ENDBRANCH   8   9
ENDBRANCH   1   8
BRANCH   6  20
ATOM     20  C   UNL     1      46.730   4.030  14.563  0.00  0.00    +0.000 C 
BRANCH  20  21
ATOM     21  N   UNL     1      47.398   4.568  15.718  0.00  0.00    +0.000 N 
ATOM     22  C   UNL     1      47.206   4.066  16.977  0.00  0.00    +0.000 C 
ATOM     23  O   UNL     1      46.434   3.137  17.204  0.00  0.00    +0.000 OA
ATOM     24  H   UNL     1      47.891   5.448  15.597  0.00  0.00    +0.000 HD
BRANCH  22  25
ATOM     25  C   UNL     1      48.035   4.640  18.042  0.00  0.00    +0.000 A 
ATOM     26  C   UNL     1      47.491   5.594  18.892  0.00  0.00    +0.000 A 
ATOM     27  S   UNL     1      48.577   6.152  20.083  0.00  0.00    +0.000 S 
ATOM     28  C   UNL     1      49.826   5.167  19.481  0.00  0.00    +0.000 A 
ATOM     29  N   UNL     1      51.066   5.193  20.039  0.00  0.00    +0.000 NA
ATOM     30  C   UNL     1      51.926   4.421  19.465  0.00  0.00    +0.000 A 
ATOM     31  N   UNL     1      51.656   3.611  18.392  0.00  0.00    +0.000 N 
ATOM     32  C   UNL     1      50.401   3.501  17.837  0.00  0.00    +0.000 A 
ATOM     33  O   UNL     1      50.161   2.677  16.962  0.00  0.00    +0.000 OA
ATOM     34  C   UNL     1      49.410   4.393  18.411  0.00  0.00    +0.000 A 
ATOM     35  H   UNL     1      52.365   3.006  18.010  0.00  0.00    +0.000 HD
ENDBRANCH  22  25
ENDBRANCH  20  21
ENDBRANCH   6  20
TORSDOF 7
ENDMDL
