MODEL 1
REMARK VINA RESULT:    -8.420      0.000      0.000
REMARK INTER + INTRA:         -12.761
REMARK INTER:                 -11.866
REMARK INTRA:                  -0.895
REMARK UNBOUND:                -0.895
REMARK  Name = 
REMARK  7 active torsions:
REMARK  status: ('A' for Active; 'I' for Inactive)
REMARK    1  A    between atoms: C_2  and  C_4
REMARK    2  A    between atoms: C_7  and  N_8
REMARK    3  A    between atoms: N_8  and  C_9
REMARK    4  A    between atoms: C_9  and  C_10
REMARK    5  A    between atoms: C_10  and  C_11
REMARK    6  A    between atoms: C_15  and  O_16
REMARK    7  A    between atoms: O_16  and  C_17
REMARK                            x       y       z     vdW  Elec       q    Type
REMARK                         _______ _______ _______ _____ _____    ______ ____
ROOT
ATOM      1  N   UNL     1      43.825   4.906   9.952  0.00  0.00    +0.000 N 
ATOM      2  H   UNL     1      44.293   5.803  10.067  0.00  0.00    +0.000 HD
ENDROOT
BRANCH   1   6
ATOM      3  C   UNL     1      46.207   2.101   8.001  0.00  0.00    +0.000 A 
ATOM      4  C   UNL     1      46.384   3.436   7.670  0.00  0.00    +0.000 A 
ATOM      5  C   UNL     1      45.570   4.386   8.290  0.00  0.00    +0.000 A 
ATOM      6  C   UNL     1      44.591   4.002   9.208  0.00  0.00    +0.000 A 
ATOM      7  C   UNL     1      44.521   2.626   9.474  0.00  0.00    +0.000 A 
ATOM      8  N   UNL     1      45.278   1.663   8.889  0.00  0.00    +0.000 NA
BRANCH   3  10
ATOM      9  N   UNL     1      46.774  -0.235   7.675  0.00  0.00    +0.000 N 
ATOM     10  C   UNL     1      47.090   1.064   7.378  0.00  0.00    +0.000 C 
ATOM     11  O   UNL     1      48.034   1.345   6.650  0.00  0.00    +0.000 OA
ATOM     12  H   UNL     1      47.331  -0.983   7.291  0.00  0.00    +0.000 HD
ATOM     13  H   UNL     1      45.980  -0.432   8.274  0.00  0.00    +0.000 HD
ENDBRANCH   3  10
ENDBRANCH   1   6
BRANCH   1  14
ATOM     14  C   UNL     1      43.174   4.448  11.186  0.00  0.00    +0.000 C 
BRANCH  14  15
ATOM     15  C   UNL     1      43.376   5.478  12.308  0.00  0.00    +0.000 C 
BRANCH  15  16
ATOM     16  C   UNL     1      44.823   5.574  12.726  0.00  0.00    +0.000 A 
ATOM     17  C   UNL     1      45.569   6.726  12.452  0.00  0.00    +0.000 A 
ATOM     18  C   UNL     1      46.894   6.830  12.881  0.00  0.00    +0.000 A 
ATOM     19  C   UNL     1      47.492   5.782  13.589  0.00  0.00    +0.000 A 
ATOM     20  C   UNL     1      46.762   4.629  13.860  0.00  0.00    +0.000 A 
ATOM     21  C   UNL     1      45.433   4.529  13.438  0.00  0.00    +0.000 A 
BRANCH  20  22
ATOM     22  O   UNL     1      47.229   3.551  14.571  0.00  0.00    +0.000 OA
BRANCH  22  23
ATOM     23  C   UNL     1      47.908   3.765  15.827  0.00  0.00    +0.000 C 
ATOM     24  C   UNL     1      48.435   2.510  16.567  0.00  0.00    +0.000 C 
ATOM     25  C   UNL     1      47.783   3.021  17.859  0.00  0.00    +0.000 C 
ATOM     26  C   UNL     1      46.948   3.994  17.020  0.00  0.00    +0.000 C 
ENDBRANCH  22  23
ENDBRANCH  20  22
ENDBRANCH  15  16
ENDBRANCH  14  15
ENDBRANCH   1  14
TORSDOF 7
ENDMDL
MODEL 2
REMARK VINA RESULT:    -7.644      2.151      3.853
REMARK INTER + INTRA:         -11.667
REMARK INTER:                 -10.906
REMARK INTRA:                  -0.761
REMARK UNBOUND:                -0.895
REMARK  Name = 
REMARK  7 active torsions:
REMARK  status: ('A' for Active; 'I' for Inactive)
REMARK    1  A    between atoms: C_2  and  C_4
REMARK    2  A    between atoms: C_7  and  N_8
REMARK    3  A    between atoms: N_8  and  C_9
REMARK    4  A    between atoms: C_9  and  C_10
REMARK    5  A    between atoms: C_10  and  C_11
REMARK    6  A    between atoms: C_15  and  O_16
REMARK    7  A    between atoms: O_16  and  C_17
REMARK                            x       y       z     vdW  Elec       q    Type
REMARK                         _______ _______ _______ _____ _____    ______ ____
ROOT
ATOM      1  N   UNL     1      43.718   4.729  10.059  0.00  0.00    +0.000 N 
ATOM      2  H   UNL     1      44.009   5.699  10.168  0.00  0.00    +0.000 HD
ENDROOT
BRANCH   1   6
ATOM      3  C   UNL     1      46.433   2.570   7.752  0.00  0.00    +0.000 A 
ATOM      4  C   UNL     1      45.674   1.868   8.676  0.00  0.00    +0.000 A 
ATOM      5  C   UNL     1      44.784   2.581   9.482  0.00  0.00    +0.000 A 
ATOM      6  C   UNL     1      44.671   3.968   9.371  0.00  0.00    +0.000 A 
ATOM      7  C   UNL     1      45.477   4.563   8.388  0.00  0.00    +0.000 A 
ATOM      8  N   UNL     1      46.366   3.917   7.592  0.00  0.00    +0.000 NA
BRANCH   3  10
ATOM      9  N   UNL     1      48.450   2.541   6.404  0.00  0.00    +0.000 N 
ATOM     10  C   UNL     1      47.371   1.826   6.851  0.00  0.00    +0.000 C 
ATOM     11  O   UNL     1      47.195   0.658   6.529  0.00  0.00    +0.000 OA
ATOM     12  H   UNL     1      49.118   2.100   5.791  0.00  0.00    +0.000 HD
ATOM     13  H   UNL     1      48.569   3.503   6.698  0.00  0.00    +0.000 HD
ENDBRANCH   3  10
ENDBRANCH   1   6
BRANCH   1  14
ATOM     14  C   UNL     1      43.109   4.182  11.277  0.00  0.00    +0.000 C 
BRANCH  14  15
ATOM     15  C   UNL     1      43.274   5.168  12.443  0.00  0.00    +0.000 C 
BRANCH  15  16
ATOM     16  C   UNL     1      44.728   5.445  12.740  0.00  0.00    +0.000 A 
ATOM     17  C   UNL     1      45.496   4.524  13.461  0.00  0.00    +0.000 A 
ATOM     18  C   UNL     1      46.852   4.763  13.694  0.00  0.00    +0.000 A 
ATOM     19  C   UNL     1      47.458   5.928  13.212  0.00  0.00    +0.000 A 
ATOM     20  C   UNL     1      46.701   6.855  12.502  0.00  0.00    +0.000 A 
ATOM     21  C   UNL     1      45.346   6.611  12.261  0.00  0.00    +0.000 A 
BRANCH  20  22
ATOM     22  O   UNL     1      47.190   8.016  11.954  0.00  0.00    +0.000 OA
BRANCH  22  23
ATOM     23  C   UNL     1      48.486   8.506  12.361  0.00  0.00    +0.000 C 
ATOM     24  C   UNL     1      48.881   9.928  11.892  0.00  0.00    +0.000 C 
ATOM     25  C   UNL     1      50.234   9.376  11.420  0.00  0.00    +0.000 C 
ATOM     26  C   UNL     1      49.653   7.960  11.502  0.00  0.00    +0.000 C 
ENDBRANCH  22  23
ENDBRANCH  20  22
ENDBRANCH  15  16
ENDBRANCH  14  15
ENDBRANCH   1  14
TORSDOF 7
ENDMDL
MODEL 3
REMARK VINA RESULT:    -7.398      2.203      4.244
REMARK INTER + INTRA:         -11.321
REMARK INTER:                 -10.529
REMARK INTRA:                  -0.792
REMARK UNBOUND:                -0.895
REMARK  Name = 
REMARK  7 active torsions:
REMARK  status: ('A' for Active; 'I' for Inactive)
REMARK    1  A    between atoms: C_2  and  C_4
REMARK    2  A    between atoms: C_7  and  N_8
REMARK    3  A    between atoms: N_8  and  C_9
REMARK    4  A    between atoms: C_9  and  C_10
REMARK    5  A    between atoms: C_10  and  C_11
REMARK    6  A    between atoms: C_15  and  O_16
REMARK    7  A    between atoms: O_16  and  C_17
REMARK                            x       y       z     vdW  Elec       q    Type
REMARK                         _______ _______ _______ _____ _____    ______ ____
ROOT
ATOM      1  N   UNL     1      43.578   3.786  10.489  0.00  0.00    +0.000 N 
ATOM      2  H   UNL     1      43.503   4.793  10.619  0.00  0.00    +0.000 HD
ENDROOT
BRANCH   1   6
ATOM      3  C   UNL     1      46.436   2.648   7.679  0.00  0.00    +0.000 A 
ATOM      4  C   UNL     1      46.128   3.998   7.773  0.00  0.00    +0.000 A 
ATOM      5  C   UNL     1      45.148   4.392   8.686  0.00  0.00    +0.000 A 
ATOM      6  C   UNL     1      44.482   3.451   9.474  0.00  0.00    +0.000 A 
ATOM      7  C   UNL     1      44.894   2.121   9.302  0.00  0.00    +0.000 A 
ATOM      8  N   UNL     1      45.829   1.686   8.420  0.00  0.00    +0.000 NA
BRANCH   3  10
ATOM      9  N   UNL     1      47.580   2.894   5.554  0.00  0.00    +0.000 N 
ATOM     10  C   UNL     1      47.508   2.201   6.733  0.00  0.00    +0.000 C 
ATOM     11  O   UNL     1      48.274   1.281   6.986  0.00  0.00    +0.000 OA
ATOM     12  H   UNL     1      48.278   2.641   4.871  0.00  0.00    +0.000 HD
ATOM     13  H   UNL     1      46.935   3.657   5.382  0.00  0.00    +0.000 HD
ENDBRANCH   3  10
ENDBRANCH   1   6
BRANCH   1  14
ATOM     14  C   UNL     1      43.629   3.056  11.762  0.00  0.00    +0.000 C 
BRANCH  14  15
ATOM     15  C   UNL     1      43.586   4.039  12.941  0.00  0.00    +0.000 C 
BRANCH  15  16
ATOM     16  C   UNL     1      44.842   4.872  13.021  0.00  0.00    +0.000 A 
ATOM     17  C   UNL     1      45.959   4.411  13.727  0.00  0.00    +0.000 A 
ATOM     18  C   UNL     1      47.135   5.164  13.760  0.00  0.00    +0.000 A 
ATOM     19  C   UNL     1      47.209   6.389  13.090  0.00  0.00    +0.000 A 
ATOM     20  C   UNL     1      46.102   6.861  12.392  0.00  0.00    +0.000 A 
ATOM     21  C   UNL     1      44.928   6.103  12.352  0.00  0.00    +0.000 A 
BRANCH  20  22
ATOM     22  O   UNL     1      46.065   8.030  11.673  0.00  0.00    +0.000 OA
BRANCH  22  23
ATOM     23  C   UNL     1      45.193   9.101  12.094  0.00  0.00    +0.000 C 
ATOM     24  C   UNL     1      44.094   9.549  11.099  0.00  0.00    +0.000 C 
ATOM     25  C   UNL     1      44.514  11.008  11.321  0.00  0.00    +0.000 C 
ATOM     26  C   UNL     1      45.821  10.508  11.944  0.00  0.00    +0.000 C 
ENDBRANCH  22  23
ENDBRANCH  20  22
ENDBRANCH  15  16
ENDBRANCH  14  15
ENDBRANCH   1  14
TORSDOF 7
ENDMDL
MODEL 4
REMARK VINA RESULT:    -7.279      2.212      2.542
REMARK INTER + INTRA:         -11.153
REMARK INTER:                 -10.239
REMARK INTRA:                  -0.914
REMARK UNBOUND:                -0.895
REMARK  Name = 
REMARK  7 active torsions:
REMARK  status: ('A' for Active; 'I' for Inactive)
REMARK    1  A    between atoms: C_2  and  C_4
REMARK    2  A    between atoms: C_7  and  N_8
REMARK    3  A    between atoms: N_8  and  C_9
REMARK    4  A    between atoms: C_9  and  C_10
REMARK    5  A    between atoms: C_10  and  C_11
REMARK    6  A    between atoms: C_15  and  O_16
REMARK    7  A    between atoms: O_16  and  C_17
REMARK                            x       y       z     vdW  Elec       q    Type
REMARK                         _______ _______ _______ _____ _____    ______ ____
ROOT
ATOM      1  N   UNL     1      43.695   4.213  10.285  0.00  0.00    +0.000 N 
ATOM      2  H   UNL     1      42.800   4.285   9.805  0.00  0.00    +0.000 HD
ENDROOT
BRANCH   1   6
ATOM      3  C   UNL     1      46.528   2.797   7.577  0.00  0.00    +0.000 A 
ATOM      4  C   UNL     1      45.932   1.876   8.426  0.00  0.00    +0.000 A 
ATOM      5  C   UNL     1      45.006   2.338   9.362  0.00  0.00    +0.000 A 
ATOM      6  C   UNL     1      44.698   3.697   9.454  0.00  0.00    +0.000 A 
ATOM      7  C   UNL     1      45.350   4.527   8.531  0.00  0.00    +0.000 A 
ATOM      8  N   UNL     1      46.267   4.130   7.613  0.00  0.00    +0.000 NA
BRANCH   3  10
ATOM      9  N   UNL     1      47.572   3.092   5.408  0.00  0.00    +0.000 N 
ATOM     10  C   UNL     1      47.499   2.324   6.540  0.00  0.00    +0.000 C 
ATOM     11  O   UNL     1      48.186   1.321   6.682  0.00  0.00    +0.000 OA
ATOM     12  H   UNL     1      48.204   2.827   4.668  0.00  0.00    +0.000 HD
ATOM     13  H   UNL     1      46.995   3.922   5.328  0.00  0.00    +0.000 HD
ENDBRANCH   3  10
ENDBRANCH   1   6
BRANCH   1  14
ATOM     14  C   UNL     1      43.987   5.388  11.114  0.00  0.00    +0.000 C 
BRANCH  14  15
ATOM     15  C   UNL     1      44.719   4.965  12.396  0.00  0.00    +0.000 C 
BRANCH  15  16
ATOM     16  C   UNL     1      46.055   5.654  12.533  0.00  0.00    +0.000 A 
ATOM     17  C   UNL     1      46.518   6.515  11.532  0.00  0.00    +0.000 A 
ATOM     18  C   UNL     1      47.733   7.187  11.683  0.00  0.00    +0.000 A 
ATOM     19  C   UNL     1      48.503   7.006  12.837  0.00  0.00    +0.000 A 
ATOM     20  C   UNL     1      48.055   6.146  13.835  0.00  0.00    +0.000 A 
ATOM     21  C   UNL     1      46.835   5.480  13.687  0.00  0.00    +0.000 A 
BRANCH  20  22
ATOM     22  O   UNL     1      48.706   5.912  15.021  0.00  0.00    +0.000 OA
BRANCH  22  23
ATOM     23  C   UNL     1      49.547   6.940  15.588  0.00  0.00    +0.000 C 
ATOM     24  C   UNL     1      50.643   6.485  16.583  0.00  0.00    +0.000 C 
ATOM     25  C   UNL     1      50.185   7.578  17.558  0.00  0.00    +0.000 C 
ATOM     26  C   UNL     1      48.886   7.709  16.757  0.00  0.00    +0.000 C 
ENDBRANCH  22  23
ENDBRANCH  20  22
ENDBRANCH  15  16
ENDBRANCH  14  15
ENDBRANCH   1  14
TORSDOF 7
ENDMDL
MODEL 5
REMARK VINA RESULT:    -7.223      3.005      7.732
REMARK INTER + INTRA:         -11.074
REMARK INTER:                 -10.274
REMARK INTRA:                  -0.800
REMARK UNBOUND:                -0.895
REMARK  Name = 
REMARK  7 active torsions:
REMARK  status: ('A' for Active; 'I' for Inactive)
REMARK    1  A    between atoms: C_2  and  C_4
REMARK    2  A    between atoms: C_7  and  N_8
REMARK    3  A    between atoms: N_8  and  C_9
REMARK    4  A    between atoms: C_9  and  C_10
REMARK    5  A    between atoms: C_10  and  C_11
REMARK    6  A    between atoms: C_15  and  O_16
REMARK    7  A    between atoms: O_16  and  C_17
REMARK                            x       y       z     vdW  Elec       q    Type
REMARK                         _______ _______ _______ _____ _____    ______ ____
ROOT
ATOM      1  N   UNL     1      47.148   6.480  12.988  0.00  0.00    +0.000 N 
ATOM      2  H   UNL     1      47.715   7.318  12.872  0.00  0.00    +0.000 HD
ENDROOT
BRANCH   1   6
ATOM      3  C   UNL     1      47.850   4.364  16.507  0.00  0.00    +0.000 A 
ATOM      4  C   UNL     1      48.517   5.568  16.337  0.00  0.00    +0.000 A 
ATOM      5  C   UNL     1      48.320   6.273  15.148  0.00  0.00    +0.000 A 
ATOM      6  C   UNL     1      47.484   5.773  14.148  0.00  0.00    +0.000 A 
ATOM      7  C   UNL     1      46.851   4.556  14.445  0.00  0.00    +0.000 A 
ATOM      8  N   UNL     1      47.021   3.826  15.576  0.00  0.00    +0.000 NA
BRANCH   3  10
ATOM      9  N   UNL     1      47.065   2.650  18.034  0.00  0.00    +0.000 N 
ATOM     10  C   UNL     1      48.017   3.604  17.787  0.00  0.00    +0.000 C 
ATOM     11  O   UNL     1      48.937   3.811  18.567  0.00  0.00    +0.000 OA
ATOM     12  H   UNL     1      47.116   2.104  18.880  0.00  0.00    +0.000 HD
ATOM     13  H   UNL     1      46.322   2.499  17.360  0.00  0.00    +0.000 HD
ENDBRANCH   3  10
ENDBRANCH   1   6
BRANCH   1  14
ATOM     14  C   UNL     1      45.732   6.710  12.674  0.00  0.00    +0.000 C 
BRANCH  14  15
ATOM     15  C   UNL     1      45.505   6.633  11.157  0.00  0.00    +0.000 C 
BRANCH  15  16
ATOM     16  C   UNL     1      45.086   5.250  10.723  0.00  0.00    +0.000 A 
ATOM     17  C   UNL     1      44.398   4.405  11.601  0.00  0.00    +0.000 A 
ATOM     18  C   UNL     1      43.971   3.143  11.181  0.00  0.00    +0.000 A 
ATOM     19  C   UNL     1      44.229   2.708   9.876  0.00  0.00    +0.000 A 
ATOM     20  C   UNL     1      44.920   3.537   8.998  0.00  0.00    +0.000 A 
ATOM     21  C   UNL     1      45.338   4.804   9.416  0.00  0.00    +0.000 A 
BRANCH  20  22
ATOM     22  O   UNL     1      45.202   3.233   7.688  0.00  0.00    +0.000 OA
BRANCH  22  23
ATOM     23  C   UNL     1      46.575   3.209   7.242  0.00  0.00    +0.000 C 
ATOM     24  C   UNL     1      46.819   3.184   5.713  0.00  0.00    +0.000 C 
ATOM     25  C   UNL     1      47.801   2.021   5.907  0.00  0.00    +0.000 C 
ATOM     26  C   UNL     1      47.225   1.805   7.311  0.00  0.00    +0.000 C 
ENDBRANCH  22  23
ENDBRANCH  20  22
ENDBRANCH  15  16
ENDBRANCH  14  15
ENDBRANCH   1  14
TORSDOF 7
ENDMDL
MODEL 6
REMARK VINA RESULT:    -7.131      2.697      3.384
REMARK INTER + INTRA:         -10.944
REMARK INTER:                 -10.361
REMARK INTRA:                  -0.584
REMARK UNBOUND:                -0.895
REMARK  Name = 
REMARK  7 active torsions:
REMARK  status: ('A' for Active; 'I' for Inactive)
REMARK    1  A    between atoms: C_2  and  C_4
REMARK    2  A    between atoms: C_7  and  N_8
REMARK    3  A    between atoms: N_8  and  C_9
REMARK    4  A    between atoms: C_9  and  C_10
REMARK    5  A    between atoms: C_10  and  C_11
REMARK    6  A    between atoms: C_15  and  O_16
REMARK    7  A    between atoms: O_16  and  C_17
REMARK                            x       y       z     vdW  Elec       q    Type
REMARK                         _______ _______ _______ _____ _____    ______ ____
ROOT
ATOM      1  N   UNL     1      43.774   3.534  10.319  0.00  0.00    +0.000 N 
ATOM      2  H   UNL     1      43.481   4.505  10.226  0.00  0.00    +0.000 HD
ENDROOT
BRANCH   1   6
ATOM      3  C   UNL     1      46.584   2.653   7.371  0.00  0.00    +0.000 A 
ATOM      4  C   UNL     1      46.133   1.607   8.163  0.00  0.00    +0.000 A 
ATOM      5  C   UNL     1      45.217   1.891   9.178  0.00  0.00    +0.000 A 
ATOM      6  C   UNL     1      44.777   3.197   9.402  0.00  0.00    +0.000 A 
ATOM      7  C   UNL     1      45.290   4.165   8.524  0.00  0.00    +0.000 A 
ATOM      8  N   UNL     1      46.190   3.943   7.534  0.00  0.00    +0.000 NA
BRANCH   3  10
ATOM      9  N   UNL     1      47.483   3.242   5.197  0.00  0.00    +0.000 N 
ATOM     10  C   UNL     1      47.540   2.372   6.253  0.00  0.00    +0.000 C 
ATOM     11  O   UNL     1      48.323   1.431   6.270  0.00  0.00    +0.000 OA
ATOM     12  H   UNL     1      48.098   3.108   4.409  0.00  0.00    +0.000 HD
ATOM     13  H   UNL     1      46.829   4.016   5.221  0.00  0.00    +0.000 HD
ENDBRANCH   3  10
ENDBRANCH   1   6
BRANCH   1  14
ATOM     14  C   UNL     1      43.916   3.119  11.720  0.00  0.00    +0.000 C 
BRANCH  14  15
ATOM     15  C   UNL     1      43.413   4.227  12.656  0.00  0.00    +0.000 C 
BRANCH  15  16
ATOM     16  C   UNL     1      44.122   5.536  12.407  0.00  0.00    +0.000 A 
ATOM     17  C   UNL     1      43.559   6.503  11.567  0.00  0.00    +0.000 A 
ATOM     18  C   UNL     1      44.195   7.731  11.375  0.00  0.00    +0.000 A 
ATOM     19  C   UNL     1      45.406   8.008  12.020  0.00  0.00    +0.000 A 
ATOM     20  C   UNL     1      45.978   7.050  12.851  0.00  0.00    +0.000 A 
ATOM     21  C   UNL     1      45.336   5.825  13.050  0.00  0.00    +0.000 A 
BRANCH  20  22
ATOM     22  O   UNL     1      47.143   7.219  13.560  0.00  0.00    +0.000 OA
BRANCH  22  23
ATOM     23  C   UNL     1      48.400   6.822  12.972  0.00  0.00    +0.000 C 
ATOM     24  C   UNL     1      49.682   7.490  13.529  0.00  0.00    +0.000 C 
ATOM     25  C   UNL     1      50.129   7.787  12.091  0.00  0.00    +0.000 C 
ATOM     26  C   UNL     1      48.698   7.511  11.618  0.00  0.00    +0.000 C 
ENDBRANCH  22  23
ENDBRANCH  20  22
ENDBRANCH  15  16
ENDBRANCH  14  15
ENDBRANCH   1  14
TORSDOF 7
ENDMDL
MODEL 7
REMARK VINA RESULT:    -6.769      2.969      7.134
REMARK INTER + INTRA:         -10.434
REMARK INTER:                  -9.745
REMARK INTRA:                  -0.689
REMARK UNBOUND:                -0.895
REMARK  Name = 
REMARK  7 active torsions:
REMARK  status: ('A' for Active; 'I' for Inactive)
REMARK    1  A    between atoms: C_2  and  C_4
REMARK    2  A    between atoms: C_7  and  N_8
REMARK    3  A    between atoms: N_8  and  C_9
REMARK    4  A    between atoms: C_9  and  C_10
REMARK    5  A    between atoms: C_10  and  C_11
REMARK    6  A    between atoms: C_15  and  O_16
REMARK    7  A    between atoms: O_16  and  C_17
REMARK                            x       y       z     vdW  Elec       q    Type
REMARK                         _______ _______ _______ _____ _____    ______ ____
ROOT
ATOM      1  N   UNL     1      47.586   7.338  13.263  0.00  0.00    +0.000 N 
ATOM      2  H   UNL     1      47.048   8.109  13.654  0.00  0.00    +0.000 HD
ENDROOT
BRANCH   1   6
ATOM      3  C   UNL     1      47.931   4.275  16.067  0.00  0.00    +0.000 A 
ATOM      4  C   UNL     1      48.551   5.483  16.354  0.00  0.00    +0.000 A 
ATOM      5  C   UNL     1      48.474   6.508  15.410  0.00  0.00    +0.000 A 
ATOM      6  C   UNL     1      47.804   6.319  14.200  0.00  0.00    +0.000 A 
ATOM      7  C   UNL     1      47.202   5.063  14.033  0.00  0.00    +0.000 A 
ATOM      8  N   UNL     1      47.260   4.031  14.912  0.00  0.00    +0.000 NA
BRANCH   3  10
ATOM      9  N   UNL     1      46.768   2.866  17.662  0.00  0.00    +0.000 N 
ATOM     10  C   UNL     1      47.968   3.169  17.077  0.00  0.00    +0.000 C 
ATOM     11  O   UNL     1      48.995   2.570  17.367  0.00  0.00    +0.000 OA
ATOM     12  H   UNL     1      46.723   2.133  18.353  0.00  0.00    +0.000 HD
ATOM     13  H   UNL     1      45.935   3.377  17.390  0.00  0.00    +0.000 HD
ENDBRANCH   3  10
ENDBRANCH   1   6
BRANCH   1  14
ATOM     14  C   UNL     1      47.157   6.981  11.905  0.00  0.00    +0.000 C 
BRANCH  14  15
ATOM     15  C   UNL     1      45.685   7.366  11.695  0.00  0.00    +0.000 C 
BRANCH  15  16
ATOM     16  C   UNL     1      44.808   6.151  11.518  0.00  0.00    +0.000 A 
ATOM     17  C   UNL     1      43.444   6.204  11.829  0.00  0.00    +0.000 A 
ATOM     18  C   UNL     1      42.627   5.091  11.620  0.00  0.00    +0.000 A 
ATOM     19  C   UNL     1      43.162   3.909  11.099  0.00  0.00    +0.000 A 
ATOM     20  C   UNL     1      44.518   3.842  10.794  0.00  0.00    +0.000 A 
ATOM     21  C   UNL     1      45.334   4.959  10.995  0.00  0.00    +0.000 A 
BRANCH  20  22
ATOM     22  O   UNL     1      45.149   2.750  10.250  0.00  0.00    +0.000 OA
BRANCH  22  23
ATOM     23  C   UNL     1      45.054   2.505   8.831  0.00  0.00    +0.000 C 
ATOM     24  C   UNL     1      46.202   1.698   8.175  0.00  0.00    +0.000 C 
ATOM     25  C   UNL     1      46.299   2.764   7.076  0.00  0.00    +0.000 C 
ATOM     26  C   UNL     1      45.484   3.712   7.962  0.00  0.00    +0.000 C 
ENDBRANCH  22  23
ENDBRANCH  20  22
ENDBRANCH  15  16
ENDBRANCH  14  15
ENDBRANCH   1  14
TORSDOF 7
ENDMDL
MODEL 8
REMARK VINA RESULT:    -6.406      4.021      8.491
REMARK INTER + INTRA:          -9.923
REMARK INTER:                  -9.363
REMARK INTRA:                  -0.560
REMARK UNBOUND:                -0.895
REMARK  Name = 
REMARK  7 active torsions:
REMARK  status: ('A' for Active; 'I' for Inactive)
REMARK    1  A    between atoms: C_2  and  C_4
REMARK    2  A    between atoms: C_7  and  N_8
REMARK    3  A    between atoms: N_8  and  C_9
REMARK    4  A    between atoms: C_9  and  C_10
REMARK    5  A    between atoms: C_10  and  C_11
REMARK    6  A    between atoms: C_15  and  O_16
REMARK    7  A    between atoms: O_16  and  C_17
REMARK                            x       y       z     vdW  Elec       q    Type
REMARK                         _______ _______ _______ _____ _____    ______ ____
ROOT
ATOM      1  N   UNL     1      47.023   3.630  15.018  0.00  0.00    +0.000 N 
ATOM      2  H   UNL     1      47.174   2.660  14.748  0.00  0.00    +0.000 HD
ENDROOT
BRANCH   1   6
ATOM      3  C   UNL     1      48.810   4.536  18.671  0.00  0.00    +0.000 A 
ATOM      4  C   UNL     1      48.266   3.269  18.518  0.00  0.00    +0.000 A 
ATOM      5  C   UNL     1      47.633   2.961  17.313  0.00  0.00    +0.000 A 
ATOM      6  C   UNL     1      47.536   3.907  16.292  0.00  0.00    +0.000 A 
ATOM      7  C   UNL     1      48.140   5.146  16.557  0.00  0.00    +0.000 A 
ATOM      8  N   UNL     1      48.754   5.499  17.715  0.00  0.00    +0.000 NA
BRANCH   3  10
ATOM      9  N   UNL     1      50.755   4.301  20.101  0.00  0.00    +0.000 N 
ATOM     10  C   UNL     1      49.526   4.882  19.941  0.00  0.00    +0.000 C 
ATOM     11  O   UNL     1      49.054   5.633  20.785  0.00  0.00    +0.000 OA
ATOM     12  H   UNL     1      51.289   4.490  20.936  0.00  0.00    +0.000 HD
ATOM     13  H   UNL     1      51.120   3.692  19.377  0.00  0.00    +0.000 HD
ENDBRANCH   3  10
ENDBRANCH   1   6
BRANCH   1  14
ATOM     14  C   UNL     1      47.285   4.569  13.921  0.00  0.00    +0.000 C 
BRANCH  14  15
ATOM     15  C   UNL     1      46.103   5.536  13.757  0.00  0.00    +0.000 C 
BRANCH  15  16
ATOM     16  C   UNL     1      45.055   4.986  12.819  0.00  0.00    +0.000 A 
ATOM     17  C   UNL     1      43.753   5.499  12.825  0.00  0.00    +0.000 A 
ATOM     18  C   UNL     1      42.800   5.020  11.925  0.00  0.00    +0.000 A 
ATOM     19  C   UNL     1      43.134   4.019  11.007  0.00  0.00    +0.000 A 
ATOM     20  C   UNL     1      44.424   3.496  10.998  0.00  0.00    +0.000 A 
ATOM     21  C   UNL     1      45.380   3.982  11.894  0.00  0.00    +0.000 A 
BRANCH  20  22
ATOM     22  O   UNL     1      44.877   2.536  10.126  0.00  0.00    +0.000 OA
BRANCH  22  23
ATOM     23  C   UNL     1      44.941   2.828   8.714  0.00  0.00    +0.000 C 
ATOM     24  C   UNL     1      46.109   2.199   7.915  0.00  0.00    +0.000 C 
ATOM     25  C   UNL     1      46.404   3.573   7.300  0.00  0.00    +0.000 C 
ATOM     26  C   UNL     1      45.546   4.217   8.394  0.00  0.00    +0.000 C 
ENDBRANCH  22  23
ENDBRANCH  20  22
ENDBRANCH  15  16
ENDBRANCH  14  15
ENDBRANCH   1  14
TORSDOF 7
ENDMDL
MODEL 9
REMARK VINA RESULT:    -5.984      2.831      4.459
REMARK INTER + INTRA:          -9.328
REMARK INTER:                  -8.306
REMARK INTRA:                  -1.022
REMARK UNBOUND:                -0.895
REMARK  Name = 
REMARK  7 active torsions:
REMARK  status: ('A' for Active; 'I' for Inactive)
REMARK    1  A    between atoms: C_2  and  C_4
REMARK    2  A    between atoms: C_7  and  N_8
REMARK    3  A    between atoms: N_8  and  C_9
REMARK    4  A    between atoms: C_9  and  C_10
REMARK    5  A    between atoms: C_10  and  C_11
REMARK    6  A    between atoms: C_15  and  O_16
REMARK    7  A    between atoms: O_16  and  C_17
REMARK                            x       y       z     vdW  Elec       q    Type
REMARK                         _______ _______ _______ _____ _____    ______ ____
ROOT
ATOM      1  N   UNL     1      46.185   7.694  13.330  0.00  0.00    +0.000 N 
ATOM      2  H   UNL     1      45.422   8.184  13.794  0.00  0.00    +0.000 HD
ENDROOT
BRANCH   1   6
ATOM      3  C   UNL     1      44.634   4.242  11.589  0.00  0.00    +0.000 A 
ATOM      4  C   UNL     1      45.486   4.089  12.673  0.00  0.00    +0.000 A 
ATOM      5  C   UNL     1      46.042   5.234  13.247  0.00  0.00    +0.000 A 
ATOM      6  C   UNL     1      45.760   6.501  12.734  0.00  0.00    +0.000 A 
ATOM      7  C   UNL     1      44.871   6.529  11.648  0.00  0.00    +0.000 A 
ATOM      8  N   UNL     1      44.317   5.447  11.047  0.00  0.00    +0.000 NA
BRANCH   3  10
ATOM      9  N   UNL     1      43.392   2.176  11.856  0.00  0.00    +0.000 N 
ATOM     10  C   UNL     1      43.996   3.034  10.976  0.00  0.00    +0.000 C 
ATOM     11  O   UNL     1      44.007   2.817   9.771  0.00  0.00    +0.000 OA
ATOM     12  H   UNL     1      42.946   1.340  11.509  0.00  0.00    +0.000 HD
ATOM     13  H   UNL     1      43.394   2.392  12.846  0.00  0.00    +0.000 HD
ENDBRANCH   3  10
ENDBRANCH   1   6
BRANCH   1  14
ATOM     14  C   UNL     1      47.061   8.600  12.576  0.00  0.00    +0.000 C 
BRANCH  14  15
ATOM     15  C   UNL     1      48.530   8.353  12.951  0.00  0.00    +0.000 C 
BRANCH  15  16
ATOM     16  C   UNL     1      48.696   8.105  14.430  0.00  0.00    +0.000 A 
ATOM     17  C   UNL     1      48.414   9.113  15.358  0.00  0.00    +0.000 A 
ATOM     18  C   UNL     1      48.525   8.865  16.728  0.00  0.00    +0.000 A 
ATOM     19  C   UNL     1      48.923   7.606  17.189  0.00  0.00    +0.000 A 
ATOM     20  C   UNL     1      49.215   6.599  16.274  0.00  0.00    +0.000 A 
ATOM     21  C   UNL     1      49.094   6.845  14.903  0.00  0.00    +0.000 A 
BRANCH  20  22
ATOM     22  O   UNL     1      49.583   5.318  16.606  0.00  0.00    +0.000 OA
BRANCH  22  23
ATOM     23  C   UNL     1      48.760   4.550  17.510  0.00  0.00    +0.000 C 
ATOM     24  C   UNL     1      48.902   3.009  17.457  0.00  0.00    +0.000 C 
ATOM     25  C   UNL     1      47.373   2.889  17.390  0.00  0.00    +0.000 C 
ATOM     26  C   UNL     1      47.301   4.376  17.025  0.00  0.00    +0.000 C 
ENDBRANCH  22  23
ENDBRANCH  20  22
ENDBRANCH  15  16
ENDBRANCH  14  15
ENDBRANCH   1  14
TORSDOF 7
ENDMDL
