MODEL 1
REMARK VINA RESULT:    -7.994      0.000      0.000
REMARK INTER + INTRA:         -10.804
REMARK INTER:                 -10.097
REMARK INTRA:                  -0.707
REMARK UNBOUND:                -0.707
REMARK  Name = 
REMARK  6 active torsions:
REMARK  status: ('A' for Active; 'I' for Inactive)
REMARK    1  A    between atoms: C_1  and  C_2
REMARK    2  A    between atoms: N_4  and  C_5
REMARK    3  A    between atoms: C_5  and  C_6
REMARK    4  A    between atoms: C_9  and  C_10
REMARK    5  A    between atoms: C_10  and  C_11
REMARK    6  A    between atoms: C_11  and  N_12
REMARK                            x       y       z     vdW  Elec       q    Type
REMARK                         _______ _______ _______ _____ _____    ______ ____
ROOT
ATOM      1  C   UNL     1      43.440   4.801  10.808  0.00  0.00    +0.000 C 
ENDROOT
BRANCH   1   5
ATOM      2  C   UNL     1      45.843   8.991  12.178  0.00  0.00    +0.000 C 
ATOM      3  C   UNL     1      45.423   7.568  12.100  0.00  0.00    +0.000 A 
ATOM      4  C   UNL     1      44.363   7.058  11.381  0.00  0.00    +0.000 A 
ATOM      5  N   UNL     1      44.355   5.692  11.520  0.00  0.00    +0.000 N 
ATOM      6  C   UNL     1      45.347   5.304  12.401  0.00  0.00    +0.000 A 
ATOM      7  C   UNL     1      45.712   4.040  12.895  0.00  0.00    +0.000 A 
ATOM      8  C   UNL     1      46.809   3.955  13.757  0.00  0.00    +0.000 A 
ATOM      9  C   UNL     1      47.523   5.092  14.119  0.00  0.00    +0.000 A 
ATOM     10  C   UNL     1      47.152   6.348  13.630  0.00  0.00    +0.000 A 
ATOM     11  C   UNL     1      46.047   6.462  12.759  0.00  0.00    +0.000 A 
ENDBRANCH   1   5
BRANCH   1  12
ATOM     12  C   UNL     1      44.191   3.955   9.807  0.00  0.00    +0.000 A 
ATOM     13  C   UNL     1      44.212   2.559   9.925  0.00  0.00    +0.000 A 
ATOM     14  C   UNL     1      45.054   1.789   9.120  0.00  0.00    +0.000 A 
ATOM     15  C   UNL     1      45.894   2.401   8.184  0.00  0.00    +0.000 A 
ATOM     16  C   UNL     1      45.809   3.786   7.999  0.00  0.00    +0.000 A 
ATOM     17  C   UNL     1      44.967   4.557   8.807  0.00  0.00    +0.000 A 
BRANCH  15  18
ATOM     18  C   UNL     1      46.931   1.587   7.447  0.00  0.00    +0.000 C 
BRANCH  18  19
ATOM     19  C   UNL     1      48.019   2.430   6.783  0.00  0.00    +0.000 C 
BRANCH  19  20
ATOM     20  N   UNL     1      48.421   1.831   5.509  0.00  0.00    +0.000 NA
ATOM     21  H   UNL     1      49.359   2.147   5.262  0.00  0.00    +0.000 HD
ATOM     22  H   UNL     1      47.803   2.160   4.769  0.00  0.00    +0.000 HD
ENDBRANCH  19  20
ENDBRANCH  18  19
ENDBRANCH  15  18
ENDBRANCH   1  12
TORSDOF 5
ENDMDL
MODEL 2
REMARK VINA RESULT:    -7.838      0.693      2.441
REMARK INTER + INTRA:         -10.607
REMARK INTER:                  -9.991
REMARK INTRA:                  -0.616
REMARK UNBOUND:                -0.707
REMARK  Name = 
REMARK  6 active torsions:
REMARK  status: ('A' for Active; 'I' for Inactive)
REMARK    1  A    between atoms: C_1  and  C_2
REMARK    2  A    between atoms: N_4  and  C_5
REMARK    3  A    between atoms: C_5  and  C_6
REMARK    4  A    between atoms: C_9  and  C_10
REMARK    5  A    between atoms: C_10  and  C_11
REMARK    6  A    between atoms: C_11  and  N_12
REMARK                            x       y       z     vdW  Elec       q    Type
REMARK                         _______ _______ _______ _____ _____    ______ ____
ROOT
ATOM      1  C   UNL     1      43.760   4.668  10.560  0.00  0.00    +0.000 C 
ENDROOT
BRANCH   1   5
ATOM      2  C   UNL     1      47.023   4.873  14.370  0.00  0.00    +0.000 C 
ATOM      3  C   UNL     1      46.140   5.280  13.247  0.00  0.00    +0.000 A 
ATOM      4  C   UNL     1      45.458   4.445  12.389  0.00  0.00    +0.000 A 
ATOM      5  N   UNL     1      44.703   5.213  11.535  0.00  0.00    +0.000 N 
ATOM      6  C   UNL     1      44.953   6.553  11.765  0.00  0.00    +0.000 A 
ATOM      7  C   UNL     1      44.468   7.712  11.136  0.00  0.00    +0.000 A 
ATOM      8  C   UNL     1      44.877   8.955  11.628  0.00  0.00    +0.000 A 
ATOM      9  C   UNL     1      45.745   9.045  12.711  0.00  0.00    +0.000 A 
ATOM     10  C   UNL     1      46.230   7.889  13.328  0.00  0.00    +0.000 A 
ATOM     11  C   UNL     1      45.834   6.620  12.851  0.00  0.00    +0.000 A 
ENDBRANCH   1   5
BRANCH   1  12
ATOM     12  C   UNL     1      44.479   3.816   9.541  0.00  0.00    +0.000 A 
ATOM     13  C   UNL     1      44.430   2.419   9.616  0.00  0.00    +0.000 A 
ATOM     14  C   UNL     1      45.243   1.633   8.796  0.00  0.00    +0.000 A 
ATOM     15  C   UNL     1      46.123   2.230   7.888  0.00  0.00    +0.000 A 
ATOM     16  C   UNL     1      46.108   3.622   7.745  0.00  0.00    +0.000 A 
ATOM     17  C   UNL     1      45.297   4.409   8.568  0.00  0.00    +0.000 A 
BRANCH  15  18
ATOM     18  C   UNL     1      47.126   1.388   7.137  0.00  0.00    +0.000 C 
BRANCH  18  19
ATOM     19  C   UNL     1      48.330   2.176   6.622  0.00  0.00    +0.000 C 
BRANCH  19  20
ATOM     20  N   UNL     1      48.345   2.185   5.158  0.00  0.00    +0.000 NA
ATOM     21  H   UNL     1      47.640   2.835   4.812  0.00  0.00    +0.000 HD
ATOM     22  H   UNL     1      48.083   1.265   4.809  0.00  0.00    +0.000 HD
ENDBRANCH  19  20
ENDBRANCH  18  19
ENDBRANCH  15  18
ENDBRANCH   1  12
TORSDOF 5
ENDMDL
MODEL 3
REMARK VINA RESULT:    -7.570      1.193      2.472
REMARK INTER + INTRA:         -10.268
REMARK INTER:                  -9.609
REMARK INTRA:                  -0.659
REMARK UNBOUND:                -0.707
REMARK  Name = 
REMARK  6 active torsions:
REMARK  status: ('A' for Active; 'I' for Inactive)
REMARK    1  A    between atoms: C_1  and  C_2
REMARK    2  A    between atoms: N_4  and  C_5
REMARK    3  A    between atoms: C_5  and  C_6
REMARK    4  A    between atoms: C_9  and  C_10
REMARK    5  A    between atoms: C_10  and  C_11
REMARK    6  A    between atoms: C_11  and  N_12
REMARK                            x       y       z     vdW  Elec       q    Type
REMARK                         _______ _______ _______ _____ _____    ______ ____
ROOT
ATOM      1  C   UNL     1      44.535   5.152  11.244  0.00  0.00    +0.000 C 
ENDROOT
BRANCH   1   5
ATOM      2  C   UNL     1      47.157   3.983  15.363  0.00  0.00    +0.000 C 
ATOM      3  C   UNL     1      46.745   4.629  14.091  0.00  0.00    +0.000 A 
ATOM      4  C   UNL     1      45.686   4.266  13.285  0.00  0.00    +0.000 A 
ATOM      5  N   UNL     1      45.604   5.155  12.241  0.00  0.00    +0.000 N 
ATOM      6  C   UNL     1      46.658   6.049  12.302  0.00  0.00    +0.000 A 
ATOM      7  C   UNL     1      47.032   7.105  11.454  0.00  0.00    +0.000 A 
ATOM      8  C   UNL     1      48.144   7.876  11.806  0.00  0.00    +0.000 A 
ATOM      9  C   UNL     1      48.864   7.606  12.965  0.00  0.00    +0.000 A 
ATOM     10  C   UNL     1      48.490   6.549  13.800  0.00  0.00    +0.000 A 
ATOM     11  C   UNL     1      47.373   5.754  13.468  0.00  0.00    +0.000 A 
ENDBRANCH   1   5
BRANCH   1  12
ATOM     12  C   UNL     1      44.901   4.274  10.071  0.00  0.00    +0.000 A 
ATOM     13  C   UNL     1      44.653   2.896  10.106  0.00  0.00    +0.000 A 
ATOM     14  C   UNL     1      45.159   2.057   9.111  0.00  0.00    +0.000 A 
ATOM     15  C   UNL     1      45.924   2.579   8.064  0.00  0.00    +0.000 A 
ATOM     16  C   UNL     1      46.095   3.966   7.975  0.00  0.00    +0.000 A 
ATOM     17  C   UNL     1      45.592   4.806   8.973  0.00  0.00    +0.000 A 
BRANCH  15  18
ATOM     18  C   UNL     1      46.620   1.654   7.095  0.00  0.00    +0.000 C 
BRANCH  18  19
ATOM     19  C   UNL     1      47.260   2.370   5.907  0.00  0.00    +0.000 C 
BRANCH  19  20
ATOM     20  N   UNL     1      48.602   1.842   5.655  0.00  0.00    +0.000 NA
ATOM     21  H   UNL     1      48.995   2.286   4.826  0.00  0.00    +0.000 HD
ATOM     22  H   UNL     1      48.542   0.847   5.447  0.00  0.00    +0.000 HD
ENDBRANCH  19  20
ENDBRANCH  18  19
ENDBRANCH  15  18
ENDBRANCH   1  12
TORSDOF 5
ENDMDL
MODEL 4
REMARK VINA RESULT:    -5.912      2.619      6.311
REMARK INTER + INTRA:          -8.173
REMARK INTER:                  -7.671
REMARK INTRA:                  -0.502
REMARK UNBOUND:                -0.707
REMARK  Name = 
REMARK  6 active torsions:
REMARK  status: ('A' for Active; 'I' for Inactive)
REMARK    1  A    between atoms: C_1  and  C_2
REMARK    2  A    between atoms: N_4  and  C_5
REMARK    3  A    between atoms: C_5  and  C_6
REMARK    4  A    between atoms: C_9  and  C_10
REMARK    5  A    between atoms: C_10  and  C_11
REMARK    6  A    between atoms: C_11  and  N_12
REMARK                            x       y       z     vdW  Elec       q    Type
REMARK                         _______ _______ _______ _____ _____    ______ ____
ROOT
ATOM      1  C   UNL     1      45.427   6.748  11.034  0.00  0.00    +0.000 C 
ENDROOT
BRANCH   1   5
ATOM      2  C   UNL     1      43.331   2.254  11.821  0.00  0.00    +0.000 C 
ATOM      3  C   UNL     1      44.056   3.378  11.174  0.00  0.00    +0.000 A 
ATOM      4  C   UNL     1      44.180   4.665  11.651  0.00  0.00    +0.000 A 
ATOM      5  N   UNL     1      44.982   5.377  10.792  0.00  0.00    +0.000 N 
ATOM      6  C   UNL     1      45.313   4.594   9.702  0.00  0.00    +0.000 A 
ATOM      7  C   UNL     1      46.066   4.873   8.549  0.00  0.00    +0.000 A 
ATOM      8  C   UNL     1      46.270   3.845   7.624  0.00  0.00    +0.000 A 
ATOM      9  C   UNL     1      45.741   2.577   7.836  0.00  0.00    +0.000 A 
ATOM     10  C   UNL     1      44.987   2.307   8.982  0.00  0.00    +0.000 A 
ATOM     11  C   UNL     1      44.764   3.327   9.931  0.00  0.00    +0.000 A 
ENDBRANCH   1   5
BRANCH   1  12
ATOM     12  C   UNL     1      46.700   6.761  11.847  0.00  0.00    +0.000 A 
ATOM     13  C   UNL     1      46.716   6.266  13.157  0.00  0.00    +0.000 A 
ATOM     14  C   UNL     1      47.833   6.448  13.974  0.00  0.00    +0.000 A 
ATOM     15  C   UNL     1      48.956   7.132  13.496  0.00  0.00    +0.000 A 
ATOM     16  C   UNL     1      48.980   7.546  12.159  0.00  0.00    +0.000 A 
ATOM     17  C   UNL     1      47.860   7.366  11.343  0.00  0.00    +0.000 A 
BRANCH  15  18
ATOM     18  C   UNL     1      50.086   7.486  14.433  0.00  0.00    +0.000 C 
BRANCH  18  19
ATOM     19  C   UNL     1      51.057   8.520  13.866  0.00  0.00    +0.000 C 
BRANCH  19  20
ATOM     20  N   UNL     1      52.351   7.901  13.578  0.00  0.00    +0.000 NA
ATOM     21  H   UNL     1      52.301   6.899  13.763  0.00  0.00    +0.000 HD
ATOM     22  H   UNL     1      53.057   8.275  14.211  0.00  0.00    +0.000 HD
ENDBRANCH  19  20
ENDBRANCH  18  19
ENDBRANCH  15  18
ENDBRANCH   1  12
TORSDOF 5
ENDMDL
MODEL 5
REMARK VINA RESULT:    -5.549      1.729      3.851
REMARK INTER + INTRA:          -7.715
REMARK INTER:                  -7.136
REMARK INTRA:                  -0.580
REMARK UNBOUND:                -0.707
REMARK  Name = 
REMARK  6 active torsions:
REMARK  status: ('A' for Active; 'I' for Inactive)
REMARK    1  A    between atoms: C_1  and  C_2
REMARK    2  A    between atoms: N_4  and  C_5
REMARK    3  A    between atoms: C_5  and  C_6
REMARK    4  A    between atoms: C_9  and  C_10
REMARK    5  A    between atoms: C_10  and  C_11
REMARK    6  A    between atoms: C_11  and  N_12
REMARK                            x       y       z     vdW  Elec       q    Type
REMARK                         _______ _______ _______ _____ _____    ______ ____
ROOT
ATOM      1  C   UNL     1      45.033   6.385  12.789  0.00  0.00    +0.000 C 
ENDROOT
BRANCH   1   5
ATOM      2  C   UNL     1      49.672   8.255  13.225  0.00  0.00    +0.000 C 
ATOM      3  C   UNL     1      48.223   8.135  12.918  0.00  0.00    +0.000 A 
ATOM      4  C   UNL     1      47.454   6.994  12.998  0.00  0.00    +0.000 A 
ATOM      5  N   UNL     1      46.153   7.319  12.697  0.00  0.00    +0.000 N 
ATOM      6  C   UNL     1      46.076   8.650  12.330  0.00  0.00    +0.000 A 
ATOM      7  C   UNL     1      44.992   9.435  11.902  0.00  0.00    +0.000 A 
ATOM      8  C   UNL     1      45.217  10.790  11.638  0.00  0.00    +0.000 A 
ATOM      9  C   UNL     1      46.481  11.347  11.793  0.00  0.00    +0.000 A 
ATOM     10  C   UNL     1      47.557  10.560  12.213  0.00  0.00    +0.000 A 
ATOM     11  C   UNL     1      47.358   9.189  12.484  0.00  0.00    +0.000 A 
ENDBRANCH   1   5
BRANCH   1  12
ATOM     12  C   UNL     1      45.165   5.290  11.757  0.00  0.00    +0.000 A 
ATOM     13  C   UNL     1      45.385   5.601  10.409  0.00  0.00    +0.000 A 
ATOM     14  C   UNL     1      45.318   4.609   9.429  0.00  0.00    +0.000 A 
ATOM     15  C   UNL     1      45.027   3.286   9.778  0.00  0.00    +0.000 A 
ATOM     16  C   UNL     1      44.899   2.955  11.131  0.00  0.00    +0.000 A 
ATOM     17  C   UNL     1      44.963   3.949  12.112  0.00  0.00    +0.000 A 
BRANCH  15  18
ATOM     18  C   UNL     1      44.775   2.255   8.704  0.00  0.00    +0.000 C 
BRANCH  18  19
ATOM     19  C   UNL     1      46.011   1.439   8.330  0.00  0.00    +0.000 C 
BRANCH  19  20
ATOM     20  N   UNL     1      46.734   2.082   7.232  0.00  0.00    +0.000 NA
ATOM     21  H   UNL     1      46.183   2.022   6.376  0.00  0.00    +0.000 HD
ATOM     22  H   UNL     1      47.600   1.575   7.051  0.00  0.00    +0.000 HD
ENDBRANCH  19  20
ENDBRANCH  18  19
ENDBRANCH  15  18
ENDBRANCH   1  12
TORSDOF 5
ENDMDL
MODEL 6
REMARK VINA RESULT:    -5.401      1.432      2.367
REMARK INTER + INTRA:          -7.528
REMARK INTER:                  -7.232
REMARK INTRA:                  -0.296
REMARK UNBOUND:                -0.707
REMARK  Name = 
REMARK  6 active torsions:
REMARK  status: ('A' for Active; 'I' for Inactive)
REMARK    1  A    between atoms: C_1  and  C_2
REMARK    2  A    between atoms: N_4  and  C_5
REMARK    3  A    between atoms: C_5  and  C_6
REMARK    4  A    between atoms: C_9  and  C_10
REMARK    5  A    between atoms: C_10  and  C_11
REMARK    6  A    between atoms: C_11  and  N_12
REMARK                            x       y       z     vdW  Elec       q    Type
REMARK                         _______ _______ _______ _____ _____    ______ ____
ROOT
ATOM      1  C   UNL     1      44.300   6.131  11.909  0.00  0.00    +0.000 C 
ENDROOT
BRANCH   1   5
ATOM      2  C   UNL     1      45.875  10.880  11.491  0.00  0.00    +0.000 C 
ATOM      3  C   UNL     1      45.841   9.428  11.806  0.00  0.00    +0.000 A 
ATOM      4  C   UNL     1      44.756   8.585  11.699  0.00  0.00    +0.000 A 
ATOM      5  N   UNL     1      45.156   7.310  12.019  0.00  0.00    +0.000 N 
ATOM      6  C   UNL     1      46.478   7.322  12.425  0.00  0.00    +0.000 A 
ATOM      7  C   UNL     1      47.320   6.295  12.884  0.00  0.00    +0.000 A 
ATOM      8  C   UNL     1      48.648   6.611  13.185  0.00  0.00    +0.000 A 
ATOM      9  C   UNL     1      49.126   7.908  13.037  0.00  0.00    +0.000 A 
ATOM     10  C   UNL     1      48.282   8.927  12.586  0.00  0.00    +0.000 A 
ATOM     11  C   UNL     1      46.936   8.636  12.276  0.00  0.00    +0.000 A 
ENDBRANCH   1   5
BRANCH   1  12
ATOM     12  C   UNL     1      44.840   5.174  10.872  0.00  0.00    +0.000 A 
ATOM     13  C   UNL     1      45.600   5.644   9.794  0.00  0.00    +0.000 A 
ATOM     14  C   UNL     1      45.938   4.795   8.738  0.00  0.00    +0.000 A 
ATOM     15  C   UNL     1      45.520   3.461   8.738  0.00  0.00    +0.000 A 
ATOM     16  C   UNL     1      44.840   2.964   9.856  0.00  0.00    +0.000 A 
ATOM     17  C   UNL     1      44.499   3.815  10.913  0.00  0.00    +0.000 A 
BRANCH  15  18
ATOM     18  C   UNL     1      45.728   2.599   7.517  0.00  0.00    +0.000 C 
BRANCH  18  19
ATOM     19  C   UNL     1      47.000   1.753   7.567  0.00  0.00    +0.000 C 
BRANCH  19  20
ATOM     20  N   UNL     1      47.103   0.915   6.372  0.00  0.00    +0.000 NA
ATOM     21  H   UNL     1      48.082   0.826   6.098  0.00  0.00    +0.000 HD
ATOM     22  H   UNL     1      46.628   1.371   5.594  0.00  0.00    +0.000 HD
ENDBRANCH  19  20
ENDBRANCH  18  19
ENDBRANCH  15  18
ENDBRANCH   1  12
TORSDOF 5
ENDMDL
MODEL 7
REMARK VINA RESULT:    -5.351      2.395      6.359
REMARK INTER + INTRA:          -7.466
REMARK INTER:                  -7.043
REMARK INTRA:                  -0.422
REMARK UNBOUND:                -0.707
REMARK  Name = 
REMARK  6 active torsions:
REMARK  status: ('A' for Active; 'I' for Inactive)
REMARK    1  A    between atoms: C_1  and  C_2
REMARK    2  A    between atoms: N_4  and  C_5
REMARK    3  A    between atoms: C_5  and  C_6
REMARK    4  A    between atoms: C_9  and  C_10
REMARK    5  A    between atoms: C_10  and  C_11
REMARK    6  A    between atoms: C_11  and  N_12
REMARK                            x       y       z     vdW  Elec       q    Type
REMARK                         _______ _______ _______ _____ _____    ______ ____
ROOT
ATOM      1  C   UNL     1      45.310   7.384  11.343  0.00  0.00    +0.000 C 
ENDROOT
BRANCH   1   5
ATOM      2  C   UNL     1      45.688   3.691   7.963  0.00  0.00    +0.000 C 
ATOM      3  C   UNL     1      45.390   4.429   9.217  0.00  0.00    +0.000 A 
ATOM      4  C   UNL     1      45.751   5.724   9.519  0.00  0.00    +0.000 A 
ATOM      5  N   UNL     1      45.227   6.053  10.746  0.00  0.00    +0.000 N 
ATOM      6  C   UNL     1      44.599   4.951  11.297  0.00  0.00    +0.000 A 
ATOM      7  C   UNL     1      43.955   4.768  12.533  0.00  0.00    +0.000 A 
ATOM      8  C   UNL     1      43.364   3.528  12.796  0.00  0.00    +0.000 A 
ATOM      9  C   UNL     1      43.412   2.500  11.861  0.00  0.00    +0.000 A 
ATOM     10  C   UNL     1      44.060   2.686  10.637  0.00  0.00    +0.000 A 
ATOM     11  C   UNL     1      44.667   3.927  10.346  0.00  0.00    +0.000 A 
ENDBRANCH   1   5
BRANCH   1  12
ATOM     12  C   UNL     1      46.457   7.459  12.323  0.00  0.00    +0.000 A 
ATOM     13  C   UNL     1      47.343   6.385  12.469  0.00  0.00    +0.000 A 
ATOM     14  C   UNL     1      48.284   6.373  13.501  0.00  0.00    +0.000 A 
ATOM     15  C   UNL     1      48.353   7.434  14.410  0.00  0.00    +0.000 A 
ATOM     16  C   UNL     1      47.532   8.550  14.213  0.00  0.00    +0.000 A 
ATOM     17  C   UNL     1      46.588   8.561  13.181  0.00  0.00    +0.000 A 
BRANCH  15  18
ATOM     18  C   UNL     1      49.241   7.335  15.627  0.00  0.00    +0.000 C 
BRANCH  18  19
ATOM     19  C   UNL     1      49.049   6.049  16.429  0.00  0.00    +0.000 C 
BRANCH  19  20
ATOM     20  N   UNL     1      50.343   5.425  16.709  0.00  0.00    +0.000 NA
ATOM     21  H   UNL     1      50.990   6.124  17.071  0.00  0.00    +0.000 HD
ATOM     22  H   UNL     1      50.749   5.079  15.841  0.00  0.00    +0.000 HD
ENDBRANCH  19  20
ENDBRANCH  18  19
ENDBRANCH  15  18
ENDBRANCH   1  12
TORSDOF 5
ENDMDL
MODEL 8
REMARK VINA RESULT:    -5.177      3.686      6.038
REMARK INTER + INTRA:          -7.245
REMARK INTER:                  -6.604
REMARK INTRA:                  -0.641
REMARK UNBOUND:                -0.707
REMARK  Name = 
REMARK  6 active torsions:
REMARK  status: ('A' for Active; 'I' for Inactive)
REMARK    1  A    between atoms: C_1  and  C_2
REMARK    2  A    between atoms: N_4  and  C_5
REMARK    3  A    between atoms: C_5  and  C_6
REMARK    4  A    between atoms: C_9  and  C_10
REMARK    5  A    between atoms: C_10  and  C_11
REMARK    6  A    between atoms: C_11  and  N_12
REMARK                            x       y       z     vdW  Elec       q    Type
REMARK                         _______ _______ _______ _____ _____    ______ ____
ROOT
ATOM      1  C   UNL     1      48.686   6.972  13.901  0.00  0.00    +0.000 C 
ENDROOT
BRANCH   1   5
ATOM      2  C   UNL     1      48.220  10.388  17.551  0.00  0.00    +0.000 C 
ATOM      3  C   UNL     1      48.394   9.091  16.848  0.00  0.00    +0.000 A 
ATOM      4  C   UNL     1      48.288   8.866  15.492  0.00  0.00    +0.000 A 
ATOM      5  N   UNL     1      48.586   7.548  15.240  0.00  0.00    +0.000 N 
ATOM      6  C   UNL     1      48.798   6.880  16.432  0.00  0.00    +0.000 A 
ATOM      7  C   UNL     1      49.088   5.532  16.704  0.00  0.00    +0.000 A 
ATOM      8  C   UNL     1      49.297   5.154  18.034  0.00  0.00    +0.000 A 
ATOM      9  C   UNL     1      49.220   6.086  19.063  0.00  0.00    +0.000 A 
ATOM     10  C   UNL     1      48.925   7.424  18.786  0.00  0.00    +0.000 A 
ATOM     11  C   UNL     1      48.707   7.833  17.453  0.00  0.00    +0.000 A 
ENDBRANCH   1   5
BRANCH   1  12
ATOM     12  C   UNL     1      47.350   6.428  13.452  0.00  0.00    +0.000 A 
ATOM     13  C   UNL     1      46.394   7.271  12.873  0.00  0.00    +0.000 A 
ATOM     14  C   UNL     1      45.095   6.816  12.633  0.00  0.00    +0.000 A 
ATOM     15  C   UNL     1      44.728   5.510  12.971  0.00  0.00    +0.000 A 
ATOM     16  C   UNL     1      45.705   4.637  13.464  0.00  0.00    +0.000 A 
ATOM     17  C   UNL     1      47.004   5.094  13.707  0.00  0.00    +0.000 A 
BRANCH  15  18
ATOM     18  C   UNL     1      43.284   5.079  12.881  0.00  0.00    +0.000 C 
BRANCH  18  19
ATOM     19  C   UNL     1      42.892   4.513  11.517  0.00  0.00    +0.000 C 
BRANCH  19  20
ATOM     20  N   UNL     1      42.935   3.050  11.540  0.00  0.00    +0.000 NA
ATOM     21  H   UNL     1      42.843   2.719  12.501  0.00  0.00    +0.000 HD
ATOM     22  H   UNL     1      43.845   2.730  11.212  0.00  0.00    +0.000 HD
ENDBRANCH  19  20
ENDBRANCH  18  19
ENDBRANCH  15  18
ENDBRANCH   1  12
TORSDOF 5
ENDMDL
MODEL 9
REMARK VINA RESULT:    -5.071      2.665      4.271
REMARK INTER + INTRA:          -7.112
REMARK INTER:                  -6.447
REMARK INTRA:                  -0.665
REMARK UNBOUND:                -0.707
REMARK  Name = 
REMARK  6 active torsions:
REMARK  status: ('A' for Active; 'I' for Inactive)
REMARK    1  A    between atoms: C_1  and  C_2
REMARK    2  A    between atoms: N_4  and  C_5
REMARK    3  A    between atoms: C_5  and  C_6
REMARK    4  A    between atoms: C_9  and  C_10
REMARK    5  A    between atoms: C_10  and  C_11
REMARK    6  A    between atoms: C_11  and  N_12
REMARK                            x       y       z     vdW  Elec       q    Type
REMARK                         _______ _______ _______ _____ _____    ______ ____
ROOT
ATOM      1  C   UNL     1      45.643   8.204  12.964  0.00  0.00    +0.000 C 
ENDROOT
BRANCH   1   5
ATOM      2  C   UNL     1      49.482  10.759  10.978  0.00  0.00    +0.000 C 
ATOM      3  C   UNL     1      48.691   9.862  11.859  0.00  0.00    +0.000 A 
ATOM      4  C   UNL     1      47.323   9.694  11.853  0.00  0.00    +0.000 A 
ATOM      5  N   UNL     1      46.994   8.728  12.773  0.00  0.00    +0.000 N 
ATOM      6  C   UNL     1      48.129   8.322  13.452  0.00  0.00    +0.000 A 
ATOM      7  C   UNL     1      48.308   7.402  14.498  0.00  0.00    +0.000 A 
ATOM      8  C   UNL     1      49.606   7.164  14.959  0.00  0.00    +0.000 A 
ATOM      9  C   UNL     1      50.695   7.823  14.398  0.00  0.00    +0.000 A 
ATOM     10  C   UNL     1      50.510   8.742  13.362  0.00  0.00    +0.000 A 
ATOM     11  C   UNL     1      49.209   9.002  12.879  0.00  0.00    +0.000 A 
ENDBRANCH   1   5
BRANCH   1  12
ATOM     12  C   UNL     1      45.529   6.806  12.405  0.00  0.00    +0.000 A 
ATOM     13  C   UNL     1      45.557   6.584  11.023  0.00  0.00    +0.000 A 
ATOM     14  C   UNL     1      45.263   5.325  10.497  0.00  0.00    +0.000 A 
ATOM     15  C   UNL     1      44.931   4.262  11.344  0.00  0.00    +0.000 A 
ATOM     16  C   UNL     1      44.992   4.456  12.729  0.00  0.00    +0.000 A 
ATOM     17  C   UNL     1      45.284   5.718  13.255  0.00  0.00    +0.000 A 
BRANCH  15  18
ATOM     18  C   UNL     1      44.437   2.957  10.769  0.00  0.00    +0.000 C 
BRANCH  18  19
ATOM     19  C   UNL     1      44.734   2.787   9.280  0.00  0.00    +0.000 C 
BRANCH  19  20
ATOM     20  N   UNL     1      45.476   1.547   9.046  0.00  0.00    +0.000 NA
ATOM     21  H   UNL     1      45.481   0.984   9.896  0.00  0.00    +0.000 HD
ATOM     22  H   UNL     1      46.449   1.766   8.840  0.00  0.00    +0.000 HD
ENDBRANCH  19  20
ENDBRANCH  18  19
ENDBRANCH  15  18
ENDBRANCH   1  12
TORSDOF 5
ENDMDL
