MODEL 1
REMARK VINA RESULT:    -8.257      0.000      0.000
REMARK INTER + INTRA:         -12.665
REMARK INTER:                 -11.635
REMARK INTRA:                  -1.030
REMARK UNBOUND:                -1.030
REMARK  Name = 
REMARK  8 active torsions:
REMARK  status: ('A' for Active; 'I' for Inactive)
REMARK    1  A    between atoms: C_1  and  N_2
REMARK    2  A    between atoms: N_5  and  C_6
REMARK    3  A    between atoms: C_8  and  C_9
REMARK    4  A    between atoms: C_9  and  C_10
REMARK    5  A    between atoms: C_10  and  N_11
REMARK    6  A    between atoms: N_11  and  C_12
REMARK    7  A    between atoms: C_15  and  C_16
REMARK    8  A    between atoms: C_22  and  C_23
REMARK                            x       y       z     vdW  Elec       q    Type
REMARK                         _______ _______ _______ _____ _____    ______ ____
ROOT
ATOM      1  C   UNL     1      47.525   5.303  14.874  0.00  0.00    +0.000 A 
ATOM      2  C   UNL     1      46.476   4.566  14.297  0.00  0.00    +0.000 A 
ATOM      3  C   UNL     1      45.927   4.889  13.041  0.00  0.00    +0.000 A 
ATOM      4  C   UNL     1      46.467   5.979  12.344  0.00  0.00    +0.000 A 
ATOM      5  C   UNL     1      47.498   6.748  12.887  0.00  0.00    +0.000 A 
ATOM      6  C   UNL     1      48.015   6.393  14.139  0.00  0.00    +0.000 A 
ENDROOT
BRANCH   1  11
ATOM      7  C   UNL     1      48.642   4.420  20.260  0.00  0.00    +0.000 C 
ATOM      8  N   UNL     1      48.887   4.400  18.821  0.00  0.00    +0.000 NA
ATOM      9  C   UNL     1      47.846   3.611  18.124  0.00  0.00    +0.000 C 
ATOM     10  C   UNL     1      48.066   3.587  16.595  0.00  0.00    +0.000 C 
ATOM     11  N   UNL     1      48.107   4.969  16.079  0.00  0.00    +0.000 N 
ATOM     12  C   UNL     1      49.115   5.813  16.737  0.00  0.00    +0.000 C 
ATOM     13  C   UNL     1      48.897   5.776  18.271  0.00  0.00    +0.000 C 
ENDBRANCH   1  11
BRANCH   5  14
ATOM     14  C   UNL     1      48.046   7.943  12.157  0.00  0.00    +0.000 C 
ATOM     15  F   UNL     1      48.712   7.621  11.011  0.00  0.00    +0.000 F 
ATOM     16  F   UNL     1      47.068   8.816  11.783  0.00  0.00    +0.000 F 
ATOM     17  F   UNL     1      48.925   8.663  12.907  0.00  0.00    +0.000 F 
ENDBRANCH   5  14
BRANCH   3  18
ATOM     18  C   UNL     1      44.764   4.068  12.502  0.00  0.00    +0.000 C 
BRANCH  18  19
ATOM     19  C   UNL     1      43.973   4.780  11.398  0.00  0.00    +0.000 C 
BRANCH  19  20
ATOM     20  N   UNL     1      43.543   3.888  10.319  0.00  0.00    +0.000 N 
ATOM     21  H   UNL     1      42.750   4.265   9.802  0.00  0.00    +0.000 HD
BRANCH  20  22
ATOM     22  C   UNL     1      44.571   3.471   9.444  0.00  0.00    +0.000 A 
ATOM     23  C   UNL     1      44.934   2.129   9.271  0.00  0.00    +0.000 A 
ATOM     24  C   UNL     1      45.904   1.764   8.340  0.00  0.00    +0.000 A 
ATOM     25  C   UNL     1      46.479   2.758   7.567  0.00  0.00    +0.000 A 
ATOM     26  N   UNL     1      46.145   4.076   7.663  0.00  0.00    +0.000 NA
ATOM     27  C   UNL     1      45.193   4.383   8.584  0.00  0.00    +0.000 A 
BRANCH  25  28
ATOM     28  C   UNL     1      47.510   2.393   6.545  0.00  0.00    +0.000 C 
ATOM     29  N   UNL     1      47.504   3.154   5.412  0.00  0.00    +0.000 N 
ATOM     30  O   UNL     1      48.307   1.476   6.702  0.00  0.00    +0.000 OA
ATOM     31  H   UNL     1      46.809   3.889   5.307  0.00  0.00    +0.000 HD
ATOM     32  H   UNL     1      48.146   2.946   4.665  0.00  0.00    +0.000 HD
ENDBRANCH  25  28
ENDBRANCH  20  22
ENDBRANCH  19  20
ENDBRANCH  18  19
ENDBRANCH   3  18
TORSDOF 7
ENDMDL
MODEL 2
REMARK VINA RESULT:    -8.248      1.435      2.088
REMARK INTER + INTRA:         -12.653
REMARK INTER:                 -11.662
REMARK INTRA:                  -0.990
REMARK UNBOUND:                -1.030
REMARK  Name = 
REMARK  8 active torsions:
REMARK  status: ('A' for Active; 'I' for Inactive)
REMARK    1  A    between atoms: C_1  and  N_2
REMARK    2  A    between atoms: N_5  and  C_6
REMARK    3  A    between atoms: C_8  and  C_9
REMARK    4  A    between atoms: C_9  and  C_10
REMARK    5  A    between atoms: C_10  and  N_11
REMARK    6  A    between atoms: N_11  and  C_12
REMARK    7  A    between atoms: C_15  and  C_16
REMARK    8  A    between atoms: C_22  and  C_23
REMARK                            x       y       z     vdW  Elec       q    Type
REMARK                         _______ _______ _______ _____ _____    ______ ____
ROOT
ATOM      1  C   UNL     1      47.674   6.092  14.034  0.00  0.00    +0.000 A 
ATOM      2  C   UNL     1      46.484   6.028  13.287  0.00  0.00    +0.000 A 
ATOM      3  C   UNL     1      46.339   6.671  12.042  0.00  0.00    +0.000 A 
ATOM      4  C   UNL     1      47.433   7.383  11.534  0.00  0.00    +0.000 A 
ATOM      5  C   UNL     1      48.628   7.485  12.251  0.00  0.00    +0.000 A 
ATOM      6  C   UNL     1      48.730   6.833  13.484  0.00  0.00    +0.000 A 
ENDROOT
BRANCH   1  11
ATOM      7  C   UNL     1      49.478   2.832  18.176  0.00  0.00    +0.000 C 
ATOM      8  N   UNL     1      48.630   3.830  17.530  0.00  0.00    +0.000 NA
ATOM      9  C   UNL     1      49.441   4.979  17.063  0.00  0.00    +0.000 C 
ATOM     10  C   UNL     1      48.575   6.045  16.355  0.00  0.00    +0.000 C 
ATOM     11  N   UNL     1      47.848   5.426  15.230  0.00  0.00    +0.000 N 
ATOM     12  C   UNL     1      47.030   4.269  15.623  0.00  0.00    +0.000 C 
ATOM     13  C   UNL     1      47.917   3.242  16.373  0.00  0.00    +0.000 C 
ENDBRANCH   1  11
BRANCH   5  14
ATOM     14  C   UNL     1      49.786   8.287  11.724  0.00  0.00    +0.000 C 
ATOM     15  F   UNL     1      49.406   9.377  10.997  0.00  0.00    +0.000 F 
ATOM     16  F   UNL     1      50.581   8.766  12.720  0.00  0.00    +0.000 F 
ATOM     17  F   UNL     1      50.601   7.564  10.908  0.00  0.00    +0.000 F 
ENDBRANCH   5  14
BRANCH   3  18
ATOM     18  C   UNL     1      45.005   6.590  11.313  0.00  0.00    +0.000 C 
BRANCH  18  19
ATOM     19  C   UNL     1      44.386   5.187  11.325  0.00  0.00    +0.000 C 
BRANCH  19  20
ATOM     20  N   UNL     1      43.811   4.791  10.038  0.00  0.00    +0.000 N 
ATOM     21  H   UNL     1      43.463   5.590   9.510  0.00  0.00    +0.000 HD
BRANCH  20  22
ATOM     22  C   UNL     1      44.641   3.973   9.240  0.00  0.00    +0.000 A 
ATOM     23  C   UNL     1      45.571   4.486   8.325  0.00  0.00    +0.000 A 
ATOM     24  C   UNL     1      46.418   3.638   7.616  0.00  0.00    +0.000 A 
ATOM     25  C   UNL     1      46.342   2.277   7.861  0.00  0.00    +0.000 A 
ATOM     26  N   UNL     1      45.485   1.721   8.763  0.00  0.00    +0.000 NA
ATOM     27  C   UNL     1      44.679   2.588   9.431  0.00  0.00    +0.000 A 
BRANCH  25  28
ATOM     28  C   UNL     1      47.254   1.345   7.128  0.00  0.00    +0.000 C 
ATOM     29  N   UNL     1      48.379   1.917   6.606  0.00  0.00    +0.000 N 
ATOM     30  O   UNL     1      47.018   0.150   6.996  0.00  0.00    +0.000 OA
ATOM     31  H   UNL     1      48.526   2.917   6.714  0.00  0.00    +0.000 HD
ATOM     32  H   UNL     1      49.023   1.359   6.071  0.00  0.00    +0.000 HD
ENDBRANCH  25  28
ENDBRANCH  20  22
ENDBRANCH  19  20
ENDBRANCH  18  19
ENDBRANCH   3  18
TORSDOF 7
ENDMDL
MODEL 3
REMARK VINA RESULT:    -8.117      2.977      4.789
REMARK INTER + INTRA:         -12.468
REMARK INTER:                 -11.582
REMARK INTRA:                  -0.886
REMARK UNBOUND:                -1.030
REMARK  Name = 
REMARK  8 active torsions:
REMARK  status: ('A' for Active; 'I' for Inactive)
REMARK    1  A    between atoms: C_1  and  N_2
REMARK    2  A    between atoms: N_5  and  C_6
REMARK    3  A    between atoms: C_8  and  C_9
REMARK    4  A    between atoms: C_9  and  C_10
REMARK    5  A    between atoms: C_10  and  N_11
REMARK    6  A    between atoms: N_11  and  C_12
REMARK    7  A    between atoms: C_15  and  C_16
REMARK    8  A    between atoms: C_22  and  C_23
REMARK                            x       y       z     vdW  Elec       q    Type
REMARK                         _______ _______ _______ _____ _____    ______ ____
ROOT
ATOM      1  C   UNL     1      47.664   6.630  13.437  0.00  0.00    +0.000 A 
ATOM      2  C   UNL     1      46.542   6.199  12.707  0.00  0.00    +0.000 A 
ATOM      3  C   UNL     1      45.773   5.084  13.092  0.00  0.00    +0.000 A 
ATOM      4  C   UNL     1      46.143   4.396  14.256  0.00  0.00    +0.000 A 
ATOM      5  C   UNL     1      47.259   4.780  15.001  0.00  0.00    +0.000 A 
ATOM      6  C   UNL     1      47.997   5.894  14.584  0.00  0.00    +0.000 A 
ENDROOT
BRANCH   1  11
ATOM      7  C   UNL     1      49.848  11.081  10.897  0.00  0.00    +0.000 C 
ATOM      8  N   UNL     1      49.652  10.118  11.977  0.00  0.00    +0.000 NA
ATOM      9  C   UNL     1      48.241  10.120  12.427  0.00  0.00    +0.000 C 
ATOM     10  C   UNL     1      47.995   9.095  13.557  0.00  0.00    +0.000 C 
ATOM     11  N   UNL     1      48.396   7.750  13.102  0.00  0.00    +0.000 N 
ATOM     12  C   UNL     1      49.786   7.679  12.629  0.00  0.00    +0.000 C 
ATOM     13  C   UNL     1      50.013   8.751  11.532  0.00  0.00    +0.000 C 
ENDBRANCH   1  11
BRANCH   5  14
ATOM     14  C   UNL     1      47.679   4.013  16.225  0.00  0.00    +0.000 C 
ATOM     15  F   UNL     1      48.747   4.564  16.871  0.00  0.00    +0.000 F 
ATOM     16  F   UNL     1      46.686   3.935  17.155  0.00  0.00    +0.000 F 
ATOM     17  F   UNL     1      48.035   2.729  15.948  0.00  0.00    +0.000 F 
ENDBRANCH   5  14
BRANCH   3  18
ATOM     18  C   UNL     1      44.597   4.655  12.226  0.00  0.00    +0.000 C 
BRANCH  18  19
ATOM     19  C   UNL     1      44.392   5.541  10.992  0.00  0.00    +0.000 C 
BRANCH  19  20
ATOM     20  N   UNL     1      43.734   4.853   9.880  0.00  0.00    +0.000 N 
ATOM     21  H   UNL     1      43.272   5.502   9.245  0.00  0.00    +0.000 HD
BRANCH  20  22
ATOM     22  C   UNL     1      44.552   3.943   9.174  0.00  0.00    +0.000 A 
ATOM     23  C   UNL     1      45.585   4.346   8.317  0.00  0.00    +0.000 A 
ATOM     24  C   UNL     1      46.412   3.408   7.702  0.00  0.00    +0.000 A 
ATOM     25  C   UNL     1      46.207   2.068   7.984  0.00  0.00    +0.000 A 
ATOM     26  N   UNL     1      45.244   1.615   8.835  0.00  0.00    +0.000 NA
ATOM     27  C   UNL     1      44.464   2.567   9.411  0.00  0.00    +0.000 A 
BRANCH  25  28
ATOM     28  C   UNL     1      47.093   1.040   7.353  0.00  0.00    +0.000 C 
ATOM     29  N   UNL     1      46.791  -0.257   7.655  0.00  0.00    +0.000 N 
ATOM     30  O   UNL     1      48.030   1.329   6.618  0.00  0.00    +0.000 OA
ATOM     31  H   UNL     1      46.022  -0.455   8.291  0.00  0.00    +0.000 HD
ATOM     32  H   UNL     1      47.363  -1.002   7.295  0.00  0.00    +0.000 HD
ENDBRANCH  25  28
ENDBRANCH  20  22
ENDBRANCH  19  20
ENDBRANCH  18  19
ENDBRANCH   3  18
TORSDOF 7
ENDMDL
MODEL 4
REMARK VINA RESULT:    -7.990      2.608      3.444
REMARK INTER + INTRA:         -12.290
REMARK INTER:                 -11.358
REMARK INTRA:                  -0.932
REMARK UNBOUND:                -1.030
REMARK  Name = 
REMARK  8 active torsions:
REMARK  status: ('A' for Active; 'I' for Inactive)
REMARK    1  A    between atoms: C_1  and  N_2
REMARK    2  A    between atoms: N_5  and  C_6
REMARK    3  A    between atoms: C_8  and  C_9
REMARK    4  A    between atoms: C_9  and  C_10
REMARK    5  A    between atoms: C_10  and  N_11
REMARK    6  A    between atoms: N_11  and  C_12
REMARK    7  A    between atoms: C_15  and  C_16
REMARK    8  A    between atoms: C_22  and  C_23
REMARK                            x       y       z     vdW  Elec       q    Type
REMARK                         _______ _______ _______ _____ _____    ______ ____
ROOT
ATOM      1  C   UNL     1      46.355   7.285  12.771  0.00  0.00    +0.000 A 
ATOM      2  C   UNL     1      45.332   6.322  12.723  0.00  0.00    +0.000 A 
ATOM      3  C   UNL     1      44.088   6.571  12.111  0.00  0.00    +0.000 A 
ATOM      4  C   UNL     1      43.882   7.824  11.518  0.00  0.00    +0.000 A 
ATOM      5  C   UNL     1      44.865   8.815  11.558  0.00  0.00    +0.000 A 
ATOM      6  C   UNL     1      46.087   8.527  12.177  0.00  0.00    +0.000 A 
ENDROOT
BRANCH   1  11
ATOM      7  C   UNL     1      51.090   7.491  15.699  0.00  0.00    +0.000 C 
ATOM      8  N   UNL     1      50.116   6.932  14.765  0.00  0.00    +0.000 NA
ATOM      9  C   UNL     1      48.819   6.703  15.441  0.00  0.00    +0.000 C 
ATOM     10  C   UNL     1      47.758   6.130  14.474  0.00  0.00    +0.000 C 
ATOM     11  N   UNL     1      47.595   7.039  13.323  0.00  0.00    +0.000 N 
ATOM     12  C   UNL     1      48.851   7.319  12.611  0.00  0.00    +0.000 C 
ATOM     13  C   UNL     1      49.907   7.845  13.618  0.00  0.00    +0.000 C 
ENDBRANCH   1  11
BRANCH   5  14
ATOM     14  C   UNL     1      44.625  10.174  10.960  0.00  0.00    +0.000 C 
ATOM     15  F   UNL     1      45.762  10.915  10.821  0.00  0.00    +0.000 F 
ATOM     16  F   UNL     1      44.076  10.104   9.715  0.00  0.00    +0.000 F 
ATOM     17  F   UNL     1      43.776  10.936  11.702  0.00  0.00    +0.000 F 
ENDBRANCH   5  14
BRANCH   3  18
ATOM     18  C   UNL     1      43.015   5.491  12.135  0.00  0.00    +0.000 C 
BRANCH  18  19
ATOM     19  C   UNL     1      43.256   4.368  11.120  0.00  0.00    +0.000 C 
BRANCH  19  20
ATOM     20  N   UNL     1      43.762   4.843   9.830  0.00  0.00    +0.000 N 
ATOM     21  H   UNL     1      44.222   5.749   9.908  0.00  0.00    +0.000 HD
BRANCH  20  22
ATOM     22  C   UNL     1      44.569   3.919   9.130  0.00  0.00    +0.000 A 
ATOM     23  C   UNL     1      45.522   4.302   8.177  0.00  0.00    +0.000 A 
ATOM     24  C   UNL     1      46.345   3.357   7.568  0.00  0.00    +0.000 A 
ATOM     25  C   UNL     1      46.220   2.033   7.952  0.00  0.00    +0.000 A 
ATOM     26  N   UNL     1      45.338   1.603   8.898  0.00  0.00    +0.000 NA
ATOM     27  C   UNL     1      44.558   2.561   9.464  0.00  0.00    +0.000 A 
BRANCH  25  28
ATOM     28  C   UNL     1      47.105   0.999   7.330  0.00  0.00    +0.000 C 
ATOM     29  N   UNL     1      46.818  -0.294   7.663  0.00  0.00    +0.000 N 
ATOM     30  O   UNL     1      48.028   1.280   6.575  0.00  0.00    +0.000 OA
ATOM     31  H   UNL     1      46.061  -0.484   8.315  0.00  0.00    +0.000 HD
ATOM     32  H   UNL     1      47.391  -1.042   7.310  0.00  0.00    +0.000 HD
ENDBRANCH  25  28
ENDBRANCH  20  22
ENDBRANCH  19  20
ENDBRANCH  18  19
ENDBRANCH   3  18
TORSDOF 7
ENDMDL
MODEL 5
REMARK VINA RESULT:    -7.428      2.535      3.223
REMARK INTER + INTRA:         -11.497
REMARK INTER:                 -10.740
REMARK INTRA:                  -0.757
REMARK UNBOUND:                -1.030
REMARK  Name = 
REMARK  8 active torsions:
REMARK  status: ('A' for Active; 'I' for Inactive)
REMARK    1  A    between atoms: C_1  and  N_2
REMARK    2  A    between atoms: N_5  and  C_6
REMARK    3  A    between atoms: C_8  and  C_9
REMARK    4  A    between atoms: C_9  and  C_10
REMARK    5  A    between atoms: C_10  and  N_11
REMARK    6  A    between atoms: N_11  and  C_12
REMARK    7  A    between atoms: C_15  and  C_16
REMARK    8  A    between atoms: C_22  and  C_23
REMARK                            x       y       z     vdW  Elec       q    Type
REMARK                         _______ _______ _______ _____ _____    ______ ____
ROOT
ATOM      1  C   UNL     1      47.364   7.736  13.314  0.00  0.00    +0.000 A 
ATOM      2  C   UNL     1      46.836   6.468  13.010  0.00  0.00    +0.000 A 
ATOM      3  C   UNL     1      45.700   6.299  12.194  0.00  0.00    +0.000 A 
ATOM      4  C   UNL     1      45.093   7.444  11.660  0.00  0.00    +0.000 A 
ATOM      5  C   UNL     1      45.574   8.722  11.951  0.00  0.00    +0.000 A 
ATOM      6  C   UNL     1      46.705   8.846  12.766  0.00  0.00    +0.000 A 
ENDROOT
BRANCH   1  11
ATOM      7  C   UNL     1      52.441   7.379  15.578  0.00  0.00    +0.000 C 
ATOM      8  N   UNL     1      51.104   7.926  15.370  0.00  0.00    +0.000 NA
ATOM      9  C   UNL     1      50.931   8.359  13.964  0.00  0.00    +0.000 C 
ATOM     10  C   UNL     1      49.516   8.925  13.706  0.00  0.00    +0.000 C 
ATOM     11  N   UNL     1      48.504   7.915  14.069  0.00  0.00    +0.000 N 
ATOM     12  C   UNL     1      48.626   7.432  15.453  0.00  0.00    +0.000 C 
ATOM     13  C   UNL     1      50.069   6.917  15.693  0.00  0.00    +0.000 C 
ENDBRANCH   1  11
BRANCH   5  14
ATOM     14  C   UNL     1      44.894   9.951  11.413  0.00  0.00    +0.000 C 
ATOM     15  F   UNL     1      44.162   9.717  10.286  0.00  0.00    +0.000 F 
ATOM     16  F   UNL     1      44.027  10.499  12.309  0.00  0.00    +0.000 F 
ATOM     17  F   UNL     1      45.771  10.940  11.086  0.00  0.00    +0.000 F 
ENDBRANCH   5  14
BRANCH   3  18
ATOM     18  C   UNL     1      45.165   4.896  11.944  0.00  0.00    +0.000 C 
BRANCH  18  19
ATOM     19  C   UNL     1      43.893   4.872  11.088  0.00  0.00    +0.000 C 
BRANCH  19  20
ATOM     20  N   UNL     1      43.688   3.605  10.382  0.00  0.00    +0.000 N 
ATOM     21  H   UNL     1      42.762   3.546   9.960  0.00  0.00    +0.000 HD
BRANCH  20  22
ATOM     22  C   UNL     1      44.696   3.272   9.450  0.00  0.00    +0.000 A 
ATOM     23  C   UNL     1      45.124   1.958   9.220  0.00  0.00    +0.000 A 
ATOM     24  C   UNL     1      46.069   1.674   8.237  0.00  0.00    +0.000 A 
ATOM     25  C   UNL     1      46.551   2.720   7.469  0.00  0.00    +0.000 A 
ATOM     26  N   UNL     1      46.148   4.014   7.619  0.00  0.00    +0.000 NA
ATOM     27  C   UNL     1      45.225   4.240   8.590  0.00  0.00    +0.000 A 
BRANCH  25  28
ATOM     28  C   UNL     1      47.552   2.443   6.391  0.00  0.00    +0.000 C 
ATOM     29  N   UNL     1      47.313   3.062   5.198  0.00  0.00    +0.000 N 
ATOM     30  O   UNL     1      48.520   1.710   6.556  0.00  0.00    +0.000 OA
ATOM     31  H   UNL     1      46.484   3.640   5.093  0.00  0.00    +0.000 HD
ATOM     32  H   UNL     1      47.925   2.896   4.416  0.00  0.00    +0.000 HD
ENDBRANCH  25  28
ENDBRANCH  20  22
ENDBRANCH  19  20
ENDBRANCH  18  19
ENDBRANCH   3  18
TORSDOF 7
ENDMDL
MODEL 6
REMARK VINA RESULT:    -6.654      3.097      7.541
REMARK INTER + INTRA:         -10.407
REMARK INTER:                  -9.179
REMARK INTRA:                  -1.228
REMARK UNBOUND:                -1.030
REMARK  Name = 
REMARK  8 active torsions:
REMARK  status: ('A' for Active; 'I' for Inactive)
REMARK    1  A    between atoms: C_1  and  N_2
REMARK    2  A    between atoms: N_5  and  C_6
REMARK    3  A    between atoms: C_8  and  C_9
REMARK    4  A    between atoms: C_9  and  C_10
REMARK    5  A    between atoms: C_10  and  N_11
REMARK    6  A    between atoms: N_11  and  C_12
REMARK    7  A    between atoms: C_15  and  C_16
REMARK    8  A    between atoms: C_22  and  C_23
REMARK                            x       y       z     vdW  Elec       q    Type
REMARK                         _______ _______ _______ _____ _____    ______ ____
ROOT
ATOM      1  C   UNL     1      47.397   7.046  12.888  0.00  0.00    +0.000 A 
ATOM      2  C   UNL     1      47.360   7.758  14.100  0.00  0.00    +0.000 A 
ATOM      3  C   UNL     1      48.396   8.627  14.497  0.00  0.00    +0.000 A 
ATOM      4  C   UNL     1      49.489   8.790  13.636  0.00  0.00    +0.000 A 
ATOM      5  C   UNL     1      49.573   8.090  12.430  0.00  0.00    +0.000 A 
ATOM      6  C   UNL     1      48.523   7.236  12.073  0.00  0.00    +0.000 A 
ENDROOT
BRANCH   1  11
ATOM      7  C   UNL     1      44.311   2.983  10.650  0.00  0.00    +0.000 C 
ATOM      8  N   UNL     1      44.571   4.211  11.397  0.00  0.00    +0.000 NA
ATOM      9  C   UNL     1      45.455   3.940  12.554  0.00  0.00    +0.000 C 
ATOM     10  C   UNL     1      45.766   5.224  13.355  0.00  0.00    +0.000 C 
ATOM     11  N   UNL     1      46.369   6.232  12.462  0.00  0.00    +0.000 N 
ATOM     12  C   UNL     1      45.545   6.540  11.283  0.00  0.00    +0.000 C 
ATOM     13  C   UNL     1      45.211   5.227  10.530  0.00  0.00    +0.000 C 
ENDBRANCH   1  11
BRANCH   5  14
ATOM     14  C   UNL     1      50.768   8.234  11.528  0.00  0.00    +0.000 C 
ATOM     15  F   UNL     1      50.838   7.273  10.563  0.00  0.00    +0.000 F 
ATOM     16  F   UNL     1      50.778   9.424  10.865  0.00  0.00    +0.000 F 
ATOM     17  F   UNL     1      51.949   8.170  12.202  0.00  0.00    +0.000 F 
ENDBRANCH   5  14
BRANCH   3  18
ATOM     18  C   UNL     1      48.303   9.330  15.844  0.00  0.00    +0.000 C 
BRANCH  18  19
ATOM     19  C   UNL     1      48.996   8.569  16.980  0.00  0.00    +0.000 C 
BRANCH  19  20
ATOM     20  N   UNL     1      48.126   7.602  17.653  0.00  0.00    +0.000 N 
ATOM     21  H   UNL     1      47.154   7.693  17.363  0.00  0.00    +0.000 HD
BRANCH  20  22
ATOM     22  C   UNL     1      48.558   6.259  17.579  0.00  0.00    +0.000 A 
ATOM     23  C   UNL     1      47.767   5.176  17.983  0.00  0.00    +0.000 A 
ATOM     24  C   UNL     1      48.211   3.865  17.819  0.00  0.00    +0.000 A 
ATOM     25  C   UNL     1      49.440   3.659  17.217  0.00  0.00    +0.000 A 
ATOM     26  N   UNL     1      50.240   4.668  16.771  0.00  0.00    +0.000 NA
ATOM     27  C   UNL     1      49.764   5.928  16.951  0.00  0.00    +0.000 A 
BRANCH  25  28
ATOM     28  C   UNL     1      49.933   2.261  17.010  0.00  0.00    +0.000 C 
ATOM     29  N   UNL     1      50.782   1.792  17.971  0.00  0.00    +0.000 N 
ATOM     30  O   UNL     1      49.607   1.576  16.048  0.00  0.00    +0.000 OA
ATOM     31  H   UNL     1      51.050   2.401  18.740  0.00  0.00    +0.000 HD
ATOM     32  H   UNL     1      51.182   0.873  17.882  0.00  0.00    +0.000 HD
ENDBRANCH  25  28
ENDBRANCH  20  22
ENDBRANCH  19  20
ENDBRANCH  18  19
ENDBRANCH   3  18
TORSDOF 7
ENDMDL
MODEL 7
REMARK VINA RESULT:    -6.364      3.272      8.173
REMARK INTER + INTRA:          -9.997
REMARK INTER:                  -8.802
REMARK INTRA:                  -1.196
REMARK UNBOUND:                -1.030
REMARK  Name = 
REMARK  8 active torsions:
REMARK  status: ('A' for Active; 'I' for Inactive)
REMARK    1  A    between atoms: C_1  and  N_2
REMARK    2  A    between atoms: N_5  and  C_6
REMARK    3  A    between atoms: C_8  and  C_9
REMARK    4  A    between atoms: C_9  and  C_10
REMARK    5  A    between atoms: C_10  and  N_11
REMARK    6  A    between atoms: N_11  and  C_12
REMARK    7  A    between atoms: C_15  and  C_16
REMARK    8  A    between atoms: C_22  and  C_23
REMARK                            x       y       z     vdW  Elec       q    Type
REMARK                         _______ _______ _______ _____ _____    ______ ____
ROOT
ATOM      1  C   UNL     1      45.406   4.855   9.793  0.00  0.00    +0.000 A 
ATOM      2  C   UNL     1      46.212   5.966  10.099  0.00  0.00    +0.000 A 
ATOM      3  C   UNL     1      45.932   6.828  11.178  0.00  0.00    +0.000 A 
ATOM      4  C   UNL     1      44.815   6.546  11.976  0.00  0.00    +0.000 A 
ATOM      5  C   UNL     1      43.979   5.463  11.698  0.00  0.00    +0.000 A 
ATOM      6  C   UNL     1      44.292   4.632  10.616  0.00  0.00    +0.000 A 
ENDROOT
BRANCH   1  11
ATOM      7  C   UNL     1      47.654   0.946   6.521  0.00  0.00    +0.000 C 
ATOM      8  N   UNL     1      46.680   1.957   6.924  0.00  0.00    +0.000 NA
ATOM      9  C   UNL     1      46.057   1.594   8.218  0.00  0.00    +0.000 C 
ATOM     10  C   UNL     1      45.036   2.656   8.684  0.00  0.00    +0.000 C 
ATOM     11  N   UNL     1      45.696   3.973   8.773  0.00  0.00    +0.000 N 
ATOM     12  C   UNL     1      46.347   4.391   7.522  0.00  0.00    +0.000 C 
ATOM     13  C   UNL     1      47.327   3.283   7.057  0.00  0.00    +0.000 C 
ENDBRANCH   1  11
BRANCH   5  14
ATOM     14  C   UNL     1      42.757   5.189  12.529  0.00  0.00    +0.000 C 
ATOM     15  F   UNL     1      42.760   5.837  13.730  0.00  0.00    +0.000 F 
ATOM     16  F   UNL     1      41.608   5.574  11.906  0.00  0.00    +0.000 F 
ATOM     17  F   UNL     1      42.600   3.869  12.821  0.00  0.00    +0.000 F 
ENDBRANCH   5  14
BRANCH   3  18
ATOM     18  C   UNL     1      46.828   8.034  11.420  0.00  0.00    +0.000 C 
BRANCH  18  19
ATOM     19  C   UNL     1      47.188   8.241  12.896  0.00  0.00    +0.000 C 
BRANCH  19  20
ATOM     20  N   UNL     1      48.357   7.471  13.327  0.00  0.00    +0.000 N 
ATOM     21  H   UNL     1      49.108   8.071  13.665  0.00  0.00    +0.000 HD
BRANCH  20  22
ATOM     22  C   UNL     1      48.081   6.432  14.243  0.00  0.00    +0.000 A 
ATOM     23  C   UNL     1      47.249   5.346  13.944  0.00  0.00    +0.000 A 
ATOM     24  C   UNL     1      47.069   4.309  14.856  0.00  0.00    +0.000 A 
ATOM     25  C   UNL     1      47.759   4.362  16.055  0.00  0.00    +0.000 A 
ATOM     26  N   UNL     1      48.610   5.372  16.390  0.00  0.00    +0.000 NA
ATOM     27  C   UNL     1      48.754   6.360  15.468  0.00  0.00    +0.000 A 
BRANCH  25  28
ATOM     28  C   UNL     1      47.601   3.252  17.046  0.00  0.00    +0.000 C 
ATOM     29  N   UNL     1      48.752   2.597  17.379  0.00  0.00    +0.000 N 
ATOM     30  O   UNL     1      46.519   2.940  17.529  0.00  0.00    +0.000 OA
ATOM     31  H   UNL     1      49.627   2.868  16.936  0.00  0.00    +0.000 HD
ATOM     32  H   UNL     1      48.720   1.817  18.014  0.00  0.00    +0.000 HD
ENDBRANCH  25  28
ENDBRANCH  20  22
ENDBRANCH  19  20
ENDBRANCH  18  19
ENDBRANCH   3  18
TORSDOF 7
ENDMDL
MODEL 8
REMARK VINA RESULT:    -6.048      3.067      4.242
REMARK INTER + INTRA:          -9.553
REMARK INTER:                  -8.568
REMARK INTRA:                  -0.985
REMARK UNBOUND:                -1.030
REMARK  Name = 
REMARK  8 active torsions:
REMARK  status: ('A' for Active; 'I' for Inactive)
REMARK    1  A    between atoms: C_1  and  N_2
REMARK    2  A    between atoms: N_5  and  C_6
REMARK    3  A    between atoms: C_8  and  C_9
REMARK    4  A    between atoms: C_9  and  C_10
REMARK    5  A    between atoms: C_10  and  N_11
REMARK    6  A    between atoms: N_11  and  C_12
REMARK    7  A    between atoms: C_15  and  C_16
REMARK    8  A    between atoms: C_22  and  C_23
REMARK                            x       y       z     vdW  Elec       q    Type
REMARK                         _______ _______ _______ _____ _____    ______ ____
ROOT
ATOM      1  C   UNL     1      48.928   8.249  14.527  0.00  0.00    +0.000 A 
ATOM      2  C   UNL     1      47.797   8.906  14.010  0.00  0.00    +0.000 A 
ATOM      3  C   UNL     1      47.722   9.339  12.672  0.00  0.00    +0.000 A 
ATOM      4  C   UNL     1      48.816   9.085  11.832  0.00  0.00    +0.000 A 
ATOM      5  C   UNL     1      49.964   8.451  12.309  0.00  0.00    +0.000 A 
ATOM      6  C   UNL     1      49.999   8.037  13.646  0.00  0.00    +0.000 A 
ENDROOT
BRANCH   1  11
ATOM      7  C   UNL     1      47.816   6.126  19.557  0.00  0.00    +0.000 C 
ATOM      8  N   UNL     1      48.649   6.666  18.485  0.00  0.00    +0.000 NA
ATOM      9  C   UNL     1      48.543   5.827  17.270  0.00  0.00    +0.000 C 
ATOM     10  C   UNL     1      49.398   6.384  16.109  0.00  0.00    +0.000 C 
ATOM     11  N   UNL     1      48.996   7.774  15.821  0.00  0.00    +0.000 N 
ATOM     12  C   UNL     1      49.067   8.661  16.991  0.00  0.00    +0.000 C 
ATOM     13  C   UNL     1      48.240   8.050  18.152  0.00  0.00    +0.000 C 
ENDBRANCH   1  11
BRANCH   5  14
ATOM     14  C   UNL     1      51.153   8.220  11.418  0.00  0.00    +0.000 C 
ATOM     15  F   UNL     1      52.325   8.076  12.102  0.00  0.00    +0.000 F 
ATOM     16  F   UNL     1      51.025   7.092  10.664  0.00  0.00    +0.000 F 
ATOM     17  F   UNL     1      51.360   9.238  10.538  0.00  0.00    +0.000 F 
ENDBRANCH   5  14
BRANCH   3  18
ATOM     18  C   UNL     1      46.480  10.080  12.197  0.00  0.00    +0.000 C 
BRANCH  18  19
ATOM     19  C   UNL     1      45.362   9.150  11.710  0.00  0.00    +0.000 C 
BRANCH  19  20
ATOM     20  N   UNL     1      44.894   8.213  12.734  0.00  0.00    +0.000 N 
ATOM     21  H   UNL     1      44.054   8.546  13.204  0.00  0.00    +0.000 HD
BRANCH  20  22
ATOM     22  C   UNL     1      44.738   6.879  12.295  0.00  0.00    +0.000 A 
ATOM     23  C   UNL     1      45.552   5.827  12.735  0.00  0.00    +0.000 A 
ATOM     24  C   UNL     1      45.309   4.516  12.329  0.00  0.00    +0.000 A 
ATOM     25  C   UNL     1      44.224   4.275  11.504  0.00  0.00    +0.000 A 
ATOM     26  N   UNL     1      43.375   5.249  11.071  0.00  0.00    +0.000 NA
ATOM     27  C   UNL     1      43.652   6.511  11.495  0.00  0.00    +0.000 A 
BRANCH  25  28
ATOM     28  C   UNL     1      43.927   2.874  11.068  0.00  0.00    +0.000 C 
ATOM     29  N   UNL     1      44.804   2.345  10.166  0.00  0.00    +0.000 N 
ATOM     30  O   UNL     1      42.966   2.238  11.483  0.00  0.00    +0.000 OA
ATOM     31  H   UNL     1      45.575   2.915   9.825  0.00  0.00    +0.000 HD
ATOM     32  H   UNL     1      44.651   1.419   9.801  0.00  0.00    +0.000 HD
ENDBRANCH  25  28
ENDBRANCH  20  22
ENDBRANCH  19  20
ENDBRANCH  18  19
ENDBRANCH   3  18
TORSDOF 7
ENDMDL
MODEL 9
REMARK VINA RESULT:    -5.951      3.926      7.857
REMARK INTER + INTRA:          -9.416
REMARK INTER:                  -8.355
REMARK INTRA:                  -1.061
REMARK UNBOUND:                -1.030
REMARK  Name = 
REMARK  8 active torsions:
REMARK  status: ('A' for Active; 'I' for Inactive)
REMARK    1  A    between atoms: C_1  and  N_2
REMARK    2  A    between atoms: N_5  and  C_6
REMARK    3  A    between atoms: C_8  and  C_9
REMARK    4  A    between atoms: C_9  and  C_10
REMARK    5  A    between atoms: C_10  and  N_11
REMARK    6  A    between atoms: N_11  and  C_12
REMARK    7  A    between atoms: C_15  and  C_16
REMARK    8  A    between atoms: C_22  and  C_23
REMARK                            x       y       z     vdW  Elec       q    Type
REMARK                         _______ _______ _______ _____ _____    ______ ____
ROOT
ATOM      1  C   UNL     1      45.698   7.211  12.622  0.00  0.00    +0.000 A 
ATOM      2  C   UNL     1      46.962   7.496  13.168  0.00  0.00    +0.000 A 
ATOM      3  C   UNL     1      47.568   8.762  13.050  0.00  0.00    +0.000 A 
ATOM      4  C   UNL     1      46.868   9.770  12.373  0.00  0.00    +0.000 A 
ATOM      5  C   UNL     1      45.618   9.525  11.800  0.00  0.00    +0.000 A 
ATOM      6  C   UNL     1      45.051   8.253  11.940  0.00  0.00    +0.000 A 
ENDROOT
BRANCH   1  11
ATOM      7  C   UNL     1      43.375   2.209  11.835  0.00  0.00    +0.000 C 
ATOM      8  N   UNL     1      43.840   3.365  12.597  0.00  0.00    +0.000 NA
ATOM      9  C   UNL     1      45.296   3.560  12.412  0.00  0.00    +0.000 C 
ATOM     10  C   UNL     1      45.816   4.790  13.190  0.00  0.00    +0.000 C 
ATOM     11  N   UNL     1      45.070   5.993  12.773  0.00  0.00    +0.000 N 
ATOM     12  C   UNL     1      43.613   5.862  12.921  0.00  0.00    +0.000 C 
ATOM     13  C   UNL     1      43.131   4.594  12.170  0.00  0.00    +0.000 C 
ENDBRANCH   1  11
BRANCH   5  14
ATOM     14  C   UNL     1      44.888  10.595  11.036  0.00  0.00    +0.000 C 
ATOM     15  F   UNL     1      44.012  10.103  10.114  0.00  0.00    +0.000 F 
ATOM     16  F   UNL     1      44.152  11.403  11.850  0.00  0.00    +0.000 F 
ATOM     17  F   UNL     1      45.726  11.418  10.348  0.00  0.00    +0.000 F 
ENDBRANCH   5  14
BRANCH   3  18
ATOM     18  C   UNL     1      48.957   8.981  13.633  0.00  0.00    +0.000 C 
BRANCH  18  19
ATOM     19  C   UNL     1      49.777   7.691  13.761  0.00  0.00    +0.000 C 
BRANCH  19  20
ATOM     20  N   UNL     1      50.499   7.581  15.029  0.00  0.00    +0.000 N 
ATOM     21  H   UNL     1      50.654   8.489  15.464  0.00  0.00    +0.000 HD
BRANCH  20  22
ATOM     22  C   UNL     1      49.950   6.661  15.950  0.00  0.00    +0.000 A 
ATOM     23  C   UNL     1      48.631   6.195  15.876  0.00  0.00    +0.000 A 
ATOM     24  C   UNL     1      48.161   5.231  16.765  0.00  0.00    +0.000 A 
ATOM     25  C   UNL     1      49.040   4.720  17.704  0.00  0.00    +0.000 A 
ATOM     26  N   UNL     1      50.343   5.105  17.804  0.00  0.00    +0.000 NA
ATOM     27  C   UNL     1      50.756   6.047  16.915  0.00  0.00    +0.000 A 
BRANCH  25  28
ATOM     28  C   UNL     1      48.568   3.669  18.659  0.00  0.00    +0.000 C 
ATOM     29  N   UNL     1      48.736   3.962  19.981  0.00  0.00    +0.000 N 
ATOM     30  O   UNL     1      48.067   2.613  18.291  0.00  0.00    +0.000 OA
ATOM     31  H   UNL     1      49.181   4.837  20.246  0.00  0.00    +0.000 HD
ATOM     32  H   UNL     1      48.474   3.288  20.682  0.00  0.00    +0.000 HD
ENDBRANCH  25  28
ENDBRANCH  20  22
ENDBRANCH  19  20
ENDBRANCH  18  19
ENDBRANCH   3  18
TORSDOF 7
ENDMDL
