MODEL 1
REMARK VINA RESULT:    -8.527      0.000      0.000
REMARK INTER + INTRA:         -11.806
REMARK INTER:                 -11.020
REMARK INTRA:                  -0.786
REMARK UNBOUND:                -0.786
REMARK  Name = 
REMARK  5 active torsions:
REMARK  status: ('A' for Active; 'I' for Inactive)
REMARK    1  A    between atoms: C_2  and  C_4
REMARK    2  A    between atoms: C_7  and  O_8
REMARK    3  A    between atoms: O_8  and  C_9
REMARK    4  A    between atoms: C_9  and  C_10
REMARK    5  A    between atoms: C_15  and  C_16
REMARK                            x       y       z     vdW  Elec       q    Type
REMARK                         _______ _______ _______ _____ _____    ______ ____
ROOT
ATOM      1  C   UNL     1      44.881   4.914  11.932  0.00  0.00    +0.000 A 
ATOM      2  C   UNL     1      45.309   4.139  13.021  0.00  0.00    +0.000 A 
ATOM      3  C   UNL     1      46.370   4.564  13.822  0.00  0.00    +0.000 A 
ATOM      4  C   UNL     1      47.013   5.775  13.552  0.00  0.00    +0.000 A 
ATOM      5 CL   UNL     1      48.307   6.249  14.599  0.00  0.00    +0.000 Cl
ATOM      6  C   UNL     1      46.599   6.570  12.473  0.00  0.00    +0.000 A 
ATOM      7  C   UNL     1      45.527   6.133  11.675  0.00  0.00    +0.000 A 
ENDROOT
BRANCH   6   8
ATOM      8  C   UNL     1      47.210   7.869  12.156  0.00  0.00    +0.000 C 
ATOM      9  C   UNL     1      48.496   7.948  11.772  0.00  0.00    +0.000 C 
ATOM     10  C   UNL     1      49.168   9.248  11.438  0.00  0.00    +0.000 C 
ATOM     11  N   UNL     1      48.246  10.379  11.294  0.00  0.00    +0.000 NA
ATOM     12  C   UNL     1      47.242  10.369  12.366  0.00  0.00    +0.000 C 
ATOM     13  C   UNL     1      46.368   9.105  12.320  0.00  0.00    +0.000 C 
ATOM     14  H   UNL     1      47.764  10.276  10.401  0.00  0.00    +0.000 HD
ENDBRANCH   6   8
BRANCH   1  15
ATOM     15  C   UNL     1      43.672   4.472  11.136  0.00  0.00    +0.000 C 
BRANCH  15  16
ATOM     16  O   UNL     1      43.795   4.828   9.755  0.00  0.00    +0.000 OA
BRANCH  16  20
ATOM     17  C   UNL     1      46.383   2.302   7.781  0.00  0.00    +0.000 A 
ATOM     18  C   UNL     1      45.463   1.775   8.689  0.00  0.00    +0.000 A 
ATOM     19  C   UNL     1      44.593   2.639   9.357  0.00  0.00    +0.000 A 
ATOM     20  C   UNL     1      44.675   3.997   9.089  0.00  0.00    +0.000 A 
ATOM     21  N   UNL     1      45.562   4.532   8.224  0.00  0.00    +0.000 NA
ATOM     22  C   UNL     1      46.404   3.677   7.596  0.00  0.00    +0.000 A 
BRANCH  17  24
ATOM     23  N   UNL     1      48.435   2.120   6.494  0.00  0.00    +0.000 N 
ATOM     24  C   UNL     1      47.348   1.482   7.021  0.00  0.00    +0.000 C 
ATOM     25  O   UNL     1      47.205   0.273   6.906  0.00  0.00    +0.000 OA
ATOM     26  H   UNL     1      49.144   1.522   6.083  0.00  0.00    +0.000 HD
ATOM     27  H   UNL     1      48.718   3.045   6.783  0.00  0.00    +0.000 HD
ENDBRANCH  17  24
ENDBRANCH  16  20
ENDBRANCH  15  16
ENDBRANCH   1  15
TORSDOF 5
ENDMDL
MODEL 2
REMARK VINA RESULT:    -8.501      1.944      2.507
REMARK INTER + INTRA:         -11.771
REMARK INTER:                 -10.815
REMARK INTRA:                  -0.957
REMARK UNBOUND:                -0.786
REMARK  Name = 
REMARK  5 active torsions:
REMARK  status: ('A' for Active; 'I' for Inactive)
REMARK    1  A    between atoms: C_2  and  C_4
REMARK    2  A    between atoms: C_7  and  O_8
REMARK    3  A    between atoms: O_8  and  C_9
REMARK    4  A    between atoms: C_9  and  C_10
REMARK    5  A    between atoms: C_15  and  C_16
REMARK                            x       y       z     vdW  Elec       q    Type
REMARK                         _______ _______ _______ _____ _____    ______ ____
ROOT
ATOM      1  C   UNL     1      44.667   4.806  11.769  0.00  0.00    +0.000 A 
ATOM      2  C   UNL     1      43.688   5.766  11.470  0.00  0.00    +0.000 A 
ATOM      3  C   UNL     1      43.973   7.128  11.578  0.00  0.00    +0.000 A 
ATOM      4  C   UNL     1      45.242   7.550  11.978  0.00  0.00    +0.000 A 
ATOM      5 CL   UNL     1      45.531   9.254  12.071  0.00  0.00    +0.000 Cl
ATOM      6  C   UNL     1      46.239   6.609  12.277  0.00  0.00    +0.000 A 
ATOM      7  C   UNL     1      45.941   5.240  12.161  0.00  0.00    +0.000 A 
ENDROOT
BRANCH   6   8
ATOM      8  C   UNL     1      47.604   6.988  12.670  0.00  0.00    +0.000 C 
ATOM      9  C   UNL     1      47.992   6.925  13.956  0.00  0.00    +0.000 C 
ATOM     10  C   UNL     1      49.372   7.300  14.409  0.00  0.00    +0.000 C 
ATOM     11  N   UNL     1      50.337   7.469  13.318  0.00  0.00    +0.000 NA
ATOM     12  C   UNL     1      49.738   8.226  12.210  0.00  0.00    +0.000 C 
ATOM     13  C   UNL     1      48.535   7.489  11.599  0.00  0.00    +0.000 C 
ATOM     14  H   UNL     1      50.586   6.541  12.976  0.00  0.00    +0.000 HD
ENDBRANCH   6   8
BRANCH   1  15
ATOM     15  C   UNL     1      44.357   3.339  11.556  0.00  0.00    +0.000 C 
BRANCH  15  16
ATOM     16  O   UNL     1      43.737   3.112  10.287  0.00  0.00    +0.000 OA
BRANCH  16  20
ATOM     17  C   UNL     1      46.534   2.557   7.313  0.00  0.00    +0.000 A 
ATOM     18  C   UNL     1      45.924   3.804   7.463  0.00  0.00    +0.000 A 
ATOM     19  C   UNL     1      44.974   3.982   8.470  0.00  0.00    +0.000 A 
ATOM     20  C   UNL     1      44.672   2.905   9.291  0.00  0.00    +0.000 A 
ATOM     21  N   UNL     1      45.239   1.688   9.160  0.00  0.00    +0.000 NA
ATOM     22  C   UNL     1      46.150   1.535   8.168  0.00  0.00    +0.000 A 
BRANCH  17  24
ATOM     23  N   UNL     1      47.523   3.005   5.140  0.00  0.00    +0.000 N 
ATOM     24  C   UNL     1      47.550   2.258   6.283  0.00  0.00    +0.000 C 
ATOM     25  O   UNL     1      48.409   1.407   6.464  0.00  0.00    +0.000 OA
ATOM     26  H   UNL     1      48.299   2.867   4.502  0.00  0.00    +0.000 HD
ATOM     27  H   UNL     1      47.008   3.871   5.065  0.00  0.00    +0.000 HD
ENDBRANCH  17  24
ENDBRANCH  16  20
ENDBRANCH  15  16
ENDBRANCH   1  15
TORSDOF 5
ENDMDL
MODEL 3
REMARK VINA RESULT:    -7.707      2.402      3.717
REMARK INTER + INTRA:         -10.745
REMARK INTER:                 -10.317
REMARK INTRA:                  -0.428
REMARK UNBOUND:                -0.786
REMARK  Name = 
REMARK  5 active torsions:
REMARK  status: ('A' for Active; 'I' for Inactive)
REMARK    1  A    between atoms: C_2  and  C_4
REMARK    2  A    between atoms: C_7  and  O_8
REMARK    3  A    between atoms: O_8  and  C_9
REMARK    4  A    between atoms: C_9  and  C_10
REMARK    5  A    between atoms: C_15  and  C_16
REMARK                            x       y       z     vdW  Elec       q    Type
REMARK                         _______ _______ _______ _____ _____    ______ ____
ROOT
ATOM      1  C   UNL     1      45.217   5.026  12.103  0.00  0.00    +0.000 A 
ATOM      2  C   UNL     1      45.857   6.104  11.473  0.00  0.00    +0.000 A 
ATOM      3  C   UNL     1      46.989   6.689  12.042  0.00  0.00    +0.000 A 
ATOM      4  C   UNL     1      47.504   6.198  13.244  0.00  0.00    +0.000 A 
ATOM      5 CL   UNL     1      48.922   6.958  13.881  0.00  0.00    +0.000 Cl
ATOM      6  C   UNL     1      46.885   5.117  13.890  0.00  0.00    +0.000 A 
ATOM      7  C   UNL     1      45.747   4.535  13.305  0.00  0.00    +0.000 A 
ENDROOT
BRANCH   6   8
ATOM      8  C   UNL     1      47.396   4.532  15.138  0.00  0.00    +0.000 C 
ATOM      9  C   UNL     1      47.689   3.222  15.213  0.00  0.00    +0.000 C 
ATOM     10  C   UNL     1      48.213   2.575  16.462  0.00  0.00    +0.000 C 
ATOM     11  N   UNL     1      48.642   3.524  17.494  0.00  0.00    +0.000 NA
ATOM     12  C   UNL     1      47.668   4.616  17.631  0.00  0.00    +0.000 C 
ATOM     13  C   UNL     1      47.538   5.432  16.335  0.00  0.00    +0.000 C 
ATOM     14  H   UNL     1      49.533   3.923  17.199  0.00  0.00    +0.000 HD
ENDBRANCH   6   8
BRANCH   1  15
ATOM     15  C   UNL     1      44.044   4.356  11.419  0.00  0.00    +0.000 C 
BRANCH  15  16
ATOM     16  O   UNL     1      43.942   4.750  10.047  0.00  0.00    +0.000 OA
BRANCH  16  20
ATOM     17  C   UNL     1      46.506   2.577   7.664  0.00  0.00    +0.000 A 
ATOM     18  C   UNL     1      45.708   1.917   8.601  0.00  0.00    +0.000 A 
ATOM     19  C   UNL     1      44.846   2.662   9.407  0.00  0.00    +0.000 A 
ATOM     20  C   UNL     1      44.813   4.039   9.244  0.00  0.00    +0.000 A 
ATOM     21  N   UNL     1      45.581   4.701   8.354  0.00  0.00    +0.000 NA
ATOM     22  C   UNL     1      46.419   3.959   7.590  0.00  0.00    +0.000 A 
BRANCH  17  24
ATOM     23  N   UNL     1      48.066   2.644   5.803  0.00  0.00    +0.000 N 
ATOM     24  C   UNL     1      47.452   1.889   6.761  0.00  0.00    +0.000 C 
ATOM     25  O   UNL     1      47.710   0.701   6.895  0.00  0.00    +0.000 OA
ATOM     26  H   UNL     1      48.799   2.181   5.277  0.00  0.00    +0.000 HD
ATOM     27  H   UNL     1      48.079   3.654   5.829  0.00  0.00    +0.000 HD
ENDBRANCH  17  24
ENDBRANCH  16  20
ENDBRANCH  15  16
ENDBRANCH   1  15
TORSDOF 5
ENDMDL
MODEL 4
REMARK VINA RESULT:    -7.351      1.360      1.901
REMARK INTER + INTRA:         -10.286
REMARK INTER:                  -9.395
REMARK INTRA:                  -0.891
REMARK UNBOUND:                -0.786
REMARK  Name = 
REMARK  5 active torsions:
REMARK  status: ('A' for Active; 'I' for Inactive)
REMARK    1  A    between atoms: C_2  and  C_4
REMARK    2  A    between atoms: C_7  and  O_8
REMARK    3  A    between atoms: O_8  and  C_9
REMARK    4  A    between atoms: C_9  and  C_10
REMARK    5  A    between atoms: C_15  and  C_16
REMARK                            x       y       z     vdW  Elec       q    Type
REMARK                         _______ _______ _______ _____ _____    ______ ____
ROOT
ATOM      1  C   UNL     1      46.074   6.115  11.702  0.00  0.00    +0.000 A 
ATOM      2  C   UNL     1      46.018   5.356  12.881  0.00  0.00    +0.000 A 
ATOM      3  C   UNL     1      46.997   5.500  13.865  0.00  0.00    +0.000 A 
ATOM      4  C   UNL     1      48.042   6.409  13.689  0.00  0.00    +0.000 A 
ATOM      5 CL   UNL     1      49.209   6.550  14.958  0.00  0.00    +0.000 Cl
ATOM      6  C   UNL     1      48.116   7.183  12.520  0.00  0.00    +0.000 A 
ATOM      7  C   UNL     1      47.122   7.032  11.538  0.00  0.00    +0.000 A 
ENDROOT
BRANCH   6   8
ATOM      8  C   UNL     1      49.169   8.182  12.289  0.00  0.00    +0.000 C 
ATOM      9  C   UNL     1      49.014   9.453  12.700  0.00  0.00    +0.000 C 
ATOM     10  C   UNL     1      50.057  10.511  12.489  0.00  0.00    +0.000 C 
ATOM     11  N   UNL     1      51.359   9.991  12.056  0.00  0.00    +0.000 NA
ATOM     12  C   UNL     1      51.188   8.964  11.020  0.00  0.00    +0.000 C 
ATOM     13  C   UNL     1      50.402   7.750  11.541  0.00  0.00    +0.000 C 
ATOM     14  H   UNL     1      51.806   9.561  12.866  0.00  0.00    +0.000 HD
ENDBRANCH   6   8
BRANCH   1  15
ATOM     15  C   UNL     1      44.951   6.003  10.692  0.00  0.00    +0.000 C 
BRANCH  15  16
ATOM     16  O   UNL     1      44.523   4.646  10.532  0.00  0.00    +0.000 OA
BRANCH  16  20
ATOM     17  C   UNL     1      46.488   2.718   7.467  0.00  0.00    +0.000 A 
ATOM     18  C   UNL     1      45.872   1.969   8.471  0.00  0.00    +0.000 A 
ATOM     19  C   UNL     1      45.213   2.631   9.508  0.00  0.00    +0.000 A 
ATOM     20  C   UNL     1      45.193   4.017   9.500  0.00  0.00    +0.000 A 
ATOM     21  N   UNL     1      45.789   4.764   8.547  0.00  0.00    +0.000 NA
ATOM     22  C   UNL     1      46.433   4.101   7.557  0.00  0.00    +0.000 A 
BRANCH  17  24
ATOM     23  N   UNL     1      47.321   2.874   5.190  0.00  0.00    +0.000 N 
ATOM     24  C   UNL     1      47.213   2.123   6.326  0.00  0.00    +0.000 C 
ATOM     25  O   UNL     1      47.734   1.019   6.408  0.00  0.00    +0.000 OA
ATOM     26  H   UNL     1      47.923   2.499   4.466  0.00  0.00    +0.000 HD
ATOM     27  H   UNL     1      47.138   3.867   5.174  0.00  0.00    +0.000 HD
ENDBRANCH  17  24
ENDBRANCH  16  20
ENDBRANCH  15  16
ENDBRANCH   1  15
TORSDOF 5
ENDMDL
MODEL 5
REMARK VINA RESULT:    -6.943      6.182      8.458
REMARK INTER + INTRA:          -9.758
REMARK INTER:                  -8.914
REMARK INTRA:                  -0.844
REMARK UNBOUND:                -0.786
REMARK  Name = 
REMARK  5 active torsions:
REMARK  status: ('A' for Active; 'I' for Inactive)
REMARK    1  A    between atoms: C_2  and  C_4
REMARK    2  A    between atoms: C_7  and  O_8
REMARK    3  A    between atoms: O_8  and  C_9
REMARK    4  A    between atoms: C_9  and  C_10
REMARK    5  A    between atoms: C_15  and  C_16
REMARK                            x       y       z     vdW  Elec       q    Type
REMARK                         _______ _______ _______ _____ _____    ______ ____
ROOT
ATOM      1  C   UNL     1      47.630   4.742  15.452  0.00  0.00    +0.000 A 
ATOM      2  C   UNL     1      48.317   5.925  15.140  0.00  0.00    +0.000 A 
ATOM      3  C   UNL     1      47.958   6.681  14.023  0.00  0.00    +0.000 A 
ATOM      4  C   UNL     1      46.901   6.270  13.207  0.00  0.00    +0.000 A 
ATOM      5 CL   UNL     1      46.498   7.267  11.851  0.00  0.00    +0.000 Cl
ATOM      6  C   UNL     1      46.196   5.094  13.502  0.00  0.00    +0.000 A 
ATOM      7  C   UNL     1      46.565   4.342  14.632  0.00  0.00    +0.000 A 
ENDROOT
BRANCH   6   8
ATOM      8  C   UNL     1      45.054   4.625  12.704  0.00  0.00    +0.000 C 
ATOM      9  C   UNL     1      45.212   3.670  11.771  0.00  0.00    +0.000 C 
ATOM     10  C   UNL     1      44.081   3.157  10.930  0.00  0.00    +0.000 C 
ATOM     11  N   UNL     1      42.753   3.573  11.394  0.00  0.00    +0.000 NA
ATOM     12  C   UNL     1      42.755   4.994  11.767  0.00  0.00    +0.000 C 
ATOM     13  C   UNL     1      43.717   5.277  12.932  0.00  0.00    +0.000 C 
ATOM     14  H   UNL     1      42.527   3.022  12.222  0.00  0.00    +0.000 HD
ENDBRANCH   6   8
BRANCH   1  15
ATOM     15  C   UNL     1      47.983   3.990  16.718  0.00  0.00    +0.000 C 
BRANCH  15  16
ATOM     16  O   UNL     1      48.566   2.716  16.426  0.00  0.00    +0.000 OA
BRANCH  16  20
ATOM     17  C   UNL     1      52.338   2.417  18.057  0.00  0.00    +0.000 A 
ATOM     18  C   UNL     1      51.646   3.628  18.133  0.00  0.00    +0.000 A 
ATOM     19  C   UNL     1      50.371   3.721  17.574  0.00  0.00    +0.000 A 
ATOM     20  C   UNL     1      49.834   2.599  16.961  0.00  0.00    +0.000 A 
ATOM     21  N   UNL     1      50.485   1.421  16.866  0.00  0.00    +0.000 NA
ATOM     22  C   UNL     1      51.726   1.356  17.405  0.00  0.00    +0.000 A 
BRANCH  17  24
ATOM     23  N   UNL     1      54.051   0.925  18.917  0.00  0.00    +0.000 N 
ATOM     24  C   UNL     1      53.690   2.207  18.613  0.00  0.00    +0.000 C 
ATOM     25  O   UNL     1      54.472   3.137  18.754  0.00  0.00    +0.000 OA
ATOM     26  H   UNL     1      55.020   0.789  19.181  0.00  0.00    +0.000 HD
ATOM     27  H   UNL     1      53.544   0.120  18.578  0.00  0.00    +0.000 HD
ENDBRANCH  17  24
ENDBRANCH  16  20
ENDBRANCH  15  16
ENDBRANCH   1  15
TORSDOF 5
ENDMDL
MODEL 6
REMARK VINA RESULT:    -6.482      5.404      7.621
REMARK INTER + INTRA:          -9.162
REMARK INTER:                  -8.265
REMARK INTRA:                  -0.897
REMARK UNBOUND:                -0.786
REMARK  Name = 
REMARK  5 active torsions:
REMARK  status: ('A' for Active; 'I' for Inactive)
REMARK    1  A    between atoms: C_2  and  C_4
REMARK    2  A    between atoms: C_7  and  O_8
REMARK    3  A    between atoms: O_8  and  C_9
REMARK    4  A    between atoms: C_9  and  C_10
REMARK    5  A    between atoms: C_15  and  C_16
REMARK                            x       y       z     vdW  Elec       q    Type
REMARK                         _______ _______ _______ _____ _____    ______ ____
ROOT
ATOM      1  C   UNL     1      49.169   6.874  16.311  0.00  0.00    +0.000 A 
ATOM      2  C   UNL     1      48.663   7.508  17.455  0.00  0.00    +0.000 A 
ATOM      3  C   UNL     1      48.848   6.947  18.719  0.00  0.00    +0.000 A 
ATOM      4  C   UNL     1      49.551   5.748  18.859  0.00  0.00    +0.000 A 
ATOM      5 CL   UNL     1      49.761   5.121  20.458  0.00  0.00    +0.000 Cl
ATOM      6  C   UNL     1      50.073   5.098  17.730  0.00  0.00    +0.000 A 
ATOM      7  C   UNL     1      49.882   5.675  16.462  0.00  0.00    +0.000 A 
ENDROOT
BRANCH   6   8
ATOM      8  C   UNL     1      50.851   3.854  17.812  0.00  0.00    +0.000 C 
ATOM      9  C   UNL     1      52.152   3.877  18.150  0.00  0.00    +0.000 C 
ATOM     10  C   UNL     1      52.990   2.637  18.248  0.00  0.00    +0.000 C 
ATOM     11  N   UNL     1      52.221   1.389  18.222  0.00  0.00    +0.000 NA
ATOM     12  C   UNL     1      51.178   1.445  17.188  0.00  0.00    +0.000 C 
ATOM     13  C   UNL     1      50.159   2.563  17.463  0.00  0.00    +0.000 C 
ATOM     14  H   UNL     1      51.768   1.284  19.130  0.00  0.00    +0.000 HD
ENDBRANCH   6   8
BRANCH   1  15
ATOM     15  C   UNL     1      49.030   7.550  14.963  0.00  0.00    +0.000 C 
BRANCH  15  16
ATOM     16  O   UNL     1      48.977   6.595  13.899  0.00  0.00    +0.000 OA
BRANCH  16  20
ATOM     17  C   UNL     1      45.140   5.234  13.263  0.00  0.00    +0.000 A 
ATOM     18  C   UNL     1      45.463   6.557  12.957  0.00  0.00    +0.000 A 
ATOM     19  C   UNL     1      46.764   7.011  13.180  0.00  0.00    +0.000 A 
ATOM     20  C   UNL     1      47.694   6.122  13.699  0.00  0.00    +0.000 A 
ATOM     21  N   UNL     1      47.405   4.843  14.013  0.00  0.00    +0.000 NA
ATOM     22  C   UNL     1      46.133   4.427  13.799  0.00  0.00    +0.000 A 
BRANCH  17  24
ATOM     23  N   UNL     1      42.751   5.515  12.927  0.00  0.00    +0.000 N 
ATOM     24  C   UNL     1      43.798   4.649  13.068  0.00  0.00    +0.000 C 
ATOM     25  O   UNL     1      43.635   3.439  12.990  0.00  0.00    +0.000 OA
ATOM     26  H   UNL     1      41.862   5.098  12.673  0.00  0.00    +0.000 HD
ATOM     27  H   UNL     1      42.878   6.497  12.726  0.00  0.00    +0.000 HD
ENDBRANCH  17  24
ENDBRANCH  16  20
ENDBRANCH  15  16
ENDBRANCH   1  15
TORSDOF 5
ENDMDL
MODEL 7
REMARK VINA RESULT:    -6.428      4.896      8.340
REMARK INTER + INTRA:          -9.093
REMARK INTER:                  -8.194
REMARK INTRA:                  -0.899
REMARK UNBOUND:                -0.786
REMARK  Name = 
REMARK  5 active torsions:
REMARK  status: ('A' for Active; 'I' for Inactive)
REMARK    1  A    between atoms: C_2  and  C_4
REMARK    2  A    between atoms: C_7  and  O_8
REMARK    3  A    between atoms: O_8  and  C_9
REMARK    4  A    between atoms: C_9  and  C_10
REMARK    5  A    between atoms: C_15  and  C_16
REMARK                            x       y       z     vdW  Elec       q    Type
REMARK                         _______ _______ _______ _____ _____    ______ ____
ROOT
ATOM      1  C   UNL     1      47.156   7.479  13.266  0.00  0.00    +0.000 A 
ATOM      2  C   UNL     1      46.446   8.676  13.087  0.00  0.00    +0.000 A 
ATOM      3  C   UNL     1      45.239   8.688  12.387  0.00  0.00    +0.000 A 
ATOM      4  C   UNL     1      44.718   7.502  11.864  0.00  0.00    +0.000 A 
ATOM      5 CL   UNL     1      43.208   7.588  11.025  0.00  0.00    +0.000 Cl
ATOM      6  C   UNL     1      45.407   6.291  12.036  0.00  0.00    +0.000 A 
ATOM      7  C   UNL     1      46.620   6.292  12.746  0.00  0.00    +0.000 A 
ENDROOT
BRANCH   6   8
ATOM      8  C   UNL     1      44.897   5.005  11.541  0.00  0.00    +0.000 C 
ATOM      9  C   UNL     1      45.017   4.670  10.244  0.00  0.00    +0.000 C 
ATOM     10  C   UNL     1      44.514   3.371   9.688  0.00  0.00    +0.000 C 
ATOM     11  N   UNL     1      44.138   2.387  10.709  0.00  0.00    +0.000 NA
ATOM     12  C   UNL     1      43.372   3.027  11.788  0.00  0.00    +0.000 C 
ATOM     13  C   UNL     1      44.198   4.098  12.518  0.00  0.00    +0.000 C 
ATOM     14  H   UNL     1      44.997   2.007  11.105  0.00  0.00    +0.000 HD
ENDBRANCH   6   8
BRANCH   1  15
ATOM     15  C   UNL     1      48.416   7.481  14.105  0.00  0.00    +0.000 C 
BRANCH  15  16
ATOM     16  O   UNL     1      48.815   6.153  14.457  0.00  0.00    +0.000 OA
BRANCH  16  20
ATOM     17  C   UNL     1      48.459   5.537  18.515  0.00  0.00    +0.000 A 
ATOM     18  C   UNL     1      48.900   6.774  18.041  0.00  0.00    +0.000 A 
ATOM     19  C   UNL     1      49.022   6.972  16.664  0.00  0.00    +0.000 A 
ATOM     20  C   UNL     1      48.696   5.925  15.815  0.00  0.00    +0.000 A 
ATOM     21  N   UNL     1      48.278   4.718  16.248  0.00  0.00    +0.000 NA
ATOM     22  C   UNL     1      48.178   4.544  17.588  0.00  0.00    +0.000 A 
BRANCH  17  24
ATOM     23  N   UNL     1      48.516   3.927  20.334  0.00  0.00    +0.000 N 
ATOM     24  C   UNL     1      48.294   5.218  19.948  0.00  0.00    +0.000 C 
ATOM     25  O   UNL     1      48.013   6.084  20.765  0.00  0.00    +0.000 OA
ATOM     26  H   UNL     1      48.517   3.757  21.333  0.00  0.00    +0.000 HD
ATOM     27  H   UNL     1      48.994   3.257  19.748  0.00  0.00    +0.000 HD
ENDBRANCH  17  24
ENDBRANCH  16  20
ENDBRANCH  15  16
ENDBRANCH   1  15
TORSDOF 5
ENDMDL
MODEL 8
REMARK VINA RESULT:    -6.361      3.997      5.880
REMARK INTER + INTRA:          -9.006
REMARK INTER:                  -8.123
REMARK INTRA:                  -0.882
REMARK UNBOUND:                -0.786
REMARK  Name = 
REMARK  5 active torsions:
REMARK  status: ('A' for Active; 'I' for Inactive)
REMARK    1  A    between atoms: C_2  and  C_4
REMARK    2  A    between atoms: C_7  and  O_8
REMARK    3  A    between atoms: O_8  and  C_9
REMARK    4  A    between atoms: C_9  and  C_10
REMARK    5  A    between atoms: C_15  and  C_16
REMARK                            x       y       z     vdW  Elec       q    Type
REMARK                         _______ _______ _______ _____ _____    ______ ____
ROOT
ATOM      1  C   UNL     1      48.918   7.327  13.745  0.00  0.00    +0.000 A 
ATOM      2  C   UNL     1      50.209   7.876  13.707  0.00  0.00    +0.000 A 
ATOM      3  C   UNL     1      51.055   7.779  14.812  0.00  0.00    +0.000 A 
ATOM      4  C   UNL     1      50.627   7.123  15.968  0.00  0.00    +0.000 A 
ATOM      5 CL   UNL     1      51.736   7.022  17.293  0.00  0.00    +0.000 Cl
ATOM      6  C   UNL     1      49.343   6.561  16.029  0.00  0.00    +0.000 A 
ATOM      7  C   UNL     1      48.501   6.662  14.908  0.00  0.00    +0.000 A 
ENDROOT
BRANCH   6   8
ATOM      8  C   UNL     1      48.845   5.829  17.202  0.00  0.00    +0.000 C 
ATOM      9  C   UNL     1      48.913   4.486  17.255  0.00  0.00    +0.000 C 
ATOM     10  C   UNL     1      48.419   3.692  18.428  0.00  0.00    +0.000 C 
ATOM     11  N   UNL     1      48.120   4.499  19.616  0.00  0.00    +0.000 NA
ATOM     12  C   UNL     1      47.390   5.718  19.243  0.00  0.00    +0.000 C 
ATOM     13  C   UNL     1      48.220   6.622  18.318  0.00  0.00    +0.000 C 
ATOM     14  H   UNL     1      49.007   4.771  20.038  0.00  0.00    +0.000 HD
ENDBRANCH   6   8
BRANCH   1  15
ATOM     15  C   UNL     1      48.055   7.370  12.501  0.00  0.00    +0.000 C 
BRANCH  15  16
ATOM     16  O   UNL     1      46.664   7.425  12.830  0.00  0.00    +0.000 OA
BRANCH  16  20
ATOM     17  C   UNL     1      44.662   4.128  11.382  0.00  0.00    +0.000 A 
ATOM     18  C   UNL     1      45.203   5.055  10.489  0.00  0.00    +0.000 A 
ATOM     19  C   UNL     1      45.875   6.171  10.988  0.00  0.00    +0.000 A 
ATOM     20  C   UNL     1      45.983   6.317  12.363  0.00  0.00    +0.000 A 
ATOM     21  N   UNL     1      45.461   5.442  13.247  0.00  0.00    +0.000 NA
ATOM     22  C   UNL     1      44.803   4.372  12.740  0.00  0.00    +0.000 A 
BRANCH  17  24
ATOM     23  N   UNL     1      44.464   2.183   9.941  0.00  0.00    +0.000 N 
ATOM     24  C   UNL     1      43.932   2.914  10.965  0.00  0.00    +0.000 C 
ATOM     25  O   UNL     1      42.916   2.551  11.542  0.00  0.00    +0.000 OA
ATOM     26  H   UNL     1      44.016   1.293   9.752  0.00  0.00    +0.000 HD
ATOM     27  H   UNL     1      45.415   2.301   9.623  0.00  0.00    +0.000 HD
ENDBRANCH  17  24
ENDBRANCH  16  20
ENDBRANCH  15  16
ENDBRANCH   1  15
TORSDOF 5
ENDMDL
MODEL 9
REMARK VINA RESULT:    -6.264      4.425      7.099
REMARK INTER + INTRA:          -8.881
REMARK INTER:                  -8.060
REMARK INTRA:                  -0.821
REMARK UNBOUND:                -0.786
REMARK  Name = 
REMARK  5 active torsions:
REMARK  status: ('A' for Active; 'I' for Inactive)
REMARK    1  A    between atoms: C_2  and  C_4
REMARK    2  A    between atoms: C_7  and  O_8
REMARK    3  A    between atoms: O_8  and  C_9
REMARK    4  A    between atoms: C_9  and  C_10
REMARK    5  A    between atoms: C_15  and  C_16
REMARK                            x       y       z     vdW  Elec       q    Type
REMARK                         _______ _______ _______ _____ _____    ______ ____
ROOT
ATOM      1  C   UNL     1      50.282   8.381  11.623  0.00  0.00    +0.000 A 
ATOM      2  C   UNL     1      50.673   9.728  11.581  0.00  0.00    +0.000 A 
ATOM      3  C   UNL     1      51.777  10.123  10.823  0.00  0.00    +0.000 A 
ATOM      4  C   UNL     1      52.500   9.180  10.090  0.00  0.00    +0.000 A 
ATOM      5 CL   UNL     1      53.844   9.744   9.158  0.00  0.00    +0.000 Cl
ATOM      6  C   UNL     1      52.124   7.828  10.112  0.00  0.00    +0.000 A 
ATOM      7  C   UNL     1      51.009   7.443  10.875  0.00  0.00    +0.000 A 
ENDROOT
BRANCH   6   8
ATOM      8  C   UNL     1      52.821   6.792   9.336  0.00  0.00    +0.000 C 
ATOM      9  C   UNL     1      53.798   6.055   9.894  0.00  0.00    +0.000 C 
ATOM     10  C   UNL     1      54.540   4.987   9.147  0.00  0.00    +0.000 C 
ATOM     11  N   UNL     1      53.934   4.622   7.862  0.00  0.00    +0.000 NA
ATOM     12  C   UNL     1      53.514   5.823   7.127  0.00  0.00    +0.000 C 
ATOM     13  C   UNL     1      52.441   6.615   7.891  0.00  0.00    +0.000 C 
ATOM     14  H   UNL     1      53.107   4.059   8.058  0.00  0.00    +0.000 HD
ENDBRANCH   6   8
BRANCH   1  15
ATOM     15  C   UNL     1      49.029   7.995  12.380  0.00  0.00    +0.000 C 
BRANCH  15  16
ATOM     16  O   UNL     1      49.024   6.603  12.711  0.00  0.00    +0.000 OA
BRANCH  16  20
ATOM     17  C   UNL     1      45.177   5.150  12.967  0.00  0.00    +0.000 A 
ATOM     18  C   UNL     1      45.449   6.242  12.140  0.00  0.00    +0.000 A 
ATOM     19  C   UNL     1      46.755   6.731  12.064  0.00  0.00    +0.000 A 
ATOM     20  C   UNL     1      47.739   6.106  12.815  0.00  0.00    +0.000 A 
ATOM     21  N   UNL     1      47.500   5.056  13.628  0.00  0.00    +0.000 NA
ATOM     22  C   UNL     1      46.224   4.606  13.696  0.00  0.00    +0.000 A 
BRANCH  17  24
ATOM     23  N   UNL     1      42.765   5.402  13.109  0.00  0.00    +0.000 N 
ATOM     24  C   UNL     1      43.835   4.553  13.124  0.00  0.00    +0.000 C 
ATOM     25  O   UNL     1      43.683   3.343  13.217  0.00  0.00    +0.000 OA
ATOM     26  H   UNL     1      41.851   4.963  13.096  0.00  0.00    +0.000 HD
ATOM     27  H   UNL     1      42.828   6.354  12.778  0.00  0.00    +0.000 HD
ENDBRANCH  17  24
ENDBRANCH  16  20
ENDBRANCH  15  16
ENDBRANCH   1  15
TORSDOF 5
ENDMDL
