MODEL 1
REMARK VINA RESULT:    -8.330      0.000      0.000
REMARK INTER + INTRA:         -11.327
REMARK INTER:                 -10.765
REMARK INTRA:                  -0.562
REMARK UNBOUND:                -0.562
REMARK  Name = 
REMARK  6 active torsions:
REMARK  status: ('A' for Active; 'I' for Inactive)
REMARK    1  A    between atoms: C_1  and  O_2
REMARK    2  A    between atoms: O_2  and  C_3
REMARK    3  A    between atoms: C_5  and  C_6
REMARK    4  A    between atoms: C_6  and  N_7
REMARK    5  A    between atoms: N_7  and  C_8
REMARK    6  A    between atoms: C_11  and  C_12
REMARK                            x       y       z     vdW  Elec       q    Type
REMARK                         _______ _______ _______ _____ _____    ______ ____
ROOT
ATOM      1  N   UNL     1      44.153   5.025  10.027  0.00  0.00    +0.000 N 
ATOM      2  H   UNL     1      43.364   5.453   9.549  0.00  0.00    +0.000 HD
ENDROOT
BRANCH   1   3
ATOM      3  C   UNL     1      44.930   4.191   9.205  0.00  0.00    +0.000 A 
ATOM      4  C   UNL     1      44.961   2.805   9.257  0.00  0.00    +0.000 A 
ATOM      5  N   UNL     1      45.747   2.014   8.485  0.00  0.00    +0.000 NA
ATOM      6  C   UNL     1      46.578   2.671   7.643  0.00  0.00    +0.000 A 
ATOM      7  N   UNL     1      46.677   4.007   7.522  0.00  0.00    +0.000 NA
ATOM      8  C   UNL     1      45.856   4.724   8.319  0.00  0.00    +0.000 A 
BRANCH   6   9
ATOM      9  C   UNL     1      47.483   1.817   6.782  0.00  0.00    +0.000 C 
ATOM     10  N   UNL     1      48.560   2.465   6.221  0.00  0.00    +0.000 N 
ATOM     11  O   UNL     1      47.299   0.622   6.566  0.00  0.00    +0.000 OA
ATOM     12  H   UNL     1      48.696   3.457   6.376  0.00  0.00    +0.000 HD
ATOM     13  H   UNL     1      49.177   1.949   5.610  0.00  0.00    +0.000 HD
ENDBRANCH   6   9
ENDBRANCH   1   3
BRANCH   1  14
ATOM     14  C   UNL     1      44.043   4.848  11.493  0.00  0.00    +0.000 C 
ATOM     15  C   UNL     1      42.789   5.365  12.188  0.00  0.00    +0.000 C 
ATOM     16  C   UNL     1      42.994   3.894  12.047  0.00  0.00    +0.000 C 
BRANCH  14  19
ATOM     17  C   UNL     1      47.035   4.177  13.723  0.00  0.00    +0.000 A 
ATOM     18  C   UNL     1      45.806   3.985  13.129  0.00  0.00    +0.000 A 
ATOM     19  C   UNL     1      45.370   4.974  12.258  0.00  0.00    +0.000 A 
ATOM     20  N   UNL     1      46.119   6.086  12.044  0.00  0.00    +0.000 NA
ATOM     21  C   UNL     1      47.291   6.169  12.690  0.00  0.00    +0.000 A 
ATOM     22  N   UNL     1      47.801   5.258  13.521  0.00  0.00    +0.000 NA
BRANCH  17  24
ATOM     23  C   UNL     1      47.529   3.585  15.933  0.00  0.00    +0.000 C 
ATOM     24  O   UNL     1      47.484   3.177  14.565  0.00  0.00    +0.000 OA
ENDBRANCH  17  24
ENDBRANCH  14  19
ENDBRANCH   1  14
TORSDOF 5
ENDMDL
MODEL 2
REMARK VINA RESULT:    -7.768      1.441      2.127
REMARK INTER + INTRA:         -10.601
REMARK INTER:                 -10.383
REMARK INTRA:                  -0.218
REMARK UNBOUND:                -0.562
REMARK  Name = 
REMARK  6 active torsions:
REMARK  status: ('A' for Active; 'I' for Inactive)
REMARK    1  A    between atoms: C_1  and  O_2
REMARK    2  A    between atoms: O_2  and  C_3
REMARK    3  A    between atoms: C_5  and  C_6
REMARK    4  A    between atoms: C_6  and  N_7
REMARK    5  A    between atoms: N_7  and  C_8
REMARK    6  A    between atoms: C_11  and  C_12
REMARK                            x       y       z     vdW  Elec       q    Type
REMARK                         _______ _______ _______ _____ _____    ______ ____
ROOT
ATOM      1  N   UNL     1      43.721   3.670  10.616  0.00  0.00    +0.000 N 
ATOM      2  H   UNL     1      43.177   2.856  10.892  0.00  0.00    +0.000 HD
ENDROOT
BRANCH   1   3
ATOM      3  C   UNL     1      44.668   3.407   9.612  0.00  0.00    +0.000 A 
ATOM      4  C   UNL     1      45.169   4.335   8.710  0.00  0.00    +0.000 A 
ATOM      5  N   UNL     1      46.053   4.059   7.719  0.00  0.00    +0.000 NA
ATOM      6  C   UNL     1      46.414   2.760   7.612  0.00  0.00    +0.000 A 
ATOM      7  N   UNL     1      45.974   1.757   8.393  0.00  0.00    +0.000 NA
ATOM      8  C   UNL     1      45.103   2.114   9.361  0.00  0.00    +0.000 A 
BRANCH   6   9
ATOM      9  C   UNL     1      47.384   2.415   6.503  0.00  0.00    +0.000 C 
ATOM     10  N   UNL     1      47.250   3.144   5.343  0.00  0.00    +0.000 N 
ATOM     11  O   UNL     1      48.244   1.542   6.590  0.00  0.00    +0.000 OA
ATOM     12  H   UNL     1      46.521   3.844   5.263  0.00  0.00    +0.000 HD
ATOM     13  H   UNL     1      47.850   2.930   4.559  0.00  0.00    +0.000 HD
ENDBRANCH   6   9
ENDBRANCH   1   3
BRANCH   1  14
ATOM     14  C   UNL     1      43.873   4.753  11.614  0.00  0.00    +0.000 C 
ATOM     15  C   UNL     1      43.164   6.077  11.352  0.00  0.00    +0.000 C 
ATOM     16  C   UNL     1      42.663   5.180  12.433  0.00  0.00    +0.000 C 
BRANCH  14  19
ATOM     17  C   UNL     1      47.323   5.850  12.742  0.00  0.00    +0.000 A 
ATOM     18  C   UNL     1      46.136   5.862  12.043  0.00  0.00    +0.000 A 
ATOM     19  C   UNL     1      45.252   4.820  12.289  0.00  0.00    +0.000 A 
ATOM     20  N   UNL     1      45.579   3.828  13.156  0.00  0.00    +0.000 NA
ATOM     21  C   UNL     1      46.770   3.915  13.766  0.00  0.00    +0.000 A 
ATOM     22  N   UNL     1      47.667   4.890  13.612  0.00  0.00    +0.000 NA
BRANCH  17  24
ATOM     23  C   UNL     1      49.025   7.179  13.645  0.00  0.00    +0.000 C 
ATOM     24  O   UNL     1      48.189   6.905  12.520  0.00  0.00    +0.000 OA
ENDBRANCH  17  24
ENDBRANCH  14  19
ENDBRANCH   1  14
TORSDOF 5
ENDMDL
MODEL 3
REMARK VINA RESULT:    -7.103      2.046      2.531
REMARK INTER + INTRA:          -9.741
REMARK INTER:                  -9.242
REMARK INTRA:                  -0.500
REMARK UNBOUND:                -0.562
REMARK  Name = 
REMARK  6 active torsions:
REMARK  status: ('A' for Active; 'I' for Inactive)
REMARK    1  A    between atoms: C_1  and  O_2
REMARK    2  A    between atoms: O_2  and  C_3
REMARK    3  A    between atoms: C_5  and  C_6
REMARK    4  A    between atoms: C_6  and  N_7
REMARK    5  A    between atoms: N_7  and  C_8
REMARK    6  A    between atoms: C_11  and  C_12
REMARK                            x       y       z     vdW  Elec       q    Type
REMARK                         _______ _______ _______ _____ _____    ______ ____
ROOT
ATOM      1  N   UNL     1      43.836   4.759  10.084  0.00  0.00    +0.000 N 
ATOM      2  H   UNL     1      42.882   4.560   9.796  0.00  0.00    +0.000 HD
ENDROOT
BRANCH   1   3
ATOM      3  C   UNL     1      44.813   4.157   9.272  0.00  0.00    +0.000 A 
ATOM      4  C   UNL     1      45.686   4.825   8.426  0.00  0.00    +0.000 A 
ATOM      5  N   UNL     1      46.596   4.228   7.617  0.00  0.00    +0.000 NA
ATOM      6  C   UNL     1      46.590   2.876   7.638  0.00  0.00    +0.000 A 
ATOM      7  N   UNL     1      45.771   2.107   8.379  0.00  0.00    +0.000 NA
ATOM      8  C   UNL     1      44.899   2.777   9.164  0.00  0.00    +0.000 A 
BRANCH   6   9
ATOM      9  C   UNL     1      47.580   2.179   6.731  0.00  0.00    +0.000 C 
ATOM     10  N   UNL     1      48.026   2.913   5.656  0.00  0.00    +0.000 N 
ATOM     11  O   UNL     1      47.979   1.030   6.905  0.00  0.00    +0.000 OA
ATOM     12  H   UNL     1      47.674   3.850   5.497  0.00  0.00    +0.000 HD
ATOM     13  H   UNL     1      48.662   2.483   5.000  0.00  0.00    +0.000 HD
ENDBRANCH   6   9
ENDBRANCH   1   3
BRANCH   1  14
ATOM     14  C   UNL     1      44.058   5.097  11.508  0.00  0.00    +0.000 C 
ATOM     15  C   UNL     1      42.996   4.685  12.520  0.00  0.00    +0.000 C 
ATOM     16  C   UNL     1      44.306   3.973  12.505  0.00  0.00    +0.000 C 
BRANCH  14  19
ATOM     17  C   UNL     1      46.584   7.750  12.488  0.00  0.00    +0.000 A 
ATOM     18  C   UNL     1      46.012   6.501  12.370  0.00  0.00    +0.000 A 
ATOM     19  C   UNL     1      44.772   6.437  11.749  0.00  0.00    +0.000 A 
ATOM     20  N   UNL     1      44.154   7.567  11.319  0.00  0.00    +0.000 NA
ATOM     21  C   UNL     1      44.802   8.727  11.504  0.00  0.00    +0.000 A 
ATOM     22  N   UNL     1      46.004   8.880  12.062  0.00  0.00    +0.000 NA
BRANCH  17  24
ATOM     23  C   UNL     1      48.633   6.661  12.797  0.00  0.00    +0.000 C 
ATOM     24  O   UNL     1      47.834   7.810  13.077  0.00  0.00    +0.000 OA
ENDBRANCH  17  24
ENDBRANCH  14  19
ENDBRANCH   1  14
TORSDOF 5
ENDMDL
MODEL 4
REMARK VINA RESULT:    -6.621      1.978      6.602
REMARK INTER + INTRA:          -9.118
REMARK INTER:                  -9.269
REMARK INTRA:                   0.151
REMARK UNBOUND:                -0.562
REMARK  Name = 
REMARK  6 active torsions:
REMARK  status: ('A' for Active; 'I' for Inactive)
REMARK    1  A    between atoms: C_1  and  O_2
REMARK    2  A    between atoms: O_2  and  C_3
REMARK    3  A    between atoms: C_5  and  C_6
REMARK    4  A    between atoms: C_6  and  N_7
REMARK    5  A    between atoms: N_7  and  C_8
REMARK    6  A    between atoms: C_11  and  C_12
REMARK                            x       y       z     vdW  Elec       q    Type
REMARK                         _______ _______ _______ _____ _____    ______ ____
ROOT
ATOM      1  N   UNL     1      46.683   6.006  12.152  0.00  0.00    +0.000 N 
ATOM      2  H   UNL     1      47.476   6.180  11.540  0.00  0.00    +0.000 HD
ENDROOT
BRANCH   1   3
ATOM      3  C   UNL     1      47.009   5.288  13.315  0.00  0.00    +0.000 A 
ATOM      4  C   UNL     1      47.578   5.822  14.462  0.00  0.00    +0.000 A 
ATOM      5  N   UNL     1      47.925   5.109  15.562  0.00  0.00    +0.000 NA
ATOM      6  C   UNL     1      47.720   3.775  15.476  0.00  0.00    +0.000 A 
ATOM      7  N   UNL     1      47.215   3.127  14.411  0.00  0.00    +0.000 NA
ATOM      8  C   UNL     1      46.887   3.907  13.359  0.00  0.00    +0.000 A 
BRANCH   6   9
ATOM      9  C   UNL     1      48.116   2.949  16.680  0.00  0.00    +0.000 C 
ATOM     10  N   UNL     1      47.149   2.804  17.650  0.00  0.00    +0.000 N 
ATOM     11  O   UNL     1      49.220   2.431  16.825  0.00  0.00    +0.000 OA
ATOM     12  H   UNL     1      46.249   3.255  17.543  0.00  0.00    +0.000 HD
ATOM     13  H   UNL     1      47.373   2.290  18.490  0.00  0.00    +0.000 HD
ENDBRANCH   6   9
ENDBRANCH   1   3
BRANCH   1  14
ATOM     14  C   UNL     1      45.340   5.981  11.530  0.00  0.00    +0.000 C 
ATOM     15  C   UNL     1      44.135   6.311  12.404  0.00  0.00    +0.000 C 
ATOM     16  C   UNL     1      44.575   7.288  11.365  0.00  0.00    +0.000 C 
BRANCH  14  19
ATOM     17  C   UNL     1      45.523   3.966   8.323  0.00  0.00    +0.000 A 
ATOM     18  C   UNL     1      45.716   5.017   9.193  0.00  0.00    +0.000 A 
ATOM     19  C   UNL     1      45.147   4.901  10.453  0.00  0.00    +0.000 A 
ATOM     20  N   UNL     1      44.410   3.809  10.781  0.00  0.00    +0.000 NA
ATOM     21  C   UNL     1      44.278   2.856   9.845  0.00  0.00    +0.000 A 
ATOM     22  N   UNL     1      44.810   2.871   8.623  0.00  0.00    +0.000 NA
BRANCH  17  24
ATOM     23  C   UNL     1      47.114   3.070   6.858  0.00  0.00    +0.000 C 
ATOM     24  O   UNL     1      46.116   4.068   7.078  0.00  0.00    +0.000 OA
ENDBRANCH  17  24
ENDBRANCH  14  19
ENDBRANCH   1  14
TORSDOF 5
ENDMDL
MODEL 5
REMARK VINA RESULT:    -6.400      2.288      6.071
REMARK INTER + INTRA:          -8.833
REMARK INTER:                  -8.522
REMARK INTRA:                  -0.310
REMARK UNBOUND:                -0.562
REMARK  Name = 
REMARK  6 active torsions:
REMARK  status: ('A' for Active; 'I' for Inactive)
REMARK    1  A    between atoms: C_1  and  O_2
REMARK    2  A    between atoms: O_2  and  C_3
REMARK    3  A    between atoms: C_5  and  C_6
REMARK    4  A    between atoms: C_6  and  N_7
REMARK    5  A    between atoms: N_7  and  C_8
REMARK    6  A    between atoms: C_11  and  C_12
REMARK                            x       y       z     vdW  Elec       q    Type
REMARK                         _______ _______ _______ _____ _____    ______ ____
ROOT
ATOM      1  N   UNL     1      44.679   5.222  12.812  0.00  0.00    +0.000 N 
ATOM      2  H   UNL     1      44.224   5.115  13.715  0.00  0.00    +0.000 HD
ENDROOT
BRANCH   1   3
ATOM      3  C   UNL     1      45.916   5.885  12.872  0.00  0.00    +0.000 A 
ATOM      4  C   UNL     1      46.156   7.189  12.463  0.00  0.00    +0.000 A 
ATOM      5  N   UNL     1      47.364   7.803  12.489  0.00  0.00    +0.000 NA
ATOM      6  C   UNL     1      48.394   7.037  12.916  0.00  0.00    +0.000 A 
ATOM      7  N   UNL     1      48.306   5.751  13.302  0.00  0.00    +0.000 NA
ATOM      8  C   UNL     1      47.068   5.214  13.254  0.00  0.00    +0.000 A 
BRANCH   6   9
ATOM      9  C   UNL     1      49.760   7.687  12.938  0.00  0.00    +0.000 C 
ATOM     10  N   UNL     1      50.594   7.361  11.893  0.00  0.00    +0.000 N 
ATOM     11  O   UNL     1      50.141   8.455  13.817  0.00  0.00    +0.000 OA
ATOM     12  H   UNL     1      50.290   6.705  11.183  0.00  0.00    +0.000 HD
ATOM     13  H   UNL     1      51.530   7.741  11.877  0.00  0.00    +0.000 HD
ENDBRANCH   6   9
ENDBRANCH   1   3
BRANCH   1  14
ATOM     14  C   UNL     1      43.810   5.229  11.613  0.00  0.00    +0.000 C 
ATOM     15  C   UNL     1      42.305   5.360  11.815  0.00  0.00    +0.000 C 
ATOM     16  C   UNL     1      43.069   6.506  11.243  0.00  0.00    +0.000 C 
BRANCH  14  19
ATOM     17  C   UNL     1      45.498   3.888   8.493  0.00  0.00    +0.000 A 
ATOM     18  C   UNL     1      45.087   4.801   9.441  0.00  0.00    +0.000 A 
ATOM     19  C   UNL     1      44.285   4.321  10.467  0.00  0.00    +0.000 A 
ATOM     20  N   UNL     1      43.906   3.017  10.496  0.00  0.00    +0.000 NA
ATOM     21  C   UNL     1      44.356   2.227   9.510  0.00  0.00    +0.000 A 
ATOM     22  N   UNL     1      45.150   2.594   8.503  0.00  0.00    +0.000 NA
BRANCH  17  24
ATOM     23  C   UNL     1      46.615   3.368   6.503  0.00  0.00    +0.000 C 
ATOM     24  O   UNL     1      46.323   4.359   7.489  0.00  0.00    +0.000 OA
ENDBRANCH  17  24
ENDBRANCH  14  19
ENDBRANCH   1  14
TORSDOF 5
ENDMDL
MODEL 6
REMARK VINA RESULT:    -6.381      2.317      6.756
REMARK INTER + INTRA:          -8.808
REMARK INTER:                  -8.399
REMARK INTRA:                  -0.409
REMARK UNBOUND:                -0.562
REMARK  Name = 
REMARK  6 active torsions:
REMARK  status: ('A' for Active; 'I' for Inactive)
REMARK    1  A    between atoms: C_1  and  O_2
REMARK    2  A    between atoms: O_2  and  C_3
REMARK    3  A    between atoms: C_5  and  C_6
REMARK    4  A    between atoms: C_6  and  N_7
REMARK    5  A    between atoms: N_7  and  C_8
REMARK    6  A    between atoms: C_11  and  C_12
REMARK                            x       y       z     vdW  Elec       q    Type
REMARK                         _______ _______ _______ _____ _____    ______ ____
ROOT
ATOM      1  N   UNL     1      46.072   6.075  13.704  0.00  0.00    +0.000 N 
ATOM      2  H   UNL     1      45.612   6.766  14.291  0.00  0.00    +0.000 HD
ENDROOT
BRANCH   1   3
ATOM      3  C   UNL     1      46.859   5.155  14.418  0.00  0.00    +0.000 A 
ATOM      4  C   UNL     1      46.892   3.784  14.206  0.00  0.00    +0.000 A 
ATOM      5  N   UNL     1      47.626   2.903  14.930  0.00  0.00    +0.000 NA
ATOM      6  C   UNL     1      48.333   3.440  15.951  0.00  0.00    +0.000 A 
ATOM      7  N   UNL     1      48.358   4.742  16.288  0.00  0.00    +0.000 NA
ATOM      8  C   UNL     1      47.607   5.556  15.515  0.00  0.00    +0.000 A 
BRANCH   6   9
ATOM      9  C   UNL     1      49.147   2.480  16.790  0.00  0.00    +0.000 C 
ATOM     10  N   UNL     1      49.150   2.724  18.145  0.00  0.00    +0.000 N 
ATOM     11  O   UNL     1      49.785   1.536  16.330  0.00  0.00    +0.000 OA
ATOM     12  H   UNL     1      48.647   3.519  18.520  0.00  0.00    +0.000 HD
ATOM     13  H   UNL     1      49.705   2.133  18.747  0.00  0.00    +0.000 HD
ENDBRANCH   6   9
ENDBRANCH   1   3
BRANCH   1  14
ATOM     14  C   UNL     1      46.333   6.449  12.296  0.00  0.00    +0.000 C 
ATOM     15  C   UNL     1      46.601   7.915  11.978  0.00  0.00    +0.000 C 
ATOM     16  C   UNL     1      47.722   6.935  11.905  0.00  0.00    +0.000 C 
BRANCH  14  19
ATOM     17  C   UNL     1      45.250   4.658   9.134  0.00  0.00    +0.000 A 
ATOM     18  C   UNL     1      46.018   5.441   9.968  0.00  0.00    +0.000 A 
ATOM     19  C   UNL     1      45.540   5.641  11.256  0.00  0.00    +0.000 A 
ATOM     20  N   UNL     1      44.352   5.109  11.643  0.00  0.00    +0.000 NA
ATOM     21  C   UNL     1      43.686   4.377  10.738  0.00  0.00    +0.000 A 
ATOM     22  N   UNL     1      44.080   4.110   9.492  0.00  0.00    +0.000 NA
BRANCH  17  24
ATOM     23  C   UNL     1      45.996   3.051   7.604  0.00  0.00    +0.000 C 
ATOM     24  O   UNL     1      45.742   4.432   7.862  0.00  0.00    +0.000 OA
ENDBRANCH  17  24
ENDBRANCH  14  19
ENDBRANCH   1  14
TORSDOF 5
ENDMDL
MODEL 7
REMARK VINA RESULT:    -5.960      3.230      7.187
REMARK INTER + INTRA:          -8.264
REMARK INTER:                  -7.979
REMARK INTRA:                  -0.285
REMARK UNBOUND:                -0.562
REMARK  Name = 
REMARK  6 active torsions:
REMARK  status: ('A' for Active; 'I' for Inactive)
REMARK    1  A    between atoms: C_1  and  O_2
REMARK    2  A    between atoms: O_2  and  C_3
REMARK    3  A    between atoms: C_5  and  C_6
REMARK    4  A    between atoms: C_6  and  N_7
REMARK    5  A    between atoms: N_7  and  C_8
REMARK    6  A    between atoms: C_11  and  C_12
REMARK                            x       y       z     vdW  Elec       q    Type
REMARK                         _______ _______ _______ _____ _____    ______ ____
ROOT
ATOM      1  N   UNL     1      46.353   4.790  15.112  0.00  0.00    +0.000 N 
ATOM      2  H   UNL     1      45.781   5.254  15.813  0.00  0.00    +0.000 HD
ENDROOT
BRANCH   1   3
ATOM      3  C   UNL     1      47.469   4.119  15.642  0.00  0.00    +0.000 A 
ATOM      4  C   UNL     1      47.788   2.786  15.429  0.00  0.00    +0.000 A 
ATOM      5  N   UNL     1      48.846   2.141  15.981  0.00  0.00    +0.000 NA
ATOM      6  C   UNL     1      49.598   2.882  16.827  0.00  0.00    +0.000 A 
ATOM      7  N   UNL     1      49.377   4.169  17.150  0.00  0.00    +0.000 NA
ATOM      8  C   UNL     1      48.309   4.742  16.555  0.00  0.00    +0.000 A 
BRANCH   6   9
ATOM      9  C   UNL     1      50.775   2.186  17.474  0.00  0.00    +0.000 C 
ATOM     10  N   UNL     1      51.554   2.967  18.297  0.00  0.00    +0.000 N 
ATOM     11  O   UNL     1      51.056   1.003  17.296  0.00  0.00    +0.000 OA
ATOM     12  H   UNL     1      51.338   3.949  18.421  0.00  0.00    +0.000 HD
ATOM     13  H   UNL     1      52.372   2.560  18.728  0.00  0.00    +0.000 HD
ENDBRANCH   6   9
ENDBRANCH   1   3
BRANCH   1  14
ATOM     14  C   UNL     1      46.307   5.328  13.734  0.00  0.00    +0.000 C 
ATOM     15  C   UNL     1      46.805   6.750  13.499  0.00  0.00    +0.000 C 
ATOM     16  C   UNL     1      47.614   5.600  13.001  0.00  0.00    +0.000 C 
BRANCH  14  19
ATOM     17  C   UNL     1      44.080   3.517  11.257  0.00  0.00    +0.000 A 
ATOM     18  C   UNL     1      45.233   3.899  11.908  0.00  0.00    +0.000 A 
ATOM     19  C   UNL     1      45.104   4.862  12.899  0.00  0.00    +0.000 A 
ATOM     20  N   UNL     1      43.894   5.413  13.173  0.00  0.00    +0.000 NA
ATOM     21  C   UNL     1      42.845   4.973  12.462  0.00  0.00    +0.000 A 
ATOM     22  N   UNL     1      42.871   4.035  11.514  0.00  0.00    +0.000 NA
BRANCH  17  24
ATOM     23  C   UNL     1      44.554   3.060   9.010  0.00  0.00    +0.000 C 
ATOM     24  O   UNL     1      44.204   2.535  10.292  0.00  0.00    +0.000 OA
ENDBRANCH  17  24
ENDBRANCH  14  19
ENDBRANCH   1  14
TORSDOF 5
ENDMDL
MODEL 8
REMARK VINA RESULT:    -5.804      2.763      6.564
REMARK INTER + INTRA:          -8.062
REMARK INTER:                  -7.846
REMARK INTRA:                  -0.216
REMARK UNBOUND:                -0.562
REMARK  Name = 
REMARK  6 active torsions:
REMARK  status: ('A' for Active; 'I' for Inactive)
REMARK    1  A    between atoms: C_1  and  O_2
REMARK    2  A    between atoms: O_2  and  C_3
REMARK    3  A    between atoms: C_5  and  C_6
REMARK    4  A    between atoms: C_6  and  N_7
REMARK    5  A    between atoms: N_7  and  C_8
REMARK    6  A    between atoms: C_11  and  C_12
REMARK                            x       y       z     vdW  Elec       q    Type
REMARK                         _______ _______ _______ _____ _____    ______ ____
ROOT
ATOM      1  N   UNL     1      46.288   6.373  13.721  0.00  0.00    +0.000 N 
ATOM      2  H   UNL     1      45.857   7.121  14.258  0.00  0.00    +0.000 HD
ENDROOT
BRANCH   1   3
ATOM      3  C   UNL     1      46.997   5.446  14.504  0.00  0.00    +0.000 A 
ATOM      4  C   UNL     1      47.939   5.760  15.473  0.00  0.00    +0.000 A 
ATOM      5  N   UNL     1      48.646   4.854  16.193  0.00  0.00    +0.000 NA
ATOM      6  C   UNL     1      48.413   3.559  15.882  0.00  0.00    +0.000 A 
ATOM      7  N   UNL     1      47.559   3.120  14.939  0.00  0.00    +0.000 NA
ATOM      8  C   UNL     1      46.888   4.083  14.272  0.00  0.00    +0.000 A 
BRANCH   6   9
ATOM      9  C   UNL     1      49.202   2.523  16.654  0.00  0.00    +0.000 C 
ATOM     10  N   UNL     1      49.274   2.719  18.014  0.00  0.00    +0.000 N 
ATOM     11  O   UNL     1      49.762   1.560  16.136  0.00  0.00    +0.000 OA
ATOM     12  H   UNL     1      48.836   3.529  18.437  0.00  0.00    +0.000 HD
ATOM     13  H   UNL     1      49.817   2.075  18.572  0.00  0.00    +0.000 HD
ENDBRANCH   6   9
ENDBRANCH   1   3
BRANCH   1  14
ATOM     14  C   UNL     1      46.610   6.655  12.304  0.00  0.00    +0.000 C 
ATOM     15  C   UNL     1      46.925   8.093  11.909  0.00  0.00    +0.000 C 
ATOM     16  C   UNL     1      48.024   7.085  11.938  0.00  0.00    +0.000 C 
BRANCH  14  19
ATOM     17  C   UNL     1      44.089   4.354  10.652  0.00  0.00    +0.000 A 
ATOM     18  C   UNL     1      44.740   5.037  11.656  0.00  0.00    +0.000 A 
ATOM     19  C   UNL     1      45.837   5.803  11.284  0.00  0.00    +0.000 A 
ATOM     20  N   UNL     1      46.251   5.836   9.992  0.00  0.00    +0.000 NA
ATOM     21  C   UNL     1      45.547   5.117   9.105  0.00  0.00    +0.000 A 
ATOM     22  N   UNL     1      44.468   4.377   9.366  0.00  0.00    +0.000 NA
BRANCH  17  24
ATOM     23  C   UNL     1      43.300   2.518  11.871  0.00  0.00    +0.000 C 
ATOM     24  O   UNL     1      42.978   3.616  11.017  0.00  0.00    +0.000 OA
ENDBRANCH  17  24
ENDBRANCH  14  19
ENDBRANCH   1  14
TORSDOF 5
ENDMDL
MODEL 9
REMARK VINA RESULT:    -5.484      2.680      6.495
REMARK INTER + INTRA:          -7.649
REMARK INTER:                  -7.980
REMARK INTRA:                   0.330
REMARK UNBOUND:                -0.562
REMARK  Name = 
REMARK  6 active torsions:
REMARK  status: ('A' for Active; 'I' for Inactive)
REMARK    1  A    between atoms: C_1  and  O_2
REMARK    2  A    between atoms: O_2  and  C_3
REMARK    3  A    between atoms: C_5  and  C_6
REMARK    4  A    between atoms: C_6  and  N_7
REMARK    5  A    between atoms: N_7  and  C_8
REMARK    6  A    between atoms: C_11  and  C_12
REMARK                            x       y       z     vdW  Elec       q    Type
REMARK                         _______ _______ _______ _____ _____    ______ ____
ROOT
ATOM      1  N   UNL     1      44.181   6.254  10.936  0.00  0.00    +0.000 N 
ATOM      2  H   UNL     1      43.780   6.582  10.061  0.00  0.00    +0.000 HD
ENDROOT
BRANCH   1   3
ATOM      3  C   UNL     1      45.176   7.098  11.457  0.00  0.00    +0.000 A 
ATOM      4  C   UNL     1      44.987   8.406  11.882  0.00  0.00    +0.000 A 
ATOM      5  N   UNL     1      45.966   9.223  12.345  0.00  0.00    +0.000 NA
ATOM      6  C   UNL     1      47.211   8.696  12.336  0.00  0.00    +0.000 A 
ATOM      7  N   UNL     1      47.537   7.461  11.915  0.00  0.00    +0.000 NA
ATOM      8  C   UNL     1      46.507   6.706  11.476  0.00  0.00    +0.000 A 
BRANCH   6   9
ATOM      9  C   UNL     1      48.329   9.589  12.828  0.00  0.00    +0.000 C 
ATOM     10  N   UNL     1      47.960  10.866  13.189  0.00  0.00    +0.000 N 
ATOM     11  O   UNL     1      49.504   9.239  12.908  0.00  0.00    +0.000 OA
ATOM     12  H   UNL     1      46.996  11.162  13.095  0.00  0.00    +0.000 HD
ATOM     13  H   UNL     1      48.673  11.513  13.492  0.00  0.00    +0.000 HD
ENDBRANCH   6   9
ENDBRANCH   1   3
BRANCH   1  14
ATOM     14  C   UNL     1      44.127   4.799  11.203  0.00  0.00    +0.000 C 
ATOM     15  C   UNL     1      44.432   4.315  12.616  0.00  0.00    +0.000 C 
ATOM     16  C   UNL     1      43.031   4.253  12.108  0.00  0.00    +0.000 C 
BRANCH  14  19
ATOM     17  C   UNL     1      45.745   3.535   8.016  0.00  0.00    +0.000 A 
ATOM     18  C   UNL     1      45.324   4.430   8.976  0.00  0.00    +0.000 A 
ATOM     19  C   UNL     1      44.603   3.912  10.042  0.00  0.00    +0.000 A 
ATOM     20  N   UNL     1      44.308   2.587  10.099  0.00  0.00    +0.000 NA
ATOM     21  C   UNL     1      44.759   1.816   9.098  0.00  0.00    +0.000 A 
ATOM     22  N   UNL     1      45.480   2.222   8.051  0.00  0.00    +0.000 NA
BRANCH  17  24
ATOM     23  C   UNL     1      46.896   3.044   6.037  0.00  0.00    +0.000 C 
ATOM     24  O   UNL     1      46.491   4.047   6.970  0.00  0.00    +0.000 OA
ENDBRANCH  17  24
ENDBRANCH  14  19
ENDBRANCH   1  14
TORSDOF 5
ENDMDL
