MODEL 1
REMARK VINA RESULT:    -7.116      0.000      0.000
REMARK INTER + INTRA:         -11.527
REMARK INTER:                 -10.027
REMARK INTRA:                  -1.500
REMARK UNBOUND:                -1.500
REMARK  Name = 
REMARK  8 active torsions:
REMARK  status: ('A' for Active; 'I' for Inactive)
REMARK    1  A    between atoms: C_1  and  C_2
REMARK    2  A    between atoms: C_2  and  N_3
REMARK    3  A    between atoms: N_3  and  C_4
REMARK    4  A    between atoms: C_4  and  C_5
REMARK    5  A    between atoms: C_8  and  C_9
REMARK    6  A    between atoms: C_9  and  N_10
REMARK    7  A    between atoms: N_10  and  C_11
REMARK    8  A    between atoms: C_18  and  C_20
REMARK                            x       y       z     vdW  Elec       q    Type
REMARK                         _______ _______ _______ _____ _____    ______ ____
ROOT
ATOM      1  N   UNL     1      46.338   7.210  12.100  0.00  0.00    +0.000 N 
ATOM      2  C   UNL     1      45.037   6.874  11.679  0.00  0.00    +0.000 C 
ATOM      3  O   UNL     1      44.208   7.735  11.387  0.00  0.00    +0.000 OA
ENDROOT
BRANCH   2   4
ATOM      4  C   UNL     1      44.638   5.455  11.629  0.00  0.00    +0.000 A 
ATOM      5  C   UNL     1      43.886   4.809  12.601  0.00  0.00    +0.000 A 
ATOM      6  S   UNL     1      43.512   3.187  12.212  0.00  0.00    +0.000 S 
ATOM      7  C   UNL     1      44.206   3.345  10.671  0.00  0.00    +0.000 A 
ATOM      8  N   UNL     1      44.126   2.339   9.756  0.00  0.00    +0.000 NA
ATOM      9  C   UNL     1      44.634   2.633   8.602  0.00  0.00    +0.000 A 
ATOM     10  N   UNL     1      45.259   3.817   8.303  0.00  0.00    +0.000 N 
ATOM     11  C   UNL     1      45.488   4.804   9.238  0.00  0.00    +0.000 A 
ATOM     12  O   UNL     1      46.245   5.738   9.006  0.00  0.00    +0.000 OA
ATOM     13  C   UNL     1      44.814   4.575  10.502  0.00  0.00    +0.000 A 
ATOM     14  H   UNL     1      45.693   3.957   7.403  0.00  0.00    +0.000 HD
ENDBRANCH   2   4
BRANCH   1  16
ATOM     15  C   UNL     1      48.073   8.978  12.016  0.00  0.00    +0.000 C 
ATOM     16  C   UNL     1      46.620   8.631  12.310  0.00  0.00    +0.000 C 
ENDBRANCH   1  16
BRANCH   1  17
ATOM     17  C   UNL     1      47.316   6.203  12.503  0.00  0.00    +0.000 C 
BRANCH  17  18
ATOM     18  C   UNL     1      47.446   5.787  13.946  0.00  0.00    +0.000 A 
ATOM     19  C   UNL     1      46.850   4.591  14.376  0.00  0.00    +0.000 A 
ATOM     20  C   UNL     1      47.188   4.031  15.608  0.00  0.00    +0.000 A 
ATOM     21  C   UNL     1      48.125   4.659  16.438  0.00  0.00    +0.000 A 
ATOM     22  C   UNL     1      48.638   5.906  16.053  0.00  0.00    +0.000 A 
ATOM     23  C   UNL     1      48.299   6.470  14.819  0.00  0.00    +0.000 A 
BRANCH  21  24
ATOM     24  C   UNL     1      48.569   3.996  17.723  0.00  0.00    +0.000 C 
BRANCH  24  25
ATOM     25  N   UNL     1      47.811   4.501  18.875  0.00  0.00    +0.000 NA
ATOM     26  H   UNL     1      47.244   3.734  19.229  0.00  0.00    +0.000 HD
BRANCH  25  27
ATOM     27  C   UNL     1      48.682   4.958  19.940  0.00  0.00    +0.000 C 
ATOM     28  C   UNL     1      49.190   6.388  19.804  0.00  0.00    +0.000 C 
ATOM     29  C   UNL     1      47.973   7.228  20.137  0.00  0.00    +0.000 C 
ATOM     30  C   UNL     1      47.205   6.368  21.130  0.00  0.00    +0.000 C 
ATOM     31  N   UNL     1      47.852   5.049  21.130  0.00  0.00    +0.000 NA
ATOM     32  H   UNL     1      47.150   4.317  21.131  0.00  0.00    +0.000 HD
ENDBRANCH  25  27
ENDBRANCH  24  25
ENDBRANCH  21  24
ENDBRANCH  17  18
ENDBRANCH   1  17
TORSDOF 7
ENDMDL
MODEL 2
REMARK VINA RESULT:    -6.781      3.297      8.387
REMARK INTER + INTRA:         -11.055
REMARK INTER:                  -9.505
REMARK INTRA:                  -1.550
REMARK UNBOUND:                -1.500
REMARK  Name = 
REMARK  8 active torsions:
REMARK  status: ('A' for Active; 'I' for Inactive)
REMARK    1  A    between atoms: C_1  and  C_2
REMARK    2  A    between atoms: C_2  and  N_3
REMARK    3  A    between atoms: N_3  and  C_4
REMARK    4  A    between atoms: C_4  and  C_5
REMARK    5  A    between atoms: C_8  and  C_9
REMARK    6  A    between atoms: C_9  and  N_10
REMARK    7  A    between atoms: N_10  and  C_11
REMARK    8  A    between atoms: C_18  and  C_20
REMARK                            x       y       z     vdW  Elec       q    Type
REMARK                         _______ _______ _______ _____ _____    ______ ____
ROOT
ATOM      1  N   UNL     1      49.217   7.908  13.725  0.00  0.00    +0.000 N 
ATOM      2  C   UNL     1      49.978   8.309  14.841  0.00  0.00    +0.000 C 
ATOM      3  O   UNL     1      51.203   8.406  14.787  0.00  0.00    +0.000 OA
ENDROOT
BRANCH   2   4
ATOM      4  C   UNL     1      49.297   8.577  16.121  0.00  0.00    +0.000 A 
ATOM      5  C   UNL     1      48.875   9.828  16.548  0.00  0.00    +0.000 A 
ATOM      6  S   UNL     1      48.037   9.800  18.037  0.00  0.00    +0.000 S 
ATOM      7  C   UNL     1      48.076   8.103  18.082  0.00  0.00    +0.000 A 
ATOM      8  N   UNL     1      47.423   7.408  19.055  0.00  0.00    +0.000 NA
ATOM      9  C   UNL     1      47.480   6.123  18.914  0.00  0.00    +0.000 A 
ATOM     10  N   UNL     1      48.173   5.475  17.923  0.00  0.00    +0.000 N 
ATOM     11  C   UNL     1      48.961   6.132  17.004  0.00  0.00    +0.000 A 
ATOM     12  O   UNL     1      49.746   5.524  16.286  0.00  0.00    +0.000 OA
ATOM     13  C   UNL     1      48.816   7.575  17.039  0.00  0.00    +0.000 A 
ATOM     14  H   UNL     1      48.230   4.468  17.910  0.00  0.00    +0.000 HD
ENDBRANCH   2   4
BRANCH   1  16
ATOM     15  C   UNL     1      49.950   8.531  11.441  0.00  0.00    +0.000 C 
ATOM     16  C   UNL     1      49.957   7.476  12.539  0.00  0.00    +0.000 C 
ENDBRANCH   1  16
BRANCH   1  17
ATOM     17  C   UNL     1      47.768   7.736  13.786  0.00  0.00    +0.000 C 
BRANCH  17  18
ATOM     18  C   UNL     1      47.093   6.610  13.044  0.00  0.00    +0.000 A 
ATOM     19  C   UNL     1      46.900   5.377  13.686  0.00  0.00    +0.000 A 
ATOM     20  C   UNL     1      46.034   4.425  13.150  0.00  0.00    +0.000 A 
ATOM     21  C   UNL     1      45.348   4.682  11.956  0.00  0.00    +0.000 A 
ATOM     22  C   UNL     1      45.624   5.870  11.263  0.00  0.00    +0.000 A 
ATOM     23  C   UNL     1      46.494   6.826  11.798  0.00  0.00    +0.000 A 
BRANCH  21  24
ATOM     24  C   UNL     1      44.330   3.694  11.434  0.00  0.00    +0.000 C 
BRANCH  24  25
ATOM     25  N   UNL     1      44.979   2.578  10.733  0.00  0.00    +0.000 NA
ATOM     26  H   UNL     1      44.862   1.746  11.307  0.00  0.00    +0.000 HD
BRANCH  25  27
ATOM     27  C   UNL     1      44.381   2.330   9.436  0.00  0.00    +0.000 C 
ATOM     28  C   UNL     1      44.511   3.462   8.425  0.00  0.00    +0.000 C 
ATOM     29  C   UNL     1      45.968   3.402   8.013  0.00  0.00    +0.000 C 
ATOM     30  C   UNL     1      46.315   1.926   8.139  0.00  0.00    +0.000 C 
ATOM     31  N   UNL     1      45.180   1.285   8.816  0.00  0.00    +0.000 NA
ATOM     32  H   UNL     1      45.516   0.632   9.515  0.00  0.00    +0.000 HD
ENDBRANCH  25  27
ENDBRANCH  24  25
ENDBRANCH  21  24
ENDBRANCH  17  18
ENDBRANCH   1  17
TORSDOF 7
ENDMDL
MODEL 3
REMARK VINA RESULT:    -6.651      3.413      8.356
REMARK INTER + INTRA:         -10.873
REMARK INTER:                  -9.705
REMARK INTRA:                  -1.168
REMARK UNBOUND:                -1.500
REMARK  Name = 
REMARK  8 active torsions:
REMARK  status: ('A' for Active; 'I' for Inactive)
REMARK    1  A    between atoms: C_1  and  C_2
REMARK    2  A    between atoms: C_2  and  N_3
REMARK    3  A    between atoms: N_3  and  C_4
REMARK    4  A    between atoms: C_4  and  C_5
REMARK    5  A    between atoms: C_8  and  C_9
REMARK    6  A    between atoms: C_9  and  N_10
REMARK    7  A    between atoms: N_10  and  C_11
REMARK    8  A    between atoms: C_18  and  C_20
REMARK                            x       y       z     vdW  Elec       q    Type
REMARK                         _______ _______ _______ _____ _____    ______ ____
ROOT
ATOM      1  N   UNL     1      48.665   7.404  16.034  0.00  0.00    +0.000 N 
ATOM      2  C   UNL     1      48.480   6.836  17.309  0.00  0.00    +0.000 C 
ATOM      3  O   UNL     1      48.384   7.531  18.319  0.00  0.00    +0.000 OA
ENDROOT
BRANCH   2   4
ATOM      4  C   UNL     1      48.443   5.368  17.447  0.00  0.00    +0.000 A 
ATOM      5  C   UNL     1      47.294   4.593  17.368  0.00  0.00    +0.000 A 
ATOM      6  S   UNL     1      47.590   2.914  17.480  0.00  0.00    +0.000 S 
ATOM      7  C   UNL     1      49.270   3.160  17.481  0.00  0.00    +0.000 A 
ATOM      8  N   UNL     1      50.137   2.110  17.444  0.00  0.00    +0.000 NA
ATOM      9  C   UNL     1      51.382   2.455  17.373  0.00  0.00    +0.000 A 
ATOM     10  N   UNL     1      51.836   3.750  17.390  0.00  0.00    +0.000 N 
ATOM     11  C   UNL     1      51.006   4.836  17.569  0.00  0.00    +0.000 A 
ATOM     12  O   UNL     1      51.456   5.949  17.813  0.00  0.00    +0.000 OA
ATOM     13  C   UNL     1      49.595   4.505  17.513  0.00  0.00    +0.000 A 
ATOM     14  H   UNL     1      52.825   3.948  17.398  0.00  0.00    +0.000 HD
ENDBRANCH   2   4
BRANCH   1  16
ATOM     15  C   UNL     1      49.560   9.281  14.685  0.00  0.00    +0.000 C 
ATOM     16  C   UNL     1      48.881   8.850  15.978  0.00  0.00    +0.000 C 
ENDBRANCH   1  16
BRANCH   1  17
ATOM     17  C   UNL     1      48.835   6.592  14.831  0.00  0.00    +0.000 C 
BRANCH  17  18
ATOM     18  C   UNL     1      47.666   6.306  13.922  0.00  0.00    +0.000 A 
ATOM     19  C   UNL     1      47.449   7.119  12.798  0.00  0.00    +0.000 A 
ATOM     20  C   UNL     1      46.574   6.718  11.790  0.00  0.00    +0.000 A 
ATOM     21  C   UNL     1      45.892   5.499  11.887  0.00  0.00    +0.000 A 
ATOM     22  C   UNL     1      46.030   4.740  13.059  0.00  0.00    +0.000 A 
ATOM     23  C   UNL     1      46.906   5.142  14.072  0.00  0.00    +0.000 A 
BRANCH  21  24
ATOM     24  C   UNL     1      45.027   5.017  10.744  0.00  0.00    +0.000 C 
BRANCH  24  25
ATOM     25  N   UNL     1      45.157   3.567  10.550  0.00  0.00    +0.000 NA
ATOM     26  H   UNL     1      44.806   3.113  11.390  0.00  0.00    +0.000 HD
BRANCH  25  27
ATOM     27  C   UNL     1      44.382   3.098   9.417  0.00  0.00    +0.000 C 
ATOM     28  C   UNL     1      44.776   3.682   8.067  0.00  0.00    +0.000 C 
ATOM     29  C   UNL     1      46.082   2.983   7.747  0.00  0.00    +0.000 C 
ATOM     30  C   UNL     1      45.933   1.624   8.414  0.00  0.00    +0.000 C 
ATOM     31  N   UNL     1      44.725   1.696   9.246  0.00  0.00    +0.000 NA
ATOM     32  H   UNL     1      44.895   1.259  10.145  0.00  0.00    +0.000 HD
ENDBRANCH  25  27
ENDBRANCH  24  25
ENDBRANCH  21  24
ENDBRANCH  17  18
ENDBRANCH   1  17
TORSDOF 7
ENDMDL
MODEL 4
REMARK VINA RESULT:    -6.528      3.504      7.862
REMARK INTER + INTRA:         -10.700
REMARK INTER:                  -9.066
REMARK INTRA:                  -1.633
REMARK UNBOUND:                -1.500
REMARK  Name = 
REMARK  8 active torsions:
REMARK  status: ('A' for Active; 'I' for Inactive)
REMARK    1  A    between atoms: C_1  and  C_2
REMARK    2  A    between atoms: C_2  and  N_3
REMARK    3  A    between atoms: N_3  and  C_4
REMARK    4  A    between atoms: C_4  and  C_5
REMARK    5  A    between atoms: C_8  and  C_9
REMARK    6  A    between atoms: C_9  and  N_10
REMARK    7  A    between atoms: N_10  and  C_11
REMARK    8  A    between atoms: C_18  and  C_20
REMARK                            x       y       z     vdW  Elec       q    Type
REMARK                         _______ _______ _______ _____ _____    ______ ____
ROOT
ATOM      1  N   UNL     1      49.050   7.381  16.567  0.00  0.00    +0.000 N 
ATOM      2  C   UNL     1      48.665   6.665  17.717  0.00  0.00    +0.000 C 
ATOM      3  O   UNL     1      48.488   7.223  18.798  0.00  0.00    +0.000 OA
ENDROOT
BRANCH   2   4
ATOM      4  C   UNL     1      48.512   5.199  17.638  0.00  0.00    +0.000 A 
ATOM      5  C   UNL     1      47.315   4.539  17.400  0.00  0.00    +0.000 A 
ATOM      6  S   UNL     1      47.479   2.843  17.277  0.00  0.00    +0.000 S 
ATOM      7  C   UNL     1      49.170   2.950  17.382  0.00  0.00    +0.000 A 
ATOM      8  N   UNL     1      49.957   1.849  17.226  0.00  0.00    +0.000 NA
ATOM      9  C   UNL     1      51.226   2.099  17.255  0.00  0.00    +0.000 A 
ATOM     10  N   UNL     1      51.774   3.337  17.480  0.00  0.00    +0.000 N 
ATOM     11  C   UNL     1      51.019   4.450  17.782  0.00  0.00    +0.000 A 
ATOM     12  O   UNL     1      51.537   5.476  18.204  0.00  0.00    +0.000 OA
ATOM     13  C   UNL     1      49.592   4.245  17.623  0.00  0.00    +0.000 A 
ATOM     14  H   UNL     1      52.774   3.451  17.556  0.00  0.00    +0.000 HD
ENDBRANCH   2   4
BRANCH   1  16
ATOM     15  C   UNL     1      48.142   9.687  16.579  0.00  0.00    +0.000 C 
ATOM     16  C   UNL     1      49.367   8.798  16.744  0.00  0.00    +0.000 C 
ENDBRANCH   1  16
BRANCH   1  17
ATOM     17  C   UNL     1      49.316   6.727  15.288  0.00  0.00    +0.000 C 
BRANCH  17  18
ATOM     18  C   UNL     1      48.278   6.718  14.195  0.00  0.00    +0.000 A 
ATOM     19  C   UNL     1      47.423   5.612  14.063  0.00  0.00    +0.000 A 
ATOM     20  C   UNL     1      46.279   5.690  13.270  0.00  0.00    +0.000 A 
ATOM     21  C   UNL     1      45.969   6.872  12.586  0.00  0.00    +0.000 A 
ATOM     22  C   UNL     1      46.880   7.938  12.635  0.00  0.00    +0.000 A 
ATOM     23  C   UNL     1      48.029   7.861  13.429  0.00  0.00    +0.000 A 
BRANCH  21  24
ATOM     24  C   UNL     1      44.674   6.989  11.814  0.00  0.00    +0.000 C 
BRANCH  24  25
ATOM     25  N   UNL     1      43.734   5.923  12.183  0.00  0.00    +0.000 NA
ATOM     26  H   UNL     1      42.953   6.357  12.670  0.00  0.00    +0.000 HD
BRANCH  25  27
ATOM     27  C   UNL     1      43.220   5.225  11.021  0.00  0.00    +0.000 C 
ATOM     28  C   UNL     1      44.270   4.575  10.128  0.00  0.00    +0.000 C 
ATOM     29  C   UNL     1      44.718   3.370  10.931  0.00  0.00    +0.000 C 
ATOM     30  C   UNL     1      43.475   2.981  11.717  0.00  0.00    +0.000 C 
ATOM     31  N   UNL     1      42.504   4.066  11.529  0.00  0.00    +0.000 NA
ATOM     32  H   UNL     1      42.052   4.286  12.410  0.00  0.00    +0.000 HD
ENDBRANCH  25  27
ENDBRANCH  24  25
ENDBRANCH  21  24
ENDBRANCH  17  18
ENDBRANCH   1  17
TORSDOF 7
ENDMDL
MODEL 5
REMARK VINA RESULT:    -6.166      3.579      8.230
REMARK INTER + INTRA:         -10.190
REMARK INTER:                  -8.622
REMARK INTRA:                  -1.567
REMARK UNBOUND:                -1.500
REMARK  Name = 
REMARK  8 active torsions:
REMARK  status: ('A' for Active; 'I' for Inactive)
REMARK    1  A    between atoms: C_1  and  C_2
REMARK    2  A    between atoms: C_2  and  N_3
REMARK    3  A    between atoms: N_3  and  C_4
REMARK    4  A    between atoms: C_4  and  C_5
REMARK    5  A    between atoms: C_8  and  C_9
REMARK    6  A    between atoms: C_9  and  N_10
REMARK    7  A    between atoms: N_10  and  C_11
REMARK    8  A    between atoms: C_18  and  C_20
REMARK                            x       y       z     vdW  Elec       q    Type
REMARK                         _______ _______ _______ _____ _____    ______ ____
ROOT
ATOM      1  N   UNL     1      49.723   8.776  13.051  0.00  0.00    +0.000 N 
ATOM      2  C   UNL     1      49.842   9.329  14.341  0.00  0.00    +0.000 C 
ATOM      3  O   UNL     1      50.037  10.531  14.515  0.00  0.00    +0.000 OA
ENDROOT
BRANCH   2   4
ATOM      4  C   UNL     1      49.778   8.439  15.516  0.00  0.00    +0.000 A 
ATOM      5  C   UNL     1      48.630   8.181  16.252  0.00  0.00    +0.000 A 
ATOM      6  S   UNL     1      48.858   7.038  17.501  0.00  0.00    +0.000 S 
ATOM      7  C   UNL     1      50.453   6.738  17.002  0.00  0.00    +0.000 A 
ATOM      8  N   UNL     1      51.202   5.760  17.584  0.00  0.00    +0.000 NA
ATOM      9  C   UNL     1      52.369   5.599  17.047  0.00  0.00    +0.000 A 
ATOM     10  N   UNL     1      52.870   6.361  16.022  0.00  0.00    +0.000 N 
ATOM     11  C   UNL     1      52.204   7.449  15.499  0.00  0.00    +0.000 A 
ATOM     12  O   UNL     1      52.766   8.243  14.756  0.00  0.00    +0.000 OA
ATOM     13  C   UNL     1      50.839   7.579  15.974  0.00  0.00    +0.000 A 
ATOM     14  H   UNL     1      53.813   6.225  15.693  0.00  0.00    +0.000 HD
ENDBRANCH   2   4
BRANCH   1  16
ATOM     15  C   UNL     1      48.701  10.288  11.374  0.00  0.00    +0.000 C 
ATOM     16  C   UNL     1      49.980   9.670  11.921  0.00  0.00    +0.000 C 
ENDBRANCH   1  16
BRANCH   1  17
ATOM     17  C   UNL     1      49.546   7.344  12.824  0.00  0.00    +0.000 C 
BRANCH  17  18
ATOM     18  C   UNL     1      48.168   6.733  12.794  0.00  0.00    +0.000 A 
ATOM     19  C   UNL     1      47.325   6.981  11.699  0.00  0.00    +0.000 A 
ATOM     20  C   UNL     1      46.180   6.213  11.495  0.00  0.00    +0.000 A 
ATOM     21  C   UNL     1      45.849   5.183  12.385  0.00  0.00    +0.000 A 
ATOM     22  C   UNL     1      46.634   5.007  13.534  0.00  0.00    +0.000 A 
ATOM     23  C   UNL     1      47.783   5.778  13.741  0.00  0.00    +0.000 A 
BRANCH  21  24
ATOM     24  C   UNL     1      44.668   4.283  12.102  0.00  0.00    +0.000 C 
BRANCH  24  25
ATOM     25  N   UNL     1      45.059   3.129  11.282  0.00  0.00    +0.000 NA
ATOM     26  H   UNL     1      44.992   2.300  11.867  0.00  0.00    +0.000 HD
BRANCH  25  27
ATOM     27  C   UNL     1      44.187   2.956  10.137  0.00  0.00    +0.000 C 
ATOM     28  C   UNL     1      44.320   4.009   9.045  0.00  0.00    +0.000 C 
ATOM     29  C   UNL     1      45.635   3.660   8.376  0.00  0.00    +0.000 C 
ATOM     30  C   UNL     1      45.729   2.150   8.537  0.00  0.00    +0.000 C 
ATOM     31  N   UNL     1      44.650   1.759   9.453  0.00  0.00    +0.000 NA
ATOM     32  H   UNL     1      44.991   1.077  10.122  0.00  0.00    +0.000 HD
ENDBRANCH  25  27
ENDBRANCH  24  25
ENDBRANCH  21  24
ENDBRANCH  17  18
ENDBRANCH   1  17
TORSDOF 7
ENDMDL
MODEL 6
REMARK VINA RESULT:    -6.127      3.594      7.846
REMARK INTER + INTRA:         -10.134
REMARK INTER:                  -8.561
REMARK INTRA:                  -1.574
REMARK UNBOUND:                -1.500
REMARK  Name = 
REMARK  8 active torsions:
REMARK  status: ('A' for Active; 'I' for Inactive)
REMARK    1  A    between atoms: C_1  and  C_2
REMARK    2  A    between atoms: C_2  and  N_3
REMARK    3  A    between atoms: N_3  and  C_4
REMARK    4  A    between atoms: C_4  and  C_5
REMARK    5  A    between atoms: C_8  and  C_9
REMARK    6  A    between atoms: C_9  and  N_10
REMARK    7  A    between atoms: N_10  and  C_11
REMARK    8  A    between atoms: C_18  and  C_20
REMARK                            x       y       z     vdW  Elec       q    Type
REMARK                         _______ _______ _______ _____ _____    ______ ____
ROOT
ATOM      1  N   UNL     1      48.684   8.119  16.858  0.00  0.00    +0.000 N 
ATOM      2  C   UNL     1      49.055   7.283  17.929  0.00  0.00    +0.000 C 
ATOM      3  O   UNL     1      48.635   7.468  19.070  0.00  0.00    +0.000 OA
ENDROOT
BRANCH   2   4
ATOM      4  C   UNL     1      50.008   6.183  17.690  0.00  0.00    +0.000 A 
ATOM      5  C   UNL     1      51.371   6.247  17.940  0.00  0.00    +0.000 A 
ATOM      6  S   UNL     1      52.193   4.778  17.644  0.00  0.00    +0.000 S 
ATOM      7  C   UNL     1      50.735   3.970  17.323  0.00  0.00    +0.000 A 
ATOM      8  N   UNL     1      50.706   2.625  17.106  0.00  0.00    +0.000 NA
ATOM      9  C   UNL     1      49.516   2.141  16.952  0.00  0.00    +0.000 A 
ATOM     10  N   UNL     1      48.364   2.885  16.942  0.00  0.00    +0.000 N 
ATOM     11  C   UNL     1      48.358   4.262  17.016  0.00  0.00    +0.000 A 
ATOM     12  O   UNL     1      47.347   4.908  16.772  0.00  0.00    +0.000 OA
ATOM     13  C   UNL     1      49.654   4.833  17.329  0.00  0.00    +0.000 A 
ATOM     14  H   UNL     1      47.473   2.452  16.750  0.00  0.00    +0.000 HD
ENDBRANCH   2   4
BRANCH   1  16
ATOM     15  C   UNL     1      48.728  10.572  17.210  0.00  0.00    +0.000 C 
ATOM     16  C   UNL     1      47.888   9.302  17.187  0.00  0.00    +0.000 C 
ENDBRANCH   1  16
BRANCH   1  17
ATOM     17  C   UNL     1      49.215   7.947  15.509  0.00  0.00    +0.000 C 
BRANCH  17  18
ATOM     18  C   UNL     1      48.290   7.824  14.325  0.00  0.00    +0.000 A 
ATOM     19  C   UNL     1      47.983   6.552  13.816  0.00  0.00    +0.000 A 
ATOM     20  C   UNL     1      46.922   6.378  12.929  0.00  0.00    +0.000 A 
ATOM     21  C   UNL     1      46.149   7.474  12.526  0.00  0.00    +0.000 A 
ATOM     22  C   UNL     1      46.523   8.757  12.952  0.00  0.00    +0.000 A 
ATOM     23  C   UNL     1      47.589   8.933  13.841  0.00  0.00    +0.000 A 
BRANCH  21  24
ATOM     24  C   UNL     1      44.934   7.267  11.649  0.00  0.00    +0.000 C 
BRANCH  24  25
ATOM     25  N   UNL     1      43.894   6.504  12.350  0.00  0.00    +0.000 NA
ATOM     26  H   UNL     1      43.252   7.173  12.770  0.00  0.00    +0.000 HD
BRANCH  25  27
ATOM     27  C   UNL     1      43.143   5.653  11.447  0.00  0.00    +0.000 C 
ATOM     28  C   UNL     1      43.979   4.773  10.527  0.00  0.00    +0.000 C 
ATOM     29  C   UNL     1      44.510   3.698  11.454  0.00  0.00    +0.000 C 
ATOM     30  C   UNL     1      43.417   3.556  12.502  0.00  0.00    +0.000 C 
ATOM     31  N   UNL     1      42.479   4.664  12.281  0.00  0.00    +0.000 NA
ATOM     32  H   UNL     1      42.208   5.073  13.169  0.00  0.00    +0.000 HD
ENDBRANCH  25  27
ENDBRANCH  24  25
ENDBRANCH  21  24
ENDBRANCH  17  18
ENDBRANCH   1  17
TORSDOF 7
ENDMDL
MODEL 7
REMARK VINA RESULT:    -5.940      3.829      8.624
REMARK INTER + INTRA:          -9.871
REMARK INTER:                  -9.635
REMARK INTRA:                  -0.237
REMARK UNBOUND:                -1.500
REMARK  Name = 
REMARK  8 active torsions:
REMARK  status: ('A' for Active; 'I' for Inactive)
REMARK    1  A    between atoms: C_1  and  C_2
REMARK    2  A    between atoms: C_2  and  N_3
REMARK    3  A    between atoms: N_3  and  C_4
REMARK    4  A    between atoms: C_4  and  C_5
REMARK    5  A    between atoms: C_8  and  C_9
REMARK    6  A    between atoms: C_9  and  N_10
REMARK    7  A    between atoms: N_10  and  C_11
REMARK    8  A    between atoms: C_18  and  C_20
REMARK                            x       y       z     vdW  Elec       q    Type
REMARK                         _______ _______ _______ _____ _____    ______ ____
ROOT
ATOM      1  N   UNL     1      46.599   5.914  13.596  0.00  0.00    +0.000 N 
ATOM      2  C   UNL     1      47.661   6.838  13.558  0.00  0.00    +0.000 C 
ATOM      3  O   UNL     1      48.739   6.607  14.102  0.00  0.00    +0.000 OA
ENDROOT
BRANCH   2   4
ATOM      4  C   UNL     1      47.464   8.138  12.888  0.00  0.00    +0.000 A 
ATOM      5  C   UNL     1      46.358   8.958  13.059  0.00  0.00    +0.000 A 
ATOM      6  S   UNL     1      46.466  10.439  12.214  0.00  0.00    +0.000 S 
ATOM      7  C   UNL     1      48.053  10.099  11.720  0.00  0.00    +0.000 A 
ATOM      8  N   UNL     1      48.795  11.021  11.044  0.00  0.00    +0.000 NA
ATOM      9  C   UNL     1      50.010  10.647  10.803  0.00  0.00    +0.000 A 
ATOM     10  N   UNL     1      50.529   9.418  11.127  0.00  0.00    +0.000 N 
ATOM     11  C   UNL     1      49.775   8.407  11.682  0.00  0.00    +0.000 A 
ATOM     12  O   UNL     1      50.197   7.259  11.745  0.00  0.00    +0.000 OA
ATOM     13  C   UNL     1      48.450   8.828  12.096  0.00  0.00    +0.000 A 
ATOM     14  H   UNL     1      51.466   9.166  10.850  0.00  0.00    +0.000 HD
ENDBRANCH   2   4
BRANCH   1  16
ATOM     15  C   UNL     1      46.822   3.446  13.607  0.00  0.00    +0.000 C 
ATOM     16  C   UNL     1      46.784   4.726  14.430  0.00  0.00    +0.000 C 
ENDBRANCH   1  16
BRANCH   1  17
ATOM     17  C   UNL     1      45.294   6.194  13.002  0.00  0.00    +0.000 C 
BRANCH  17  18
ATOM     18  C   UNL     1      44.937   5.660  11.638  0.00  0.00    +0.000 A 
ATOM     19  C   UNL     1      45.763   5.954  10.542  0.00  0.00    +0.000 A 
ATOM     20  C   UNL     1      45.634   5.249   9.346  0.00  0.00    +0.000 A 
ATOM     21  C   UNL     1      44.671   4.241   9.217  0.00  0.00    +0.000 A 
ATOM     22  C   UNL     1      43.778   4.022  10.277  0.00  0.00    +0.000 A 
ATOM     23  C   UNL     1      43.905   4.729  11.477  0.00  0.00    +0.000 A 
BRANCH  21  24
ATOM     24  C   UNL     1      44.605   3.407   7.957  0.00  0.00    +0.000 C 
BRANCH  24  25
ATOM     25  N   UNL     1      45.770   3.648   7.096  0.00  0.00    +0.000 NA
ATOM     26  H   UNL     1      45.937   4.651   7.079  0.00  0.00    +0.000 HD
BRANCH  25  27
ATOM     27  C   UNL     1      46.962   2.992   7.597  0.00  0.00    +0.000 C 
ATOM     28  C   UNL     1      46.920   1.469   7.603  0.00  0.00    +0.000 C 
ATOM     29  C   UNL     1      47.066   1.106   6.139  0.00  0.00    +0.000 C 
ATOM     30  C   UNL     1      47.919   2.232   5.574  0.00  0.00    +0.000 C 
ATOM     31  N   UNL     1      48.008   3.256   6.623  0.00  0.00    +0.000 NA
ATOM     32  H   UNL     1      47.893   4.179   6.219  0.00  0.00    +0.000 HD
ENDBRANCH  25  27
ENDBRANCH  24  25
ENDBRANCH  21  24
ENDBRANCH  17  18
ENDBRANCH   1  17
TORSDOF 7
ENDMDL
MODEL 8
REMARK VINA RESULT:    -5.672      3.747      5.792
REMARK INTER + INTRA:          -9.493
REMARK INTER:                  -8.053
REMARK INTRA:                  -1.441
REMARK UNBOUND:                -1.500
REMARK  Name = 
REMARK  8 active torsions:
REMARK  status: ('A' for Active; 'I' for Inactive)
REMARK    1  A    between atoms: C_1  and  C_2
REMARK    2  A    between atoms: C_2  and  N_3
REMARK    3  A    between atoms: N_3  and  C_4
REMARK    4  A    between atoms: C_4  and  C_5
REMARK    5  A    between atoms: C_8  and  C_9
REMARK    6  A    between atoms: C_9  and  N_10
REMARK    7  A    between atoms: N_10  and  C_11
REMARK    8  A    between atoms: C_18  and  C_20
REMARK                            x       y       z     vdW  Elec       q    Type
REMARK                         _______ _______ _______ _____ _____    ______ ____
ROOT
ATOM      1  N   UNL     1      45.092   7.135  12.138  0.00  0.00    +0.000 N 
ATOM      2  C   UNL     1      43.999   6.464  11.554  0.00  0.00    +0.000 C 
ATOM      3  O   UNL     1      42.980   7.061  11.214  0.00  0.00    +0.000 OA
ENDROOT
BRANCH   2   4
ATOM      4  C   UNL     1      44.058   5.000  11.385  0.00  0.00    +0.000 A 
ATOM      5  C   UNL     1      43.361   4.084  12.162  0.00  0.00    +0.000 A 
ATOM      6  S   UNL     1      43.567   2.463  11.662  0.00  0.00    +0.000 S 
ATOM      7  C   UNL     1      44.466   2.945  10.305  0.00  0.00    +0.000 A 
ATOM      8  N   UNL     1      44.865   2.041   9.367  0.00  0.00    +0.000 NA
ATOM      9  C   UNL     1      45.474   2.566   8.353  0.00  0.00    +0.000 A 
ATOM     10  N   UNL     1      45.765   3.901   8.221  0.00  0.00    +0.000 N 
ATOM     11  C   UNL     1      45.506   4.828   9.208  0.00  0.00    +0.000 A 
ATOM     12  O   UNL     1      45.981   5.955   9.164  0.00  0.00    +0.000 OA
ATOM     13  C   UNL     1      44.701   4.308  10.298  0.00  0.00    +0.000 A 
ATOM     14  H   UNL     1      46.302   4.235   7.435  0.00  0.00    +0.000 HD
ENDBRANCH   2   4
BRANCH   1  16
ATOM     15  C   UNL     1      45.168   9.447  11.248  0.00  0.00    +0.000 C 
ATOM     16  C   UNL     1      44.907   8.552  12.452  0.00  0.00    +0.000 C 
ENDBRANCH   1  16
BRANCH   1  17
ATOM     17  C   UNL     1      46.288   6.434  12.597  0.00  0.00    +0.000 C 
BRANCH  17  18
ATOM     18  C   UNL     1      47.611   7.150  12.698  0.00  0.00    +0.000 A 
ATOM     19  C   UNL     1      48.226   7.291  13.952  0.00  0.00    +0.000 A 
ATOM     20  C   UNL     1      49.562   7.677  14.049  0.00  0.00    +0.000 A 
ATOM     21  C   UNL     1      50.310   7.939  12.894  0.00  0.00    +0.000 A 
ATOM     22  C   UNL     1      49.664   7.900  11.649  0.00  0.00    +0.000 A 
ATOM     23  C   UNL     1      48.323   7.514  11.551  0.00  0.00    +0.000 A 
BRANCH  21  24
ATOM     24  C   UNL     1      51.786   8.253  12.996  0.00  0.00    +0.000 C 
BRANCH  24  25
ATOM     25  N   UNL     1      52.214   9.161  11.925  0.00  0.00    +0.000 NA
ATOM     26  H   UNL     1      52.378  10.074  12.343  0.00  0.00    +0.000 HD
BRANCH  25  27
ATOM     27  C   UNL     1      53.443   8.718  11.295  0.00  0.00    +0.000 C 
ATOM     28  C   UNL     1      53.389   7.340  10.649  0.00  0.00    +0.000 C 
ATOM     29  C   UNL     1      52.568   7.569   9.396  0.00  0.00    +0.000 C 
ATOM     30  C   UNL     1      52.889   9.007   9.016  0.00  0.00    +0.000 C 
ATOM     31  N   UNL     1      53.639   9.580  10.141  0.00  0.00    +0.000 NA
ATOM     32  H   UNL     1      53.310  10.518  10.338  0.00  0.00    +0.000 HD
ENDBRANCH  25  27
ENDBRANCH  24  25
ENDBRANCH  21  24
ENDBRANCH  17  18
ENDBRANCH   1  17
TORSDOF 7
ENDMDL
MODEL 9
REMARK VINA RESULT:    -5.577      3.592      7.849
REMARK INTER + INTRA:          -9.359
REMARK INTER:                  -7.677
REMARK INTRA:                  -1.683
REMARK UNBOUND:                -1.500
REMARK  Name = 
REMARK  8 active torsions:
REMARK  status: ('A' for Active; 'I' for Inactive)
REMARK    1  A    between atoms: C_1  and  C_2
REMARK    2  A    between atoms: C_2  and  N_3
REMARK    3  A    between atoms: N_3  and  C_4
REMARK    4  A    between atoms: C_4  and  C_5
REMARK    5  A    between atoms: C_8  and  C_9
REMARK    6  A    between atoms: C_9  and  N_10
REMARK    7  A    between atoms: N_10  and  C_11
REMARK    8  A    between atoms: C_18  and  C_20
REMARK                            x       y       z     vdW  Elec       q    Type
REMARK                         _______ _______ _______ _____ _____    ______ ____
ROOT
ATOM      1  N   UNL     1      48.597   7.561  18.617  0.00  0.00    +0.000 N 
ATOM      2  C   UNL     1      47.897   6.383  18.942  0.00  0.00    +0.000 C 
ATOM      3  O   UNL     1      47.114   6.336  19.889  0.00  0.00    +0.000 OA
ENDROOT
BRANCH   2   4
ATOM      4  C   UNL     1      48.140   5.158  18.157  0.00  0.00    +0.000 A 
ATOM      5  C   UNL     1      47.319   4.694  17.139  0.00  0.00    +0.000 A 
ATOM      6  S   UNL     1      47.916   3.296  16.358  0.00  0.00    +0.000 S 
ATOM      7  C   UNL     1      49.360   3.357  17.249  0.00  0.00    +0.000 A 
ATOM      8  N   UNL     1      50.385   2.497  16.990  0.00  0.00    +0.000 NA
ATOM      9  C   UNL     1      51.447   2.714  17.697  0.00  0.00    +0.000 A 
ATOM     10  N   UNL     1      51.556   3.674  18.671  0.00  0.00    +0.000 N 
ATOM     11  C   UNL     1      50.501   4.470  19.062  0.00  0.00    +0.000 A 
ATOM     12  O   UNL     1      50.557   5.148  20.081  0.00  0.00    +0.000 OA
ATOM     13  C   UNL     1      49.336   4.357  18.204  0.00  0.00    +0.000 A 
ATOM     14  H   UNL     1      52.391   3.747  19.231  0.00  0.00    +0.000 HD
ENDBRANCH   2   4
BRANCH   1  16
ATOM     15  C   UNL     1      47.354   9.646  19.117  0.00  0.00    +0.000 C 
ATOM     16  C   UNL     1      48.460   8.689  19.539  0.00  0.00    +0.000 C 
ENDBRANCH   1  16
BRANCH   1  17
ATOM     17  C   UNL     1      49.570   7.620  17.529  0.00  0.00    +0.000 C 
BRANCH  17  18
ATOM     18  C   UNL     1      49.123   7.819  16.104  0.00  0.00    +0.000 A 
ATOM     19  C   UNL     1      49.492   6.880  15.126  0.00  0.00    +0.000 A 
ATOM     20  C   UNL     1      48.865   6.868  13.881  0.00  0.00    +0.000 A 
ATOM     21  C   UNL     1      47.863   7.799  13.583  0.00  0.00    +0.000 A 
ATOM     22  C   UNL     1      47.572   8.801  14.521  0.00  0.00    +0.000 A 
ATOM     23  C   UNL     1      48.201   8.815  15.770  0.00  0.00    +0.000 A 
BRANCH  21  24
ATOM     24  C   UNL     1      47.111   7.716  12.273  0.00  0.00    +0.000 C 
BRANCH  24  25
ATOM     25  N   UNL     1      46.583   6.365  12.045  0.00  0.00    +0.000 NA
ATOM     26  H   UNL     1      47.362   5.715  12.116  0.00  0.00    +0.000 HD
BRANCH  25  27
ATOM     27  C   UNL     1      45.586   5.998  13.031  0.00  0.00    +0.000 C 
ATOM     28  C   UNL     1      44.162   5.868  12.508  0.00  0.00    +0.000 C 
ATOM     29  C   UNL     1      44.189   4.570  11.727  0.00  0.00    +0.000 C 
ATOM     30  C   UNL     1      45.227   3.733  12.459  0.00  0.00    +0.000 C 
ATOM     31  N   UNL     1      45.886   4.629  13.418  0.00  0.00    +0.000 NA
ATOM     32  H   UNL     1      46.887   4.469  13.412  0.00  0.00    +0.000 HD
ENDBRANCH  25  27
ENDBRANCH  24  25
ENDBRANCH  21  24
ENDBRANCH  17  18
ENDBRANCH   1  17
TORSDOF 7
ENDMDL
