MODEL 1
REMARK VINA RESULT:    -8.943      0.000      0.000
REMARK INTER + INTRA:         -13.238
REMARK INTER:                 -12.080
REMARK INTRA:                  -1.158
REMARK UNBOUND:                -1.158
REMARK  Name = 
REMARK  10 active torsions:
REMARK  status: ('A' for Active; 'I' for Inactive)
REMARK    1  A    between atoms: C_1  and  C_2
REMARK    2  A    between atoms: C_2  and  C_3
REMARK    3  A    between atoms: C_2  and  C_4
REMARK    4  A    between atoms: C_2  and  C_16
REMARK    5  A    between atoms: C_4  and  N_5
REMARK    6  A    between atoms: N_5  and  C_6
REMARK    7  A    between atoms: C_9  and  C_10
REMARK    8  A    between atoms: N_21  and  C_22
REMARK    9  A    between atoms: C_24  and  C_25
REMARK   10  A    between atoms: C_24  and  C_26
REMARK                            x       y       z     vdW  Elec       q    Type
REMARK                         _______ _______ _______ _____ _____    ______ ____
ROOT
ATOM      1  C   UNL     1      42.900   5.467  13.033  0.00  0.00    +0.000 C 
ATOM      2  C   UNL     1      44.011   4.727  12.254  0.00  0.00    +0.000 C 
ATOM      3  C   UNL     1      43.977   3.243  12.691  0.00  0.00    +0.000 C 
ENDROOT
BRANCH   2   4
ATOM      4  C   UNL     1      45.420   5.286  12.544  0.00  0.00    +0.000 A 
ATOM      5  C   UNL     1      46.193   5.982  11.612  0.00  0.00    +0.000 A 
ATOM      6  C   UNL     1      47.431   6.473  12.001  0.00  0.00    +0.000 A 
ATOM      7  N   UNL     1      47.959   6.316  13.236  0.00  0.00    +0.000 NA
ATOM      8  C   UNL     1      47.234   5.630  14.135  0.00  0.00    +0.000 A 
ATOM      9  N   UNL     1      47.780   5.487  15.416  0.00  0.00    +0.000 N 
ATOM     10  C   UNL     1      45.982   5.115  13.823  0.00  0.00    +0.000 A 
ATOM     11  H   UNL     1      48.720   5.877  15.398  0.00  0.00    +0.000 HD
BRANCH   9  12
ATOM     12  C   UNL     1      47.490   4.332  16.264  0.00  0.00    +0.000 C 
ATOM     13  C   UNL     1      48.130   3.013  15.924  0.00  0.00    +0.000 C 
ATOM     14  C   UNL     1      48.522   3.721  17.198  0.00  0.00    +0.000 C 
ATOM     15  C   UNL     1      49.882   4.366  17.284  0.00  0.00    +0.000 C 
ATOM     16  C   UNL     1      48.077   3.075  18.484  0.00  0.00    +0.000 C 
ENDBRANCH   9  12
ENDBRANCH   2   4
BRANCH   2  17
ATOM     17  C   UNL     1      43.747   4.845  10.719  0.00  0.00    +0.000 C 
BRANCH  17  18
ATOM     18  N   UNL     1      43.691   3.543  10.043  0.00  0.00    +0.000 N 
ATOM     19  H   UNL     1      42.769   3.337   9.666  0.00  0.00    +0.000 HD
BRANCH  18  20
ATOM     20  C   UNL     1      44.687   3.253   9.101  0.00  0.00    +0.000 A 
ATOM     21  C   UNL     1      45.357   4.238   8.360  0.00  0.00    +0.000 A 
ATOM     22  C   UNL     1      46.376   3.905   7.463  0.00  0.00    +0.000 A 
ATOM     23  C   UNL     1      46.775   2.575   7.308  0.00  0.00    +0.000 A 
ATOM     24  C   UNL     1      46.152   1.599   8.083  0.00  0.00    +0.000 A 
ATOM     25  F   UNL     1      46.506   0.307   7.993  0.00  0.00    +0.000 F 
ATOM     26  C   UNL     1      45.135   1.932   8.981  0.00  0.00    +0.000 A 
BRANCH  23  27
ATOM     27  C   UNL     1      47.849   2.275   6.329  0.00  0.00    +0.000 C 
ATOM     28  N   UNL     1      47.838   2.942   5.139  0.00  0.00    +0.000 N 
ATOM     29  O   UNL     1      48.727   1.458   6.576  0.00  0.00    +0.000 OA
ATOM     30  H   UNL     1      47.128   3.620   4.894  0.00  0.00    +0.000 HD
ATOM     31  H   UNL     1      48.569   2.736   4.473  0.00  0.00    +0.000 HD
ENDBRANCH  23  27
ENDBRANCH  18  20
ENDBRANCH  17  18
ENDBRANCH   2  17
TORSDOF 6
ENDMDL
MODEL 2
REMARK VINA RESULT:    -8.350      2.387      2.842
REMARK INTER + INTRA:         -12.437
REMARK INTER:                 -11.662
REMARK INTRA:                  -0.775
REMARK UNBOUND:                -1.158
REMARK  Name = 
REMARK  10 active torsions:
REMARK  status: ('A' for Active; 'I' for Inactive)
REMARK    1  A    between atoms: C_1  and  C_2
REMARK    2  A    between atoms: C_2  and  C_3
REMARK    3  A    between atoms: C_2  and  C_4
REMARK    4  A    between atoms: C_2  and  C_16
REMARK    5  A    between atoms: C_4  and  N_5
REMARK    6  A    between atoms: N_5  and  C_6
REMARK    7  A    between atoms: C_9  and  C_10
REMARK    8  A    between atoms: N_21  and  C_22
REMARK    9  A    between atoms: C_24  and  C_25
REMARK   10  A    between atoms: C_24  and  C_26
REMARK                            x       y       z     vdW  Elec       q    Type
REMARK                         _______ _______ _______ _____ _____    ______ ____
ROOT
ATOM      1  C   UNL     1      43.015   4.877  13.146  0.00  0.00    +0.000 C 
ATOM      2  C   UNL     1      44.125   5.120  12.098  0.00  0.00    +0.000 C 
ATOM      3  C   UNL     1      45.320   4.207  12.465  0.00  0.00    +0.000 C 
ENDROOT
BRANCH   2   4
ATOM      4  C   UNL     1      44.620   6.582  12.077  0.00  0.00    +0.000 A 
ATOM      5  C   UNL     1      44.087   7.576  11.254  0.00  0.00    +0.000 A 
ATOM      6  C   UNL     1      44.588   8.867  11.353  0.00  0.00    +0.000 A 
ATOM      7  N   UNL     1      45.579   9.237  12.195  0.00  0.00    +0.000 NA
ATOM      8  C   UNL     1      46.113   8.284  12.977  0.00  0.00    +0.000 A 
ATOM      9  N   UNL     1      47.126   8.680  13.859  0.00  0.00    +0.000 N 
ATOM     10  C   UNL     1      45.659   6.971  12.942  0.00  0.00    +0.000 A 
ATOM     11  H   UNL     1      47.341   9.656  13.668  0.00  0.00    +0.000 HD
BRANCH   9  12
ATOM     12  C   UNL     1      48.191   7.772  14.283  0.00  0.00    +0.000 C 
ATOM     13  C   UNL     1      49.085   7.174  13.230  0.00  0.00    +0.000 C 
ATOM     14  C   UNL     1      49.662   8.152  14.226  0.00  0.00    +0.000 C 
ATOM     15  C   UNL     1      50.028   9.537  13.758  0.00  0.00    +0.000 C 
ATOM     16  C   UNL     1      50.621   7.583  15.240  0.00  0.00    +0.000 C 
ENDBRANCH   9  12
ENDBRANCH   2   4
BRANCH   2  17
ATOM     17  C   UNL     1      43.592   4.767  10.673  0.00  0.00    +0.000 C 
BRANCH  17  18
ATOM     18  N   UNL     1      43.850   3.372  10.292  0.00  0.00    +0.000 N 
ATOM     19  H   UNL     1      42.995   2.842  10.141  0.00  0.00    +0.000 HD
BRANCH  18  20
ATOM     20  C   UNL     1      44.766   3.138   9.256  0.00  0.00    +0.000 A 
ATOM     21  C   UNL     1      45.340   4.162   8.489  0.00  0.00    +0.000 A 
ATOM     22  C   UNL     1      46.284   3.884   7.496  0.00  0.00    +0.000 A 
ATOM     23  C   UNL     1      46.702   2.571   7.265  0.00  0.00    +0.000 A 
ATOM     24  C   UNL     1      46.176   1.556   8.064  0.00  0.00    +0.000 A 
ATOM     25  F   UNL     1      46.555   0.278   7.903  0.00  0.00    +0.000 F 
ATOM     26  C   UNL     1      45.236   1.834   9.057  0.00  0.00    +0.000 A 
BRANCH  23  27
ATOM     27  C   UNL     1      47.691   2.329   6.186  0.00  0.00    +0.000 C 
ATOM     28  N   UNL     1      47.677   3.160   5.105  0.00  0.00    +0.000 N 
ATOM     29  O   UNL     1      48.504   1.416   6.259  0.00  0.00    +0.000 OA
ATOM     30  H   UNL     1      47.019   3.922   5.004  0.00  0.00    +0.000 HD
ATOM     31  H   UNL     1      48.351   2.994   4.370  0.00  0.00    +0.000 HD
ENDBRANCH  23  27
ENDBRANCH  18  20
ENDBRANCH  17  18
ENDBRANCH   2  17
TORSDOF 6
ENDMDL
MODEL 3
REMARK VINA RESULT:    -7.879      2.860      5.172
REMARK INTER + INTRA:         -11.801
REMARK INTER:                 -11.393
REMARK INTRA:                  -0.408
REMARK UNBOUND:                -1.158
REMARK  Name = 
REMARK  10 active torsions:
REMARK  status: ('A' for Active; 'I' for Inactive)
REMARK    1  A    between atoms: C_1  and  C_2
REMARK    2  A    between atoms: C_2  and  C_3
REMARK    3  A    between atoms: C_2  and  C_4
REMARK    4  A    between atoms: C_2  and  C_16
REMARK    5  A    between atoms: C_4  and  N_5
REMARK    6  A    between atoms: N_5  and  C_6
REMARK    7  A    between atoms: C_9  and  C_10
REMARK    8  A    between atoms: N_21  and  C_22
REMARK    9  A    between atoms: C_24  and  C_25
REMARK   10  A    between atoms: C_24  and  C_26
REMARK                            x       y       z     vdW  Elec       q    Type
REMARK                         _______ _______ _______ _____ _____    ______ ____
ROOT
ATOM      1  C   UNL     1      43.120   4.722  13.489  0.00  0.00    +0.000 C 
ATOM      2  C   UNL     1      44.116   4.600  12.313  0.00  0.00    +0.000 C 
ATOM      3  C   UNL     1      44.978   3.339  12.560  0.00  0.00    +0.000 C 
ENDROOT
BRANCH   2   4
ATOM      4  C   UNL     1      45.058   5.818  12.196  0.00  0.00    +0.000 A 
ATOM      5  C   UNL     1      46.426   5.777  12.471  0.00  0.00    +0.000 A 
ATOM      6  C   UNL     1      47.179   6.929  12.291  0.00  0.00    +0.000 A 
ATOM      7  N   UNL     1      46.676   8.111  11.872  0.00  0.00    +0.000 NA
ATOM      8  C   UNL     1      45.356   8.168  11.624  0.00  0.00    +0.000 A 
ATOM      9  N   UNL     1      44.846   9.390  11.173  0.00  0.00    +0.000 N 
ATOM     10  C   UNL     1      44.538   7.055  11.773  0.00  0.00    +0.000 A 
ATOM     11  H   UNL     1      45.601  10.073  11.205  0.00  0.00    +0.000 HD
BRANCH   9  12
ATOM     12  C   UNL     1      43.474   9.814  11.450  0.00  0.00    +0.000 C 
ATOM     13  C   UNL     1      43.201  11.281  11.643  0.00  0.00    +0.000 C 
ATOM     14  C   UNL     1      42.631  10.573  10.438  0.00  0.00    +0.000 C 
ATOM     15  C   UNL     1      43.220  10.855   9.081  0.00  0.00    +0.000 C 
ATOM     16  C   UNL     1      41.136  10.385  10.421  0.00  0.00    +0.000 C 
ENDBRANCH   9  12
ENDBRANCH   2   4
BRANCH   2  17
ATOM     17  C   UNL     1      43.330   4.463  10.969  0.00  0.00    +0.000 C 
BRANCH  17  18
ATOM     18  N   UNL     1      44.033   5.063   9.828  0.00  0.00    +0.000 N 
ATOM     19  H   UNL     1      44.525   5.918  10.077  0.00  0.00    +0.000 HD
BRANCH  18  20
ATOM     20  C   UNL     1      44.850   4.229   9.053  0.00  0.00    +0.000 A 
ATOM     21  C   UNL     1      45.881   4.707   8.231  0.00  0.00    +0.000 A 
ATOM     22  C   UNL     1      46.701   3.834   7.511  0.00  0.00    +0.000 A 
ATOM     23  C   UNL     1      46.529   2.452   7.619  0.00  0.00    +0.000 A 
ATOM     24  C   UNL     1      45.543   1.969   8.478  0.00  0.00    +0.000 A 
ATOM     25  F   UNL     1      45.344   0.651   8.639  0.00  0.00    +0.000 F 
ATOM     26  C   UNL     1      44.726   2.843   9.200  0.00  0.00    +0.000 A 
BRANCH  23  27
ATOM     27  C   UNL     1      47.414   1.570   6.817  0.00  0.00    +0.000 C 
ATOM     28  N   UNL     1      48.585   2.090   6.350  0.00  0.00    +0.000 N 
ATOM     29  O   UNL     1      47.111   0.406   6.582  0.00  0.00    +0.000 OA
ATOM     30  H   UNL     1      48.869   3.047   6.517  0.00  0.00    +0.000 HD
ATOM     31  H   UNL     1      49.185   1.488   5.803  0.00  0.00    +0.000 HD
ENDBRANCH  23  27
ENDBRANCH  18  20
ENDBRANCH  17  18
ENDBRANCH   2  17
TORSDOF 6
ENDMDL
MODEL 4
REMARK VINA RESULT:    -7.556      3.441      8.271
REMARK INTER + INTRA:         -11.365
REMARK INTER:                 -10.771
REMARK INTRA:                  -0.594
REMARK UNBOUND:                -1.158
REMARK  Name = 
REMARK  10 active torsions:
REMARK  status: ('A' for Active; 'I' for Inactive)
REMARK    1  A    between atoms: C_1  and  C_2
REMARK    2  A    between atoms: C_2  and  C_3
REMARK    3  A    between atoms: C_2  and  C_4
REMARK    4  A    between atoms: C_2  and  C_16
REMARK    5  A    between atoms: C_4  and  N_5
REMARK    6  A    between atoms: N_5  and  C_6
REMARK    7  A    between atoms: C_9  and  C_10
REMARK    8  A    between atoms: N_21  and  C_22
REMARK    9  A    between atoms: C_24  and  C_25
REMARK   10  A    between atoms: C_24  and  C_26
REMARK                            x       y       z     vdW  Elec       q    Type
REMARK                         _______ _______ _______ _____ _____    ______ ____
ROOT
ATOM      1  C   UNL     1      44.556   7.617  11.368  0.00  0.00    +0.000 C 
ATOM      2  C   UNL     1      45.477   6.449  11.790  0.00  0.00    +0.000 C 
ATOM      3  C   UNL     1      46.825   6.628  11.051  0.00  0.00    +0.000 C 
ENDROOT
BRANCH   2   4
ATOM      4  C   UNL     1      44.899   5.066  11.420  0.00  0.00    +0.000 A 
ATOM      5  C   UNL     1      44.376   4.163  12.348  0.00  0.00    +0.000 A 
ATOM      6  C   UNL     1      43.847   2.965  11.890  0.00  0.00    +0.000 A 
ATOM      7  N   UNL     1      43.808   2.595  10.590  0.00  0.00    +0.000 NA
ATOM      8  C   UNL     1      44.327   3.448   9.691  0.00  0.00    +0.000 A 
ATOM      9  N   UNL     1      44.267   3.066   8.346  0.00  0.00    +0.000 N 
ATOM     10  C   UNL     1      44.868   4.670  10.071  0.00  0.00    +0.000 A 
ATOM     11  H   UNL     1      43.899   2.117   8.307  0.00  0.00    +0.000 HD
BRANCH   9  12
ATOM     12  C   UNL     1      45.264   3.497   7.366  0.00  0.00    +0.000 C 
ATOM     13  C   UNL     1      46.616   3.932   7.863  0.00  0.00    +0.000 C 
ATOM     14  C   UNL     1      46.499   2.673   7.037  0.00  0.00    +0.000 C 
ATOM     15  C   UNL     1      46.673   1.339   7.716  0.00  0.00    +0.000 C 
ATOM     16  C   UNL     1      47.086   2.728   5.651  0.00  0.00    +0.000 C 
ENDBRANCH   9  12
ENDBRANCH   2   4
BRANCH   2  17
ATOM     17  C   UNL     1      45.699   6.485  13.337  0.00  0.00    +0.000 C 
BRANCH  17  18
ATOM     18  N   UNL     1      47.118   6.520  13.713  0.00  0.00    +0.000 N 
ATOM     19  H   UNL     1      47.469   7.467  13.832  0.00  0.00    +0.000 HD
BRANCH  18  20
ATOM     20  C   UNL     1      47.532   5.702  14.773  0.00  0.00    +0.000 A 
ATOM     21  C   UNL     1      47.148   4.359  14.906  0.00  0.00    +0.000 A 
ATOM     22  C   UNL     1      47.622   3.568  15.956  0.00  0.00    +0.000 A 
ATOM     23  C   UNL     1      48.521   4.094  16.888  0.00  0.00    +0.000 A 
ATOM     24  C   UNL     1      48.949   5.411  16.728  0.00  0.00    +0.000 A 
ATOM     25  F   UNL     1      49.828   5.965  17.579  0.00  0.00    +0.000 F 
ATOM     26  C   UNL     1      48.478   6.200  15.677  0.00  0.00    +0.000 A 
BRANCH  23  27
ATOM     27  C   UNL     1      48.977   3.217  17.994  0.00  0.00    +0.000 C 
ATOM     28  N   UNL     1      48.327   3.301  19.190  0.00  0.00    +0.000 N 
ATOM     29  O   UNL     1      49.906   2.433  17.845  0.00  0.00    +0.000 OA
ATOM     30  H   UNL     1      47.559   3.940  19.357  0.00  0.00    +0.000 HD
ATOM     31  H   UNL     1      48.640   2.705  19.943  0.00  0.00    +0.000 HD
ENDBRANCH  23  27
ENDBRANCH  18  20
ENDBRANCH  17  18
ENDBRANCH   2  17
TORSDOF 6
ENDMDL
MODEL 5
REMARK VINA RESULT:    -7.402      3.519      8.386
REMARK INTER + INTRA:         -11.156
REMARK INTER:                 -10.702
REMARK INTRA:                  -0.455
REMARK UNBOUND:                -1.158
REMARK  Name = 
REMARK  10 active torsions:
REMARK  status: ('A' for Active; 'I' for Inactive)
REMARK    1  A    between atoms: C_1  and  C_2
REMARK    2  A    between atoms: C_2  and  C_3
REMARK    3  A    between atoms: C_2  and  C_4
REMARK    4  A    between atoms: C_2  and  C_16
REMARK    5  A    between atoms: C_4  and  N_5
REMARK    6  A    between atoms: N_5  and  C_6
REMARK    7  A    between atoms: C_9  and  C_10
REMARK    8  A    between atoms: N_21  and  C_22
REMARK    9  A    between atoms: C_24  and  C_25
REMARK   10  A    between atoms: C_24  and  C_26
REMARK                            x       y       z     vdW  Elec       q    Type
REMARK                         _______ _______ _______ _____ _____    ______ ____
ROOT
ATOM      1  C   UNL     1      44.511   7.538  11.505  0.00  0.00    +0.000 C 
ATOM      2  C   UNL     1      45.501   6.374  11.739  0.00  0.00    +0.000 C 
ATOM      3  C   UNL     1      46.745   6.635  10.856  0.00  0.00    +0.000 C 
ENDROOT
BRANCH   2   4
ATOM      4  C   UNL     1      44.912   5.000  11.356  0.00  0.00    +0.000 A 
ATOM      5  C   UNL     1      44.378   4.094  12.274  0.00  0.00    +0.000 A 
ATOM      6  C   UNL     1      43.839   2.904  11.805  0.00  0.00    +0.000 A 
ATOM      7  N   UNL     1      43.801   2.546  10.502  0.00  0.00    +0.000 NA
ATOM      8  C   UNL     1      44.330   3.401   9.611  0.00  0.00    +0.000 A 
ATOM      9  N   UNL     1      44.270   3.031   8.263  0.00  0.00    +0.000 N 
ATOM     10  C   UNL     1      44.881   4.616  10.003  0.00  0.00    +0.000 A 
ATOM     11  H   UNL     1      43.894   2.086   8.215  0.00  0.00    +0.000 HD
BRANCH   9  12
ATOM     12  C   UNL     1      45.274   3.461   7.290  0.00  0.00    +0.000 C 
ATOM     13  C   UNL     1      46.617   3.913   7.796  0.00  0.00    +0.000 C 
ATOM     14  C   UNL     1      46.519   2.645   6.982  0.00  0.00    +0.000 C 
ATOM     15  C   UNL     1      46.697   1.319   7.674  0.00  0.00    +0.000 C 
ATOM     16  C   UNL     1      47.121   2.692   5.601  0.00  0.00    +0.000 C 
ENDBRANCH   9  12
ENDBRANCH   2   4
BRANCH   2  17
ATOM     17  C   UNL     1      45.909   6.325  13.247  0.00  0.00    +0.000 C 
BRANCH  17  18
ATOM     18  N   UNL     1      47.339   6.056  13.447  0.00  0.00    +0.000 N 
ATOM     19  H   UNL     1      47.931   6.800  13.086  0.00  0.00    +0.000 HD
BRANCH  18  20
ATOM     20  C   UNL     1      47.757   5.668  14.727  0.00  0.00    +0.000 A 
ATOM     21  C   UNL     1      48.659   6.412  15.502  0.00  0.00    +0.000 A 
ATOM     22  C   UNL     1      49.012   6.008  16.793  0.00  0.00    +0.000 A 
ATOM     23  C   UNL     1      48.446   4.861  17.355  0.00  0.00    +0.000 A 
ATOM     24  C   UNL     1      47.507   4.150  16.611  0.00  0.00    +0.000 A 
ATOM     25  F   UNL     1      46.913   3.052  17.105  0.00  0.00    +0.000 F 
ATOM     26  C   UNL     1      47.152   4.555  15.322  0.00  0.00    +0.000 A 
BRANCH  23  27
ATOM     27  C   UNL     1      48.871   4.467  18.721  0.00  0.00    +0.000 C 
ATOM     28  N   UNL     1      49.946   3.637  18.845  0.00  0.00    +0.000 N 
ATOM     29  O   UNL     1      48.283   4.876  19.715  0.00  0.00    +0.000 OA
ATOM     30  H   UNL     1      50.455   3.272  18.049  0.00  0.00    +0.000 HD
ATOM     31  H   UNL     1      50.233   3.368  19.776  0.00  0.00    +0.000 HD
ENDBRANCH  23  27
ENDBRANCH  18  20
ENDBRANCH  17  18
ENDBRANCH   2  17
TORSDOF 6
ENDMDL
MODEL 6
REMARK VINA RESULT:    -6.549      3.230      5.078
REMARK INTER + INTRA:         -10.005
REMARK INTER:                  -9.004
REMARK INTRA:                  -1.000
REMARK UNBOUND:                -1.158
REMARK  Name = 
REMARK  10 active torsions:
REMARK  status: ('A' for Active; 'I' for Inactive)
REMARK    1  A    between atoms: C_1  and  C_2
REMARK    2  A    between atoms: C_2  and  C_3
REMARK    3  A    between atoms: C_2  and  C_4
REMARK    4  A    between atoms: C_2  and  C_16
REMARK    5  A    between atoms: C_4  and  N_5
REMARK    6  A    between atoms: N_5  and  C_6
REMARK    7  A    between atoms: C_9  and  C_10
REMARK    8  A    between atoms: N_21  and  C_22
REMARK    9  A    between atoms: C_24  and  C_25
REMARK   10  A    between atoms: C_24  and  C_26
REMARK                            x       y       z     vdW  Elec       q    Type
REMARK                         _______ _______ _______ _____ _____    ______ ____
ROOT
ATOM      1  C   UNL     1      48.714   7.573  11.790  0.00  0.00    +0.000 C 
ATOM      2  C   UNL     1      48.158   8.894  12.369  0.00  0.00    +0.000 C 
ATOM      3  C   UNL     1      48.768  10.056  11.549  0.00  0.00    +0.000 C 
ENDROOT
BRANCH   2   4
ATOM      4  C   UNL     1      48.529   9.100  13.854  0.00  0.00    +0.000 A 
ATOM      5  C   UNL     1      48.928  10.322  14.398  0.00  0.00    +0.000 A 
ATOM      6  C   UNL     1      49.198  10.393  15.757  0.00  0.00    +0.000 A 
ATOM      7  N   UNL     1      49.111   9.346  16.608  0.00  0.00    +0.000 NA
ATOM      8  C   UNL     1      48.747   8.160  16.091  0.00  0.00    +0.000 A 
ATOM      9  N   UNL     1      48.642   7.085  16.981  0.00  0.00    +0.000 N 
ATOM     10  C   UNL     1      48.453   8.011  14.741  0.00  0.00    +0.000 A 
ATOM     11  H   UNL     1      48.966   7.403  17.893  0.00  0.00    +0.000 HD
BRANCH   9  12
ATOM     12  C   UNL     1      48.881   5.703  16.568  0.00  0.00    +0.000 C 
ATOM     13  C   UNL     1      49.556   4.771  17.538  0.00  0.00    +0.000 C 
ATOM     14  C   UNL     1      48.116   4.528  17.156  0.00  0.00    +0.000 C 
ATOM     15  C   UNL     1      47.036   4.809  18.168  0.00  0.00    +0.000 C 
ATOM     16  C   UNL     1      47.847   3.312  16.307  0.00  0.00    +0.000 C 
ENDBRANCH   9  12
ENDBRANCH   2   4
BRANCH   2  17
ATOM     17  C   UNL     1      46.600   8.907  12.251  0.00  0.00    +0.000 C 
BRANCH  17  18
ATOM     18  N   UNL     1      45.945   7.987  13.188  0.00  0.00    +0.000 N 
ATOM     19  H   UNL     1      45.249   8.449  13.769  0.00  0.00    +0.000 HD
BRANCH  18  20
ATOM     20  C   UNL     1      45.441   6.783  12.676  0.00  0.00    +0.000 A 
ATOM     21  C   UNL     1      44.490   6.722  11.646  0.00  0.00    +0.000 A 
ATOM     22  C   UNL     1      44.050   5.497  11.136  0.00  0.00    +0.000 A 
ATOM     23  C   UNL     1      44.575   4.298  11.624  0.00  0.00    +0.000 A 
ATOM     24  C   UNL     1      45.561   4.355  12.607  0.00  0.00    +0.000 A 
ATOM     25  F   UNL     1      46.118   3.237  13.101  0.00  0.00    +0.000 F 
ATOM     26  C   UNL     1      46.003   5.579  13.115  0.00  0.00    +0.000 A 
BRANCH  23  27
ATOM     27  C   UNL     1      44.058   3.026  11.061  0.00  0.00    +0.000 C 
ATOM     28  N   UNL     1      44.815   2.385  10.124  0.00  0.00    +0.000 N 
ATOM     29  O   UNL     1      42.988   2.555  11.425  0.00  0.00    +0.000 OA
ATOM     30  H   UNL     1      45.701   2.743   9.792  0.00  0.00    +0.000 HD
ATOM     31  H   UNL     1      44.461   1.519   9.740  0.00  0.00    +0.000 HD
ENDBRANCH  23  27
ENDBRANCH  18  20
ENDBRANCH  17  18
ENDBRANCH   2  17
TORSDOF 6
ENDMDL
MODEL 7
REMARK VINA RESULT:    -6.493      4.308      7.939
REMARK INTER + INTRA:          -9.928
REMARK INTER:                  -8.827
REMARK INTRA:                  -1.101
REMARK UNBOUND:                -1.158
REMARK  Name = 
REMARK  10 active torsions:
REMARK  status: ('A' for Active; 'I' for Inactive)
REMARK    1  A    between atoms: C_1  and  C_2
REMARK    2  A    between atoms: C_2  and  C_3
REMARK    3  A    between atoms: C_2  and  C_4
REMARK    4  A    between atoms: C_2  and  C_16
REMARK    5  A    between atoms: C_4  and  N_5
REMARK    6  A    between atoms: N_5  and  C_6
REMARK    7  A    between atoms: C_9  and  C_10
REMARK    8  A    between atoms: N_21  and  C_22
REMARK    9  A    between atoms: C_24  and  C_25
REMARK   10  A    between atoms: C_24  and  C_26
REMARK                            x       y       z     vdW  Elec       q    Type
REMARK                         _______ _______ _______ _____ _____    ______ ____
ROOT
ATOM      1  C   UNL     1      49.432  10.163  11.714  0.00  0.00    +0.000 C 
ATOM      2  C   UNL     1      48.579   9.010  12.289  0.00  0.00    +0.000 C 
ATOM      3  C   UNL     1      49.010   7.708  11.573  0.00  0.00    +0.000 C 
ENDROOT
BRANCH   2   4
ATOM      4  C   UNL     1      47.065   9.212  12.060  0.00  0.00    +0.000 A 
ATOM      5  C   UNL     1      46.463  10.456  11.868  0.00  0.00    +0.000 A 
ATOM      6  C   UNL     1      45.096  10.509  11.631  0.00  0.00    +0.000 A 
ATOM      7  N   UNL     1      44.289   9.426  11.581  0.00  0.00    +0.000 NA
ATOM      8  C   UNL     1      44.855   8.224  11.786  0.00  0.00    +0.000 A 
ATOM      9  N   UNL     1      44.015   7.107  11.715  0.00  0.00    +0.000 N 
ATOM     10  C   UNL     1      46.217   8.090  12.021  0.00  0.00    +0.000 A 
ATOM     11  H   UNL     1      43.060   7.441  11.603  0.00  0.00    +0.000 HD
BRANCH   9  12
ATOM     12  C   UNL     1      44.271   5.888  12.482  0.00  0.00    +0.000 C 
ATOM     13  C   UNL     1      43.128   4.941  12.727  0.00  0.00    +0.000 C 
ATOM     14  C   UNL     1      44.275   4.506  11.847  0.00  0.00    +0.000 C 
ATOM     15  C   UNL     1      44.054   4.399  10.361  0.00  0.00    +0.000 C 
ATOM     16  C   UNL     1      45.172   3.431  12.405  0.00  0.00    +0.000 C 
ENDBRANCH   9  12
ENDBRANCH   2   4
BRANCH   2  17
ATOM     17  C   UNL     1      48.825   8.888  13.828  0.00  0.00    +0.000 C 
BRANCH  17  18
ATOM     18  N   UNL     1      49.645   7.725  14.188  0.00  0.00    +0.000 N 
ATOM     19  H   UNL     1      50.559   7.986  14.550  0.00  0.00    +0.000 HD
BRANCH  18  20
ATOM     20  C   UNL     1      49.059   6.738  14.992  0.00  0.00    +0.000 A 
ATOM     21  C   UNL     1      48.009   5.915  14.560  0.00  0.00    +0.000 A 
ATOM     22  C   UNL     1      47.485   4.913  15.382  0.00  0.00    +0.000 A 
ATOM     23  C   UNL     1      48.022   4.687  16.652  0.00  0.00    +0.000 A 
ATOM     24  C   UNL     1      49.103   5.464  17.064  0.00  0.00    +0.000 A 
ATOM     25  F   UNL     1      49.675   5.280  18.265  0.00  0.00    +0.000 F 
ATOM     26  C   UNL     1      49.628   6.463  16.241  0.00  0.00    +0.000 A 
BRANCH  23  27
ATOM     27  C   UNL     1      47.416   3.623  17.491  0.00  0.00    +0.000 C 
ATOM     28  N   UNL     1      48.117   3.183  18.574  0.00  0.00    +0.000 N 
ATOM     29  O   UNL     1      46.316   3.153  17.228  0.00  0.00    +0.000 OA
ATOM     30  H   UNL     1      49.031   3.541  18.822  0.00  0.00    +0.000 HD
ATOM     31  H   UNL     1      47.704   2.458  19.144  0.00  0.00    +0.000 HD
ENDBRANCH  23  27
ENDBRANCH  18  20
ENDBRANCH  17  18
ENDBRANCH   2  17
TORSDOF 6
ENDMDL
MODEL 8
REMARK VINA RESULT:    -6.368      2.945      5.768
REMARK INTER + INTRA:          -9.760
REMARK INTER:                  -8.609
REMARK INTRA:                  -1.151
REMARK UNBOUND:                -1.158
REMARK  Name = 
REMARK  10 active torsions:
REMARK  status: ('A' for Active; 'I' for Inactive)
REMARK    1  A    between atoms: C_1  and  C_2
REMARK    2  A    between atoms: C_2  and  C_3
REMARK    3  A    between atoms: C_2  and  C_4
REMARK    4  A    between atoms: C_2  and  C_16
REMARK    5  A    between atoms: C_4  and  N_5
REMARK    6  A    between atoms: N_5  and  C_6
REMARK    7  A    between atoms: C_9  and  C_10
REMARK    8  A    between atoms: N_21  and  C_22
REMARK    9  A    between atoms: C_24  and  C_25
REMARK   10  A    between atoms: C_24  and  C_26
REMARK                            x       y       z     vdW  Elec       q    Type
REMARK                         _______ _______ _______ _____ _____    ______ ____
ROOT
ATOM      1  C   UNL     1      47.127   2.883  17.767  0.00  0.00    +0.000 C 
ATOM      2  C   UNL     1      48.161   3.588  16.859  0.00  0.00    +0.000 C 
ATOM      3  C   UNL     1      49.537   2.932  17.124  0.00  0.00    +0.000 C 
ENDROOT
BRANCH   2   4
ATOM      4  C   UNL     1      48.279   5.100  17.147  0.00  0.00    +0.000 A 
ATOM      5  C   UNL     1      48.056   5.678  18.398  0.00  0.00    +0.000 A 
ATOM      6  C   UNL     1      48.231   7.046  18.544  0.00  0.00    +0.000 A 
ATOM      7  N   UNL     1      48.600   7.879  17.544  0.00  0.00    +0.000 NA
ATOM      8  C   UNL     1      48.797   7.337  16.331  0.00  0.00    +0.000 A 
ATOM      9  N   UNL     1      49.195   8.202  15.306  0.00  0.00    +0.000 N 
ATOM     10  C   UNL     1      48.648   5.973  16.108  0.00  0.00    +0.000 A 
ATOM     11  H   UNL     1      49.173   9.151  15.673  0.00  0.00    +0.000 HD
BRANCH   9  12
ATOM     12  C   UNL     1      48.856   7.960  13.904  0.00  0.00    +0.000 C 
ATOM     13  C   UNL     1      48.290   9.096  13.096  0.00  0.00    +0.000 C 
ATOM     14  C   UNL     1      49.656   8.551  12.754  0.00  0.00    +0.000 C 
ATOM     15  C   UNL     1      50.873   9.379  13.077  0.00  0.00    +0.000 C 
ATOM     16  C   UNL     1      49.766   7.796  11.454  0.00  0.00    +0.000 C 
ENDBRANCH   9  12
ENDBRANCH   2   4
BRANCH   2  17
ATOM     17  C   UNL     1      47.755   3.408  15.361  0.00  0.00    +0.000 C 
BRANCH  17  18
ATOM     18  N   UNL     1      46.527   4.130  15.007  0.00  0.00    +0.000 N 
ATOM     19  H   UNL     1      46.444   5.021  15.490  0.00  0.00    +0.000 HD
BRANCH  18  20
ATOM     20  C   UNL     1      46.225   4.276  13.646  0.00  0.00    +0.000 A 
ATOM     21  C   UNL     1      45.709   3.238  12.856  0.00  0.00    +0.000 A 
ATOM     22  C   UNL     1      45.381   3.442  11.512  0.00  0.00    +0.000 A 
ATOM     23  C   UNL     1      45.532   4.704  10.931  0.00  0.00    +0.000 A 
ATOM     24  C   UNL     1      45.992   5.752  11.727  0.00  0.00    +0.000 A 
ATOM     25  F   UNL     1      46.138   6.991  11.230  0.00  0.00    +0.000 F 
ATOM     26  C   UNL     1      46.317   5.548  13.069  0.00  0.00    +0.000 A 
BRANCH  23  27
ATOM     27  C   UNL     1      45.187   4.861   9.496  0.00  0.00    +0.000 C 
ATOM     28  N   UNL     1      43.923   4.534   9.101  0.00  0.00    +0.000 N 
ATOM     29  O   UNL     1      46.005   5.276   8.685  0.00  0.00    +0.000 OA
ATOM     30  H   UNL     1      43.220   4.182   9.738  0.00  0.00    +0.000 HD
ATOM     31  H   UNL     1      43.690   4.640   8.123  0.00  0.00    +0.000 HD
ENDBRANCH  23  27
ENDBRANCH  18  20
ENDBRANCH  17  18
ENDBRANCH   2  17
TORSDOF 6
ENDMDL
MODEL 9
REMARK VINA RESULT:    -6.346      3.868      6.166
REMARK INTER + INTRA:          -9.730
REMARK INTER:                  -8.077
REMARK INTRA:                  -1.653
REMARK UNBOUND:                -1.158
REMARK  Name = 
REMARK  10 active torsions:
REMARK  status: ('A' for Active; 'I' for Inactive)
REMARK    1  A    between atoms: C_1  and  C_2
REMARK    2  A    between atoms: C_2  and  C_3
REMARK    3  A    between atoms: C_2  and  C_4
REMARK    4  A    between atoms: C_2  and  C_16
REMARK    5  A    between atoms: C_4  and  N_5
REMARK    6  A    between atoms: N_5  and  C_6
REMARK    7  A    between atoms: C_9  and  C_10
REMARK    8  A    between atoms: N_21  and  C_22
REMARK    9  A    between atoms: C_24  and  C_25
REMARK   10  A    between atoms: C_24  and  C_26
REMARK                            x       y       z     vdW  Elec       q    Type
REMARK                         _______ _______ _______ _____ _____    ______ ____
ROOT
ATOM      1  C   UNL     1      51.141   9.276  14.811  0.00  0.00    +0.000 C 
ATOM      2  C   UNL     1      49.673   8.795  14.760  0.00  0.00    +0.000 C 
ATOM      3  C   UNL     1      48.902   9.749  13.816  0.00  0.00    +0.000 C 
ENDROOT
BRANCH   2   4
ATOM      4  C   UNL     1      48.986   8.818  16.142  0.00  0.00    +0.000 A 
ATOM      5  C   UNL     1      48.486   9.973  16.747  0.00  0.00    +0.000 A 
ATOM      6  C   UNL     1      47.852   9.863  17.977  0.00  0.00    +0.000 A 
ATOM      7  N   UNL     1      47.688   8.702  18.649  0.00  0.00    +0.000 NA
ATOM      8  C   UNL     1      48.183   7.587  18.085  0.00  0.00    +0.000 A 
ATOM      9  N   UNL     1      47.992   6.387  18.779  0.00  0.00    +0.000 N 
ATOM     10  C   UNL     1      48.823   7.615  16.853  0.00  0.00    +0.000 A 
ATOM     11  H   UNL     1      47.567   6.609  19.676  0.00  0.00    +0.000 HD
BRANCH   9  12
ATOM     12  C   UNL     1      48.931   5.270  18.679  0.00  0.00    +0.000 C 
ATOM     13  C   UNL     1      48.681   4.045  19.517  0.00  0.00    +0.000 C 
ATOM     14  C   UNL     1      48.569   3.952  18.014  0.00  0.00    +0.000 C 
ATOM     15  C   UNL     1      47.204   3.813  17.392  0.00  0.00    +0.000 C 
ATOM     16  C   UNL     1      49.637   3.150  17.315  0.00  0.00    +0.000 C 
ENDBRANCH   9  12
ENDBRANCH   2   4
BRANCH   2  17
ATOM     17  C   UNL     1      49.616   7.332  14.214  0.00  0.00    +0.000 C 
BRANCH  17  18
ATOM     18  N   UNL     1      48.910   7.224  12.930  0.00  0.00    +0.000 N 
ATOM     19  H   UNL     1      49.535   7.021  12.155  0.00  0.00    +0.000 HD
BRANCH  18  20
ATOM     20  C   UNL     1      47.774   6.405  12.878  0.00  0.00    +0.000 A 
ATOM     21  C   UNL     1      47.401   5.538  13.916  0.00  0.00    +0.000 A 
ATOM     22  C   UNL     1      46.234   4.772  13.838  0.00  0.00    +0.000 A 
ATOM     23  C   UNL     1      45.390   4.878  12.729  0.00  0.00    +0.000 A 
ATOM     24  C   UNL     1      45.728   5.780  11.722  0.00  0.00    +0.000 A 
ATOM     25  F   UNL     1      44.946   5.940  10.641  0.00  0.00    +0.000 F 
ATOM     26  C   UNL     1      46.892   6.547  11.800  0.00  0.00    +0.000 A 
BRANCH  23  27
ATOM     27  C   UNL     1      44.175   4.028  12.689  0.00  0.00    +0.000 C 
ATOM     28  N   UNL     1      44.336   2.684  12.526  0.00  0.00    +0.000 N 
ATOM     29  O   UNL     1      43.055   4.511  12.805  0.00  0.00    +0.000 OA
ATOM     30  H   UNL     1      45.243   2.246  12.420  0.00  0.00    +0.000 HD
ATOM     31  H   UNL     1      43.507   2.106  12.497  0.00  0.00    +0.000 HD
ENDBRANCH  23  27
ENDBRANCH  18  20
ENDBRANCH  17  18
ENDBRANCH   2  17
TORSDOF 6
ENDMDL
