MODEL 1
REMARK VINA RESULT:    -8.776      0.000      0.000
REMARK INTER + INTRA:         -14.932
REMARK INTER:                 -13.393
REMARK INTRA:                  -1.539
REMARK UNBOUND:                -1.539
REMARK  Name = 
REMARK  11 active torsions:
REMARK  status: ('A' for Active; 'I' for Inactive)
REMARK    1  A    between atoms: C_1  and  C_2
REMARK    2  A    between atoms: C_2  and  O_3
REMARK    3  A    between atoms: C_5  and  C_6
REMARK    4  A    between atoms: C_6  and  O_7
REMARK    5  A    between atoms: N_9  and  C_10
REMARK    6  A    between atoms: C_12  and  C_13
REMARK    7  A    between atoms: C_13  and  C_14
REMARK    8  A    between atoms: C_14  and  N_15
REMARK    9  A    between atoms: N_15  and  C_16
REMARK   10  A    between atoms: C_19  and  C_20
REMARK   11  A    between atoms: C_26  and  C_27
REMARK                            x       y       z     vdW  Elec       q    Type
REMARK                         _______ _______ _______ _____ _____    ______ ____
ROOT
ATOM      1  C   UNL     1      47.527   5.323  14.932  0.00  0.00    +0.000 A 
ATOM      2  C   UNL     1      46.436   4.789  14.224  0.00  0.00    +0.000 A 
ATOM      3  C   UNL     1      46.107   5.202  12.921  0.00  0.00    +0.000 A 
ATOM      4  C   UNL     1      46.925   6.161  12.307  0.00  0.00    +0.000 A 
ATOM      5  C   UNL     1      48.019   6.717  12.975  0.00  0.00    +0.000 A 
ATOM      6  C   UNL     1      48.310   6.281  14.273  0.00  0.00    +0.000 A 
ENDROOT
BRANCH   1  12
ATOM      7  C   UNL     1      50.322   5.855  18.928  0.00  0.00    +0.000 C 
ATOM      8  C   UNL     1      49.671   5.025  17.819  0.00  0.00    +0.000 C 
ATOM      9  C   UNL     1      49.155   3.684  18.384  0.00  0.00    +0.000 C 
ATOM     10  C   UNL     1      48.221   2.887  17.439  0.00  0.00    +0.000 C 
ATOM     11  C   UNL     1      47.133   3.804  16.864  0.00  0.00    +0.000 C 
ATOM     12  N   UNL     1      47.778   4.959  16.240  0.00  0.00    +0.000 N 
ATOM     13  C   UNL     1      48.526   5.833  17.159  0.00  0.00    +0.000 C 
BRANCH   8  14
ATOM     14  O   UNL     1      50.703   4.780  16.858  0.00  0.00    +0.000 OA
ATOM     15  H   UNL     1      51.321   4.152  17.270  0.00  0.00    +0.000 HD
ENDBRANCH   8  14
BRANCH  10  16
ATOM     16  C   UNL     1      48.928   2.133  16.301  0.00  0.00    +0.000 C 
BRANCH  16  17
ATOM     17  O   UNL     1      50.263   1.801  16.653  0.00  0.00    +0.000 OA
ATOM     18  H   UNL     1      50.341   0.833  16.641  0.00  0.00    +0.000 HD
ENDBRANCH  16  17
ENDBRANCH  10  16
ENDBRANCH   1  12
BRANCH   5  19
ATOM     19  C   UNL     1      48.862   7.785  12.327  0.00  0.00    +0.000 C 
ATOM     20  F   UNL     1      49.376   8.683  13.216  0.00  0.00    +0.000 F 
ATOM     21  F   UNL     1      49.932   7.266  11.665  0.00  0.00    +0.000 F 
ATOM     22  F   UNL     1      48.173   8.520  11.411  0.00  0.00    +0.000 F 
ENDBRANCH   5  19
BRANCH   3  23
ATOM     23  C   UNL     1      44.862   4.630  12.256  0.00  0.00    +0.000 C 
BRANCH  23  24
ATOM     24  C   UNL     1      44.327   5.511  11.124  0.00  0.00    +0.000 C 
BRANCH  24  25
ATOM     25  N   UNL     1      43.767   4.761   9.999  0.00  0.00    +0.000 N 
ATOM     26  H   UNL     1      43.224   5.352   9.370  0.00  0.00    +0.000 HD
BRANCH  25  27
ATOM     27  C   UNL     1      44.714   3.990   9.289  0.00  0.00    +0.000 A 
ATOM     28  C   UNL     1      44.766   2.591   9.355  0.00  0.00    +0.000 A 
ATOM     29  C   UNL     1      45.676   1.869   8.588  0.00  0.00    +0.000 A 
ATOM     30  C   UNL     1      46.505   2.568   7.729  0.00  0.00    +0.000 A 
ATOM     31  N   UNL     1      46.481   3.923   7.590  0.00  0.00    +0.000 NA
ATOM     32  C   UNL     1      45.578   4.584   8.360  0.00  0.00    +0.000 A 
BRANCH  30  33
ATOM     33  C   UNL     1      47.470   1.810   6.874  0.00  0.00    +0.000 C 
ATOM     34  N   UNL     1      48.549   2.525   6.429  0.00  0.00    +0.000 N 
ATOM     35  O   UNL     1      47.312   0.633   6.578  0.00  0.00    +0.000 OA
ATOM     36  H   UNL     1      48.629   3.506   6.670  0.00  0.00    +0.000 HD
ATOM     37  H   UNL     1      49.220   2.083   5.819  0.00  0.00    +0.000 HD
ENDBRANCH  30  33
ENDBRANCH  25  27
ENDBRANCH  24  25
ENDBRANCH  23  24
ENDBRANCH   3  23
TORSDOF 10
ENDMDL
MODEL 2
REMARK VINA RESULT:    -8.147      2.783      4.549
REMARK INTER + INTRA:         -13.972
REMARK INTER:                 -12.642
REMARK INTRA:                  -1.331
REMARK UNBOUND:                -1.539
REMARK  Name = 
REMARK  11 active torsions:
REMARK  status: ('A' for Active; 'I' for Inactive)
REMARK    1  A    between atoms: C_1  and  C_2
REMARK    2  A    between atoms: C_2  and  O_3
REMARK    3  A    between atoms: C_5  and  C_6
REMARK    4  A    between atoms: C_6  and  O_7
REMARK    5  A    between atoms: N_9  and  C_10
REMARK    6  A    between atoms: C_12  and  C_13
REMARK    7  A    between atoms: C_13  and  C_14
REMARK    8  A    between atoms: C_14  and  N_15
REMARK    9  A    between atoms: N_15  and  C_16
REMARK   10  A    between atoms: C_19  and  C_20
REMARK   11  A    between atoms: C_26  and  C_27
REMARK                            x       y       z     vdW  Elec       q    Type
REMARK                         _______ _______ _______ _____ _____    ______ ____
ROOT
ATOM      1  C   UNL     1      47.536   6.648  13.492  0.00  0.00    +0.000 A 
ATOM      2  C   UNL     1      46.400   6.226  12.779  0.00  0.00    +0.000 A 
ATOM      3  C   UNL     1      45.675   5.073  13.128  0.00  0.00    +0.000 A 
ATOM      4  C   UNL     1      46.095   4.345  14.249  0.00  0.00    +0.000 A 
ATOM      5  C   UNL     1      47.218   4.728  14.986  0.00  0.00    +0.000 A 
ATOM      6  C   UNL     1      47.915   5.881  14.602  0.00  0.00    +0.000 A 
ENDROOT
BRANCH   1  12
ATOM      7  C   UNL     1      51.850   8.390  11.938  0.00  0.00    +0.000 C 
ATOM      8  C   UNL     1      50.655   8.360  12.893  0.00  0.00    +0.000 C 
ATOM      9  C   UNL     1      50.236   9.797  13.274  0.00  0.00    +0.000 C 
ATOM     10  C   UNL     1      48.868   9.915  13.993  0.00  0.00    +0.000 C 
ATOM     11  C   UNL     1      47.799   9.111  13.243  0.00  0.00    +0.000 C 
ATOM     12  N   UNL     1      48.277   7.738  13.079  0.00  0.00    +0.000 N 
ATOM     13  C   UNL     1      49.480   7.587  12.245  0.00  0.00    +0.000 C 
BRANCH   8  14
ATOM     14  O   UNL     1      51.105   7.663  14.060  0.00  0.00    +0.000 OA
ATOM     15  H   UNL     1      51.557   6.862  13.747  0.00  0.00    +0.000 HD
ENDBRANCH   8  14
BRANCH  10  16
ATOM     16  C   UNL     1      48.872   9.525  15.479  0.00  0.00    +0.000 C 
BRANCH  16  17
ATOM     17  O   UNL     1      47.553   9.309  15.959  0.00  0.00    +0.000 OA
ATOM     18  H   UNL     1      47.248   8.455  15.613  0.00  0.00    +0.000 HD
ENDBRANCH  16  17
ENDBRANCH  10  16
ENDBRANCH   1  12
BRANCH   5  19
ATOM     19  C   UNL     1      47.694   3.909  16.158  0.00  0.00    +0.000 C 
ATOM     20  F   UNL     1      48.110   2.658  15.811  0.00  0.00    +0.000 F 
ATOM     21  F   UNL     1      48.750   4.486  16.796  0.00  0.00    +0.000 F 
ATOM     22  F   UNL     1      46.732   3.734  17.105  0.00  0.00    +0.000 F 
ENDBRANCH   5  19
BRANCH   3  23
ATOM     23  C   UNL     1      44.504   4.644  12.255  0.00  0.00    +0.000 C 
BRANCH  23  24
ATOM     24  C   UNL     1      44.351   5.498  10.993  0.00  0.00    +0.000 C 
BRANCH  24  25
ATOM     25  N   UNL     1      43.709   4.802   9.876  0.00  0.00    +0.000 N 
ATOM     26  H   UNL     1      43.185   5.435   9.273  0.00  0.00    +0.000 HD
BRANCH  25  27
ATOM     27  C   UNL     1      44.583   3.984   9.125  0.00  0.00    +0.000 A 
ATOM     28  C   UNL     1      45.565   4.499   8.268  0.00  0.00    +0.000 A 
ATOM     29  C   UNL     1      46.446   3.657   7.596  0.00  0.00    +0.000 A 
ATOM     30  C   UNL     1      46.350   2.296   7.826  0.00  0.00    +0.000 A 
ATOM     31  N   UNL     1      45.444   1.733   8.672  0.00  0.00    +0.000 NA
ATOM     32  C   UNL     1      44.605   2.595   9.304  0.00  0.00    +0.000 A 
BRANCH  30  33
ATOM     33  C   UNL     1      47.306   1.374   7.137  0.00  0.00    +0.000 C 
ATOM     34  N   UNL     1      48.393   1.975   6.563  0.00  0.00    +0.000 N 
ATOM     35  O   UNL     1      47.133   0.164   7.077  0.00  0.00    +0.000 OA
ATOM     36  H   UNL     1      48.485   2.983   6.607  0.00  0.00    +0.000 HD
ATOM     37  H   UNL     1      49.057   1.414   6.051  0.00  0.00    +0.000 HD
ENDBRANCH  30  33
ENDBRANCH  25  27
ENDBRANCH  24  25
ENDBRANCH  23  24
ENDBRANCH   3  23
TORSDOF 10
ENDMDL
MODEL 3
REMARK VINA RESULT:    -7.711      3.277      4.522
REMARK INTER + INTRA:         -13.307
REMARK INTER:                 -12.159
REMARK INTRA:                  -1.149
REMARK UNBOUND:                -1.539
REMARK  Name = 
REMARK  11 active torsions:
REMARK  status: ('A' for Active; 'I' for Inactive)
REMARK    1  A    between atoms: C_1  and  C_2
REMARK    2  A    between atoms: C_2  and  O_3
REMARK    3  A    between atoms: C_5  and  C_6
REMARK    4  A    between atoms: C_6  and  O_7
REMARK    5  A    between atoms: N_9  and  C_10
REMARK    6  A    between atoms: C_12  and  C_13
REMARK    7  A    between atoms: C_13  and  C_14
REMARK    8  A    between atoms: C_14  and  N_15
REMARK    9  A    between atoms: N_15  and  C_16
REMARK   10  A    between atoms: C_19  and  C_20
REMARK   11  A    between atoms: C_26  and  C_27
REMARK                            x       y       z     vdW  Elec       q    Type
REMARK                         _______ _______ _______ _____ _____    ______ ____
ROOT
ATOM      1  C   UNL     1      46.670   8.301  12.268  0.00  0.00    +0.000 A 
ATOM      2  C   UNL     1      46.285   6.951  12.353  0.00  0.00    +0.000 A 
ATOM      3  C   UNL     1      45.010   6.503  11.964  0.00  0.00    +0.000 A 
ATOM      4  C   UNL     1      44.111   7.446  11.447  0.00  0.00    +0.000 A 
ATOM      5  C   UNL     1      44.452   8.797  11.345  0.00  0.00    +0.000 A 
ATOM      6  C   UNL     1      45.731   9.201  11.747  0.00  0.00    +0.000 A 
ENDROOT
BRANCH   1  12
ATOM      7  C   UNL     1      51.533   8.429  11.633  0.00  0.00    +0.000 C 
ATOM      8  C   UNL     1      50.270   8.114  12.437  0.00  0.00    +0.000 C 
ATOM      9  C   UNL     1      50.475   8.476  13.924  0.00  0.00    +0.000 C 
ATOM     10  C   UNL     1      49.186   8.484  14.784  0.00  0.00    +0.000 C 
ATOM     11  C   UNL     1      48.076   9.272  14.077  0.00  0.00    +0.000 C 
ATOM     12  N   UNL     1      47.899   8.725  12.732  0.00  0.00    +0.000 N 
ATOM     13  C   UNL     1      49.059   8.871  11.838  0.00  0.00    +0.000 C 
BRANCH   8  14
ATOM     14  O   UNL     1      50.066   6.703  12.308  0.00  0.00    +0.000 OA
ATOM     15  H   UNL     1      50.752   6.379  11.700  0.00  0.00    +0.000 HD
ENDBRANCH   8  14
BRANCH  10  16
ATOM     16  C   UNL     1      48.665   7.098  15.198  0.00  0.00    +0.000 C 
BRANCH  16  17
ATOM     17  O   UNL     1      49.734   6.224  15.531  0.00  0.00    +0.000 OA
ATOM     18  H   UNL     1      50.308   6.147  14.752  0.00  0.00    +0.000 HD
ENDBRANCH  16  17
ENDBRANCH  10  16
ENDBRANCH   1  12
BRANCH   5  19
ATOM     19  C   UNL     1      43.460   9.811  10.837  0.00  0.00    +0.000 C 
ATOM     20  F   UNL     1      43.841  10.402   9.668  0.00  0.00    +0.000 F 
ATOM     21  F   UNL     1      42.239   9.261  10.593  0.00  0.00    +0.000 F 
ATOM     22  F   UNL     1      43.246  10.828  11.716  0.00  0.00    +0.000 F 
ENDBRANCH   5  19
BRANCH   3  23
ATOM     23  C   UNL     1      44.649   5.038  12.163  0.00  0.00    +0.000 C 
BRANCH  23  24
ATOM     24  C   UNL     1      43.534   4.562  11.227  0.00  0.00    +0.000 C 
BRANCH  24  25
ATOM     25  N   UNL     1      43.759   4.891   9.818  0.00  0.00    +0.000 N 
ATOM     26  H   UNL     1      44.094   5.845   9.690  0.00  0.00    +0.000 HD
BRANCH  25  27
ATOM     27  C   UNL     1      44.575   3.965   9.130  0.00  0.00    +0.000 A 
ATOM     28  C   UNL     1      45.594   4.350   8.249  0.00  0.00    +0.000 A 
ATOM     29  C   UNL     1      46.416   3.404   7.643  0.00  0.00    +0.000 A 
ATOM     30  C   UNL     1      46.223   2.072   7.962  0.00  0.00    +0.000 A 
ATOM     31  N   UNL     1      45.275   1.633   8.837  0.00  0.00    +0.000 NA
ATOM     32  C   UNL     1      44.497   2.593   9.402  0.00  0.00    +0.000 A 
BRANCH  30  33
ATOM     33  C   UNL     1      47.113   1.041   7.344  0.00  0.00    +0.000 C 
ATOM     34  N   UNL     1      46.853  -0.253   7.705  0.00  0.00    +0.000 N 
ATOM     35  O   UNL     1      48.021   1.325   6.573  0.00  0.00    +0.000 OA
ATOM     36  H   UNL     1      46.113  -0.445   8.370  0.00  0.00    +0.000 HD
ATOM     37  H   UNL     1      47.440  -0.994   7.352  0.00  0.00    +0.000 HD
ENDBRANCH  30  33
ENDBRANCH  25  27
ENDBRANCH  24  25
ENDBRANCH  23  24
ENDBRANCH   3  23
TORSDOF 10
ENDMDL
MODEL 4
REMARK VINA RESULT:    -7.700      1.565      2.476
REMARK INTER + INTRA:         -13.290
REMARK INTER:                 -11.832
REMARK INTRA:                  -1.459
REMARK UNBOUND:                -1.539
REMARK  Name = 
REMARK  11 active torsions:
REMARK  status: ('A' for Active; 'I' for Inactive)
REMARK    1  A    between atoms: C_1  and  C_2
REMARK    2  A    between atoms: C_2  and  O_3
REMARK    3  A    between atoms: C_5  and  C_6
REMARK    4  A    between atoms: C_6  and  O_7
REMARK    5  A    between atoms: N_9  and  C_10
REMARK    6  A    between atoms: C_12  and  C_13
REMARK    7  A    between atoms: C_13  and  C_14
REMARK    8  A    between atoms: C_14  and  N_15
REMARK    9  A    between atoms: N_15  and  C_16
REMARK   10  A    between atoms: C_19  and  C_20
REMARK   11  A    between atoms: C_26  and  C_27
REMARK                            x       y       z     vdW  Elec       q    Type
REMARK                         _______ _______ _______ _____ _____    ______ ____
ROOT
ATOM      1  C   UNL     1      47.879   6.281  14.447  0.00  0.00    +0.000 A 
ATOM      2  C   UNL     1      46.822   5.555  13.870  0.00  0.00    +0.000 A 
ATOM      3  C   UNL     1      46.095   6.030  12.763  0.00  0.00    +0.000 A 
ATOM      4  C   UNL     1      46.470   7.261  12.208  0.00  0.00    +0.000 A 
ATOM      5  C   UNL     1      47.514   8.015  12.750  0.00  0.00    +0.000 A 
ATOM      6  C   UNL     1      48.210   7.508  13.855  0.00  0.00    +0.000 A 
ENDROOT
BRANCH   1  12
ATOM      7  C   UNL     1      47.916   3.169  18.239  0.00  0.00    +0.000 C 
ATOM      8  C   UNL     1      47.947   4.570  17.623  0.00  0.00    +0.000 C 
ATOM      9  C   UNL     1      48.955   5.466  18.374  0.00  0.00    +0.000 C 
ATOM     10  C   UNL     1      49.298   6.804  17.673  0.00  0.00    +0.000 C 
ATOM     11  C   UNL     1      49.628   6.564  16.194  0.00  0.00    +0.000 C 
ATOM     12  N   UNL     1      48.521   5.829  15.582  0.00  0.00    +0.000 N 
ATOM     13  C   UNL     1      48.294   4.477  16.117  0.00  0.00    +0.000 C 
BRANCH   8  14
ATOM     14  O   UNL     1      46.625   5.095  17.780  0.00  0.00    +0.000 OA
ATOM     15  H   UNL     1      46.593   5.507  18.659  0.00  0.00    +0.000 HD
ENDBRANCH   8  14
BRANCH  10  16
ATOM     16  C   UNL     1      48.231   7.904  17.801  0.00  0.00    +0.000 C 
BRANCH  16  17
ATOM     17  O   UNL     1      47.401   7.687  18.933  0.00  0.00    +0.000 OA
ATOM     18  H   UNL     1      47.293   8.538  19.389  0.00  0.00    +0.000 HD
ENDBRANCH  16  17
ENDBRANCH  10  16
ENDBRANCH   1  12
BRANCH   5  19
ATOM     19  C   UNL     1      47.877   9.362  12.179  0.00  0.00    +0.000 C 
ATOM     20  F   UNL     1      48.903   9.311  11.282  0.00  0.00    +0.000 F 
ATOM     21  F   UNL     1      46.836   9.938  11.518  0.00  0.00    +0.000 F 
ATOM     22  F   UNL     1      48.258  10.255  13.132  0.00  0.00    +0.000 F 
ENDBRANCH   5  19
BRANCH   3  23
ATOM     23  C   UNL     1      44.915   5.217  12.250  0.00  0.00    +0.000 C 
BRANCH  23  24
ATOM     24  C   UNL     1      44.353   5.744  10.927  0.00  0.00    +0.000 C 
BRANCH  24  25
ATOM     25  N   UNL     1      43.760   4.709  10.077  0.00  0.00    +0.000 N 
ATOM     26  H   UNL     1      43.033   5.079   9.465  0.00  0.00    +0.000 HD
BRANCH  25  27
ATOM     27  C   UNL     1      44.702   3.945   9.352  0.00  0.00    +0.000 A 
ATOM     28  C   UNL     1      44.751   2.546   9.398  0.00  0.00    +0.000 A 
ATOM     29  C   UNL     1      45.655   1.832   8.618  0.00  0.00    +0.000 A 
ATOM     30  C   UNL     1      46.482   2.541   7.765  0.00  0.00    +0.000 A 
ATOM     31  N   UNL     1      46.461   3.898   7.645  0.00  0.00    +0.000 NA
ATOM     32  C   UNL     1      45.563   4.551   8.428  0.00  0.00    +0.000 A 
BRANCH  30  33
ATOM     33  C   UNL     1      47.442   1.792   6.895  0.00  0.00    +0.000 C 
ATOM     34  N   UNL     1      48.478   2.530   6.392  0.00  0.00    +0.000 N 
ATOM     35  O   UNL     1      47.313   0.602   6.637  0.00  0.00    +0.000 OA
ATOM     36  H   UNL     1      48.533   3.520   6.604  0.00  0.00    +0.000 HD
ATOM     37  H   UNL     1      49.141   2.094   5.770  0.00  0.00    +0.000 HD
ENDBRANCH  30  33
ENDBRANCH  25  27
ENDBRANCH  24  25
ENDBRANCH  23  24
ENDBRANCH   3  23
TORSDOF 10
ENDMDL
MODEL 5
REMARK VINA RESULT:    -7.432      2.639      3.980
REMARK INTER + INTRA:         -12.881
REMARK INTER:                 -11.451
REMARK INTRA:                  -1.430
REMARK UNBOUND:                -1.539
REMARK  Name = 
REMARK  11 active torsions:
REMARK  status: ('A' for Active; 'I' for Inactive)
REMARK    1  A    between atoms: C_1  and  C_2
REMARK    2  A    between atoms: C_2  and  O_3
REMARK    3  A    between atoms: C_5  and  C_6
REMARK    4  A    between atoms: C_6  and  O_7
REMARK    5  A    between atoms: N_9  and  C_10
REMARK    6  A    between atoms: C_12  and  C_13
REMARK    7  A    between atoms: C_13  and  C_14
REMARK    8  A    between atoms: C_14  and  N_15
REMARK    9  A    between atoms: N_15  and  C_16
REMARK   10  A    between atoms: C_19  and  C_20
REMARK   11  A    between atoms: C_26  and  C_27
REMARK                            x       y       z     vdW  Elec       q    Type
REMARK                         _______ _______ _______ _____ _____    ______ ____
ROOT
ATOM      1  C   UNL     1      46.847   7.383  12.643  0.00  0.00    +0.000 A 
ATOM      2  C   UNL     1      45.892   6.385  12.377  0.00  0.00    +0.000 A 
ATOM      3  C   UNL     1      44.633   6.674  11.822  0.00  0.00    +0.000 A 
ATOM      4  C   UNL     1      44.344   8.007  11.501  0.00  0.00    +0.000 A 
ATOM      5  C   UNL     1      45.264   9.030  11.749  0.00  0.00    +0.000 A 
ATOM      6  C   UNL     1      46.505   8.700  12.306  0.00  0.00    +0.000 A 
ENDROOT
BRANCH   1  12
ATOM      7  C   UNL     1      49.165   5.927  16.713  0.00  0.00    +0.000 C 
ATOM      8  C   UNL     1      48.910   6.906  15.564  0.00  0.00    +0.000 C 
ATOM      9  C   UNL     1      50.245   7.467  15.029  0.00  0.00    +0.000 C 
ATOM     10  C   UNL     1      50.146   8.233  13.686  0.00  0.00    +0.000 C 
ATOM     11  C   UNL     1      49.335   7.422  12.666  0.00  0.00    +0.000 C 
ATOM     12  N   UNL     1      48.043   7.082  13.263  0.00  0.00    +0.000 N 
ATOM     13  C   UNL     1      48.107   6.203  14.442  0.00  0.00    +0.000 C 
BRANCH   8  14
ATOM     14  O   UNL     1      48.129   7.968  16.122  0.00  0.00    +0.000 OA
ATOM     15  H   UNL     1      47.375   8.100  15.523  0.00  0.00    +0.000 HD
ENDBRANCH   8  14
BRANCH  10  16
ATOM     16  C   UNL     1      49.589   9.661  13.784  0.00  0.00    +0.000 C 
BRANCH  16  17
ATOM     17  O   UNL     1      49.625  10.138  15.121  0.00  0.00    +0.000 OA
ATOM     18  H   UNL     1      50.386  10.736  15.202  0.00  0.00    +0.000 HD
ENDBRANCH  16  17
ENDBRANCH  10  16
ENDBRANCH   1  12
BRANCH   5  19
ATOM     19  C   UNL     1      44.924  10.467  11.448  0.00  0.00    +0.000 C 
ATOM     20  F   UNL     1      43.649  10.805  11.793  0.00  0.00    +0.000 F 
ATOM     21  F   UNL     1      45.731  11.337  12.115  0.00  0.00    +0.000 F 
ATOM     22  F   UNL     1      45.048  10.775  10.128  0.00  0.00    +0.000 F 
ENDBRANCH   5  19
BRANCH   3  23
ATOM     23  C   UNL     1      43.630   5.543  11.639  0.00  0.00    +0.000 C 
BRANCH  23  24
ATOM     24  C   UNL     1      44.292   4.171  11.486  0.00  0.00    +0.000 C 
BRANCH  24  25
ATOM     25  N   UNL     1      43.756   3.371  10.383  0.00  0.00    +0.000 N 
ATOM     26  H   UNL     1      42.875   3.741  10.028  0.00  0.00    +0.000 HD
BRANCH  25  27
ATOM     27  C   UNL     1      44.675   3.140   9.335  0.00  0.00    +0.000 A 
ATOM     28  C   UNL     1      45.276   4.173   8.603  0.00  0.00    +0.000 A 
ATOM     29  C   UNL     1      46.224   3.901   7.622  0.00  0.00    +0.000 A 
ATOM     30  C   UNL     1      46.587   2.582   7.413  0.00  0.00    +0.000 A 
ATOM     31  N   UNL     1      46.069   1.535   8.114  0.00  0.00    +0.000 NA
ATOM     32  C   UNL     1      45.146   1.850   9.060  0.00  0.00    +0.000 A 
BRANCH  30  33
ATOM     33  C   UNL     1      47.626   2.268   6.383  0.00  0.00    +0.000 C 
ATOM     34  N   UNL     1      47.686   3.134   5.326  0.00  0.00    +0.000 N 
ATOM     35  O   UNL     1      48.371   1.301   6.467  0.00  0.00    +0.000 OA
ATOM     36  H   UNL     1      47.031   3.906   5.277  0.00  0.00    +0.000 HD
ATOM     37  H   UNL     1      48.340   2.959   4.578  0.00  0.00    +0.000 HD
ENDBRANCH  30  33
ENDBRANCH  25  27
ENDBRANCH  24  25
ENDBRANCH  23  24
ENDBRANCH   3  23
TORSDOF 10
ENDMDL
MODEL 6
REMARK VINA RESULT:    -7.388      3.357      7.893
REMARK INTER + INTRA:         -12.815
REMARK INTER:                 -11.336
REMARK INTRA:                  -1.479
REMARK UNBOUND:                -1.539
REMARK  Name = 
REMARK  11 active torsions:
REMARK  status: ('A' for Active; 'I' for Inactive)
REMARK    1  A    between atoms: C_1  and  C_2
REMARK    2  A    between atoms: C_2  and  O_3
REMARK    3  A    between atoms: C_5  and  C_6
REMARK    4  A    between atoms: C_6  and  O_7
REMARK    5  A    between atoms: N_9  and  C_10
REMARK    6  A    between atoms: C_12  and  C_13
REMARK    7  A    between atoms: C_13  and  C_14
REMARK    8  A    between atoms: C_14  and  N_15
REMARK    9  A    between atoms: N_15  and  C_16
REMARK   10  A    between atoms: C_19  and  C_20
REMARK   11  A    between atoms: C_26  and  C_27
REMARK                            x       y       z     vdW  Elec       q    Type
REMARK                         _______ _______ _______ _____ _____    ______ ____
ROOT
ATOM      1  C   UNL     1      45.506   7.115  11.627  0.00  0.00    +0.000 A 
ATOM      2  C   UNL     1      46.599   7.739  12.255  0.00  0.00    +0.000 A 
ATOM      3  C   UNL     1      46.677   9.133  12.424  0.00  0.00    +0.000 A 
ATOM      4  C   UNL     1      45.603   9.912  11.973  0.00  0.00    +0.000 A 
ATOM      5  C   UNL     1      44.498   9.333  11.344  0.00  0.00    +0.000 A 
ATOM      6  C   UNL     1      44.462   7.941  11.191  0.00  0.00    +0.000 A 
ENDROOT
BRANCH   1  12
ATOM      7  C   UNL     1      45.065   3.444   8.404  0.00  0.00    +0.000 C 
ATOM      8  C   UNL     1      44.667   4.200   9.673  0.00  0.00    +0.000 C 
ATOM      9  C   UNL     1      44.356   3.208  10.815  0.00  0.00    +0.000 C 
ATOM     10  C   UNL     1      44.230   3.842  12.223  0.00  0.00    +0.000 C 
ATOM     11  C   UNL     1      45.411   4.783  12.493  0.00  0.00    +0.000 C 
ATOM     12  N   UNL     1      45.494   5.753  11.401  0.00  0.00    +0.000 N 
ATOM     13  C   UNL     1      45.793   5.183  10.077  0.00  0.00    +0.000 C 
BRANCH   8  14
ATOM     14  O   UNL     1      43.485   4.934   9.337  0.00  0.00    +0.000 OA
ATOM     15  H   UNL     1      43.768   5.666   8.764  0.00  0.00    +0.000 HD
ENDBRANCH   8  14
BRANCH  10  16
ATOM     16  C   UNL     1      42.905   4.569  12.499  0.00  0.00    +0.000 C 
BRANCH  16  17
ATOM     17  O   UNL     1      43.062   5.568  13.496  0.00  0.00    +0.000 OA
ATOM     18  H   UNL     1      43.763   5.274  14.101  0.00  0.00    +0.000 HD
ENDBRANCH  16  17
ENDBRANCH  10  16
ENDBRANCH   1  12
BRANCH   5  19
ATOM     19  C   UNL     1      43.372  10.184  10.814  0.00  0.00    +0.000 C 
ATOM     20  F   UNL     1      42.322   9.456  10.339  0.00  0.00    +0.000 F 
ATOM     21  F   UNL     1      42.853  11.004  11.769  0.00  0.00    +0.000 F 
ATOM     22  F   UNL     1      43.758  10.994   9.791  0.00  0.00    +0.000 F 
ENDBRANCH   5  19
BRANCH   3  23
ATOM     23  C   UNL     1      47.931   9.733  13.044  0.00  0.00    +0.000 C 
BRANCH  23  24
ATOM     24  C   UNL     1      48.172   9.269  14.484  0.00  0.00    +0.000 C 
BRANCH  24  25
ATOM     25  N   UNL     1      49.267   8.308  14.624  0.00  0.00    +0.000 N 
ATOM     26  H   UNL     1      50.118   8.739  14.986  0.00  0.00    +0.000 HD
BRANCH  25  27
ATOM     27  C   UNL     1      48.929   7.148  15.356  0.00  0.00    +0.000 A 
ATOM     28  C   UNL     1      49.045   7.061  16.750  0.00  0.00    +0.000 A 
ATOM     29  C   UNL     1      48.639   5.920  17.435  0.00  0.00    +0.000 A 
ATOM     30  C   UNL     1      48.083   4.884  16.706  0.00  0.00    +0.000 A 
ATOM     31  N   UNL     1      47.909   4.918  15.355  0.00  0.00    +0.000 NA
ATOM     32  C   UNL     1      48.321   6.052  14.730  0.00  0.00    +0.000 A 
BRANCH  30  33
ATOM     33  C   UNL     1      47.614   3.659  17.425  0.00  0.00    +0.000 C 
ATOM     34  N   UNL     1      48.531   3.078  18.257  0.00  0.00    +0.000 N 
ATOM     35  O   UNL     1      46.490   3.195  17.280  0.00  0.00    +0.000 OA
ATOM     36  H   UNL     1      49.461   3.474  18.326  0.00  0.00    +0.000 HD
ATOM     37  H   UNL     1      48.290   2.228  18.744  0.00  0.00    +0.000 HD
ENDBRANCH  30  33
ENDBRANCH  25  27
ENDBRANCH  24  25
ENDBRANCH  23  24
ENDBRANCH   3  23
TORSDOF 10
ENDMDL
MODEL 7
REMARK VINA RESULT:    -6.479      3.232      8.321
REMARK INTER + INTRA:         -11.428
REMARK INTER:                 -10.171
REMARK INTRA:                  -1.257
REMARK UNBOUND:                -1.539
REMARK  Name = 
REMARK  11 active torsions:
REMARK  status: ('A' for Active; 'I' for Inactive)
REMARK    1  A    between atoms: C_1  and  C_2
REMARK    2  A    between atoms: C_2  and  O_3
REMARK    3  A    between atoms: C_5  and  C_6
REMARK    4  A    between atoms: C_6  and  O_7
REMARK    5  A    between atoms: N_9  and  C_10
REMARK    6  A    between atoms: C_12  and  C_13
REMARK    7  A    between atoms: C_13  and  C_14
REMARK    8  A    between atoms: C_14  and  N_15
REMARK    9  A    between atoms: N_15  and  C_16
REMARK   10  A    between atoms: C_19  and  C_20
REMARK   11  A    between atoms: C_26  and  C_27
REMARK                            x       y       z     vdW  Elec       q    Type
REMARK                         _______ _______ _______ _____ _____    ______ ____
ROOT
ATOM      1  C   UNL     1      46.312   5.067  13.287  0.00  0.00    +0.000 A 
ATOM      2  C   UNL     1      46.712   4.789  14.607  0.00  0.00    +0.000 A 
ATOM      3  C   UNL     1      47.766   5.473  15.236  0.00  0.00    +0.000 A 
ATOM      4  C   UNL     1      48.414   6.488  14.519  0.00  0.00    +0.000 A 
ATOM      5  C   UNL     1      48.050   6.796  13.206  0.00  0.00    +0.000 A 
ATOM      6  C   UNL     1      46.996   6.088  12.614  0.00  0.00    +0.000 A 
ENDROOT
BRANCH   1  12
ATOM      7  C   UNL     1      44.854   2.617   9.296  0.00  0.00    +0.000 C 
ATOM      8  C   UNL     1      44.695   3.698  10.367  0.00  0.00    +0.000 C 
ATOM      9  C   UNL     1      43.223   3.791  10.822  0.00  0.00    +0.000 C 
ATOM     10  C   UNL     1      42.981   4.632  12.101  0.00  0.00    +0.000 C 
ATOM     11  C   UNL     1      43.970   4.229  13.202  0.00  0.00    +0.000 C 
ATOM     12  N   UNL     1      45.328   4.324  12.666  0.00  0.00    +0.000 N 
ATOM     13  C   UNL     1      45.634   3.400  11.561  0.00  0.00    +0.000 C 
BRANCH   8  14
ATOM     14  O   UNL     1      45.085   4.926   9.743  0.00  0.00    +0.000 OA
ATOM     15  H   UNL     1      45.110   4.755   8.787  0.00  0.00    +0.000 HD
ENDBRANCH   8  14
BRANCH  10  16
ATOM     16  C   UNL     1      43.010   6.155  11.900  0.00  0.00    +0.000 C 
BRANCH  16  17
ATOM     17  O   UNL     1      42.678   6.506  10.565  0.00  0.00    +0.000 OA
ATOM     18  H   UNL     1      42.842   5.729  10.005  0.00  0.00    +0.000 HD
ENDBRANCH  16  17
ENDBRANCH  10  16
ENDBRANCH   1  12
BRANCH   5  19
ATOM     19  C   UNL     1      48.787   7.854  12.424  0.00  0.00    +0.000 C 
ATOM     20  F   UNL     1      47.959   8.724  11.778  0.00  0.00    +0.000 F 
ATOM     21  F   UNL     1      49.583   8.620  13.218  0.00  0.00    +0.000 F 
ATOM     22  F   UNL     1      49.601   7.332  11.467  0.00  0.00    +0.000 F 
ENDBRANCH   5  19
BRANCH   3  23
ATOM     23  C   UNL     1      48.185   5.055  16.639  0.00  0.00    +0.000 C 
BRANCH  23  24
ATOM     24  C   UNL     1      49.666   5.316  16.927  0.00  0.00    +0.000 C 
BRANCH  24  25
ATOM     25  N   UNL     1      50.149   4.705  18.167  0.00  0.00    +0.000 N 
ATOM     26  H   UNL     1      49.389   4.462  18.801  0.00  0.00    +0.000 HD
BRANCH  25  27
ATOM     27  C   UNL     1      51.024   3.613  17.972  0.00  0.00    +0.000 A 
ATOM     28  C   UNL     1      52.310   3.555  18.525  0.00  0.00    +0.000 A 
ATOM     29  C   UNL     1      53.113   2.430  18.360  0.00  0.00    +0.000 A 
ATOM     30  C   UNL     1      52.593   1.354  17.664  0.00  0.00    +0.000 A 
ATOM     31  N   UNL     1      51.340   1.331  17.131  0.00  0.00    +0.000 NA
ATOM     32  C   UNL     1      50.594   2.451  17.317  0.00  0.00    +0.000 A 
BRANCH  30  33
ATOM     33  C   UNL     1      53.429   0.124  17.498  0.00  0.00    +0.000 C 
ATOM     34  N   UNL     1      53.384  -0.762  18.539  0.00  0.00    +0.000 N 
ATOM     35  O   UNL     1      54.117  -0.082  16.506  0.00  0.00    +0.000 OA
ATOM     36  H   UNL     1      52.826  -0.542  19.356  0.00  0.00    +0.000 HD
ATOM     37  H   UNL     1      53.952  -1.595  18.506  0.00  0.00    +0.000 HD
ENDBRANCH  30  33
ENDBRANCH  25  27
ENDBRANCH  24  25
ENDBRANCH  23  24
ENDBRANCH   3  23
TORSDOF 10
ENDMDL
MODEL 8
REMARK VINA RESULT:    -6.219      2.916      7.618
REMARK INTER + INTRA:         -11.031
REMARK INTER:                  -9.774
REMARK INTRA:                  -1.257
REMARK UNBOUND:                -1.539
REMARK  Name = 
REMARK  11 active torsions:
REMARK  status: ('A' for Active; 'I' for Inactive)
REMARK    1  A    between atoms: C_1  and  C_2
REMARK    2  A    between atoms: C_2  and  O_3
REMARK    3  A    between atoms: C_5  and  C_6
REMARK    4  A    between atoms: C_6  and  O_7
REMARK    5  A    between atoms: N_9  and  C_10
REMARK    6  A    between atoms: C_12  and  C_13
REMARK    7  A    between atoms: C_13  and  C_14
REMARK    8  A    between atoms: C_14  and  N_15
REMARK    9  A    between atoms: N_15  and  C_16
REMARK   10  A    between atoms: C_19  and  C_20
REMARK   11  A    between atoms: C_26  and  C_27
REMARK                            x       y       z     vdW  Elec       q    Type
REMARK                         _______ _______ _______ _____ _____    ______ ____
ROOT
ATOM      1  C   UNL     1      46.828   6.456  12.256  0.00  0.00    +0.000 A 
ATOM      2  C   UNL     1      47.001   5.987  13.571  0.00  0.00    +0.000 A 
ATOM      3  C   UNL     1      48.149   6.272  14.329  0.00  0.00    +0.000 A 
ATOM      4  C   UNL     1      49.138   7.079  13.751  0.00  0.00    +0.000 A 
ATOM      5  C   UNL     1      49.007   7.566  12.448  0.00  0.00    +0.000 A 
ATOM      6  C   UNL     1      47.849   7.256  11.724  0.00  0.00    +0.000 A 
ENDROOT
BRANCH   1  12
ATOM      7  C   UNL     1      41.967   6.673  11.639  0.00  0.00    +0.000 C 
ATOM      8  C   UNL     1      43.288   5.920  11.814  0.00  0.00    +0.000 C 
ATOM      9  C   UNL     1      43.330   4.686  10.887  0.00  0.00    +0.000 C 
ATOM     10  C   UNL     1      44.718   4.012  10.751  0.00  0.00    +0.000 C 
ATOM     11  C   UNL     1      45.798   5.064  10.469  0.00  0.00    +0.000 C 
ATOM     12  N   UNL     1      45.728   6.094  11.505  0.00  0.00    +0.000 N 
ATOM     13  C   UNL     1      44.478   6.871  11.535  0.00  0.00    +0.000 C 
BRANCH   8  14
ATOM     14  O   UNL     1      43.319   5.499  13.181  0.00  0.00    +0.000 OA
ATOM     15  H   UNL     1      42.681   6.056  13.657  0.00  0.00    +0.000 HD
ENDBRANCH   8  14
BRANCH  10  16
ATOM     16  C   UNL     1      45.140   3.131  11.937  0.00  0.00    +0.000 C 
BRANCH  16  17
ATOM     17  O   UNL     1      44.009   2.599  12.612  0.00  0.00    +0.000 OA
ATOM     18  H   UNL     1      43.829   1.719  12.241  0.00  0.00    +0.000 HD
ENDBRANCH  16  17
ENDBRANCH  10  16
ENDBRANCH   1  12
BRANCH   5  19
ATOM     19  C   UNL     1      50.099   8.390  11.814  0.00  0.00    +0.000 C 
ATOM     20  F   UNL     1      51.172   8.587  12.633  0.00  0.00    +0.000 F 
ATOM     21  F   UNL     1      50.595   7.810  10.688  0.00  0.00    +0.000 F 
ATOM     22  F   UNL     1      49.679   9.631  11.445  0.00  0.00    +0.000 F 
ENDBRANCH   5  19
BRANCH   3  23
ATOM     23  C   UNL     1      48.290   5.659  15.716  0.00  0.00    +0.000 C 
BRANCH  23  24
ATOM     24  C   UNL     1      47.126   4.735  16.085  0.00  0.00    +0.000 C 
BRANCH  24  25
ATOM     25  N   UNL     1      47.397   3.863  17.230  0.00  0.00    +0.000 N 
ATOM     26  H   UNL     1      46.716   3.108  17.313  0.00  0.00    +0.000 HD
BRANCH  25  27
ATOM     27  C   UNL     1      48.720   3.368  17.280  0.00  0.00    +0.000 A 
ATOM     28  C   UNL     1      49.719   3.936  18.082  0.00  0.00    +0.000 A 
ATOM     29  C   UNL     1      50.991   3.377  18.149  0.00  0.00    +0.000 A 
ATOM     30  C   UNL     1      51.234   2.220  17.429  0.00  0.00    +0.000 A 
ATOM     31  N   UNL     1      50.298   1.598  16.659  0.00  0.00    +0.000 NA
ATOM     32  C   UNL     1      49.072   2.182  16.625  0.00  0.00    +0.000 A 
BRANCH  30  33
ATOM     33  C   UNL     1      52.586   1.586  17.509  0.00  0.00    +0.000 C 
ATOM     34  N   UNL     1      52.640   0.269  17.143  0.00  0.00    +0.000 N 
ATOM     35  O   UNL     1      53.582   2.192  17.883  0.00  0.00    +0.000 OA
ATOM     36  H   UNL     1      51.788  -0.207  16.868  0.00  0.00    +0.000 HD
ATOM     37  H   UNL     1      53.515  -0.229  17.208  0.00  0.00    +0.000 HD
ENDBRANCH  30  33
ENDBRANCH  25  27
ENDBRANCH  24  25
ENDBRANCH  23  24
ENDBRANCH   3  23
TORSDOF 10
ENDMDL
MODEL 9
REMARK VINA RESULT:    -6.140      3.340      4.599
REMARK INTER + INTRA:         -10.911
REMARK INTER:                  -9.188
REMARK INTRA:                  -1.722
REMARK UNBOUND:                -1.539
REMARK  Name = 
REMARK  11 active torsions:
REMARK  status: ('A' for Active; 'I' for Inactive)
REMARK    1  A    between atoms: C_1  and  C_2
REMARK    2  A    between atoms: C_2  and  O_3
REMARK    3  A    between atoms: C_5  and  C_6
REMARK    4  A    between atoms: C_6  and  O_7
REMARK    5  A    between atoms: N_9  and  C_10
REMARK    6  A    between atoms: C_12  and  C_13
REMARK    7  A    between atoms: C_13  and  C_14
REMARK    8  A    between atoms: C_14  and  N_15
REMARK    9  A    between atoms: N_15  and  C_16
REMARK   10  A    between atoms: C_19  and  C_20
REMARK   11  A    between atoms: C_26  and  C_27
REMARK                            x       y       z     vdW  Elec       q    Type
REMARK                         _______ _______ _______ _____ _____    ______ ____
ROOT
ATOM      1  C   UNL     1      49.775   6.219  16.415  0.00  0.00    +0.000 A 
ATOM      2  C   UNL     1      49.201   7.023  15.414  0.00  0.00    +0.000 A 
ATOM      3  C   UNL     1      49.964   7.892  14.615  0.00  0.00    +0.000 A 
ATOM      4  C   UNL     1      51.351   7.924  14.815  0.00  0.00    +0.000 A 
ATOM      5  C   UNL     1      51.962   7.142  15.798  0.00  0.00    +0.000 A 
ATOM      6  C   UNL     1      51.165   6.293  16.576  0.00  0.00    +0.000 A 
ENDROOT
BRANCH   1  12
ATOM      7  C   UNL     1      48.681   4.799  20.982  0.00  0.00    +0.000 C 
ATOM      8  C   UNL     1      49.096   4.533  19.532  0.00  0.00    +0.000 C 
ATOM      9  C   UNL     1      48.385   3.273  18.992  0.00  0.00    +0.000 C 
ATOM     10  C   UNL     1      48.487   3.065  17.460  0.00  0.00    +0.000 C 
ATOM     11  C   UNL     1      48.143   4.364  16.720  0.00  0.00    +0.000 C 
ATOM     12  N   UNL     1      48.992   5.436  17.240  0.00  0.00    +0.000 N 
ATOM     13  C   UNL     1      48.781   5.772  18.658  0.00  0.00    +0.000 C 
BRANCH   8  14
ATOM     14  O   UNL     1      50.510   4.313  19.564  0.00  0.00    +0.000 OA
ATOM     15  H   UNL     1      50.749   4.184  20.497  0.00  0.00    +0.000 HD
ENDBRANCH   8  14
BRANCH  10  16
ATOM     16  C   UNL     1      49.832   2.516  16.961  0.00  0.00    +0.000 C 
BRANCH  16  17
ATOM     17  O   UNL     1      50.480   1.747  17.963  0.00  0.00    +0.000 OA
ATOM     18  H   UNL     1      50.842   2.362  18.621  0.00  0.00    +0.000 HD
ENDBRANCH  16  17
ENDBRANCH  10  16
ENDBRANCH   1  12
BRANCH   5  19
ATOM     19  C   UNL     1      53.447   7.222  16.041  0.00  0.00    +0.000 C 
ATOM     20  F   UNL     1      54.014   8.362  15.553  0.00  0.00    +0.000 F 
ATOM     21  F   UNL     1      53.754   7.194  17.367  0.00  0.00    +0.000 F 
ATOM     22  F   UNL     1      54.132   6.192  15.474  0.00  0.00    +0.000 F 
ENDBRANCH   5  19
BRANCH   3  23
ATOM     23  C   UNL     1      49.253   8.785  13.607  0.00  0.00    +0.000 C 
BRANCH  23  24
ATOM     24  C   UNL     1      47.826   8.324  13.298  0.00  0.00    +0.000 C 
BRANCH  24  25
ATOM     25  N   UNL     1      47.688   7.633  12.014  0.00  0.00    +0.000 N 
ATOM     26  H   UNL     1      48.587   7.341  11.632  0.00  0.00    +0.000 HD
BRANCH  25  27
ATOM     27  C   UNL     1      46.765   6.564  12.028  0.00  0.00    +0.000 A 
ATOM     28  C   UNL     1      46.293   5.976  13.209  0.00  0.00    +0.000 A 
ATOM     29  C   UNL     1      45.335   4.967  13.177  0.00  0.00    +0.000 A 
ATOM     30  C   UNL     1      44.831   4.586  11.946  0.00  0.00    +0.000 A 
ATOM     31  N   UNL     1      45.219   5.141  10.764  0.00  0.00    +0.000 NA
ATOM     32  C   UNL     1      46.157   6.120  10.847  0.00  0.00    +0.000 A 
BRANCH  30  33
ATOM     33  C   UNL     1      43.779   3.523  11.890  0.00  0.00    +0.000 C 
ATOM     34  N   UNL     1      44.083   2.359  12.540  0.00  0.00    +0.000 N 
ATOM     35  O   UNL     1      42.718   3.672  11.297  0.00  0.00    +0.000 OA
ATOM     36  H   UNL     1      44.985   2.263  12.994  0.00  0.00    +0.000 HD
ATOM     37  H   UNL     1      43.432   1.589  12.510  0.00  0.00    +0.000 HD
ENDBRANCH  30  33
ENDBRANCH  25  27
ENDBRANCH  24  25
ENDBRANCH  23  24
ENDBRANCH   3  23
TORSDOF 10
ENDMDL
