MODEL 1
REMARK VINA RESULT:    -8.741      0.000      0.000
REMARK INTER + INTRA:         -12.383
REMARK INTER:                 -11.296
REMARK INTRA:                  -1.087
REMARK UNBOUND:                -1.087
REMARK  Name = 
REMARK  7 active torsions:
REMARK  status: ('A' for Active; 'I' for Inactive)
REMARK    1  A    between atoms: C_1  and  C_2
REMARK    2  A    between atoms: C_2  and  C_3
REMARK    3  A    between atoms: N_5  and  C_6
REMARK    4  A    between atoms: C_10  and  C_11
REMARK    5  A    between atoms: C_11  and  N_12
REMARK    6  A    between atoms: N_12  and  C_13
REMARK    7  A    between atoms: C_16  and  C_17
REMARK                            x       y       z     vdW  Elec       q    Type
REMARK                         _______ _______ _______ _____ _____    ______ ____
ROOT
ATOM      1  C   UNL     1      46.493   6.145  13.205  0.00  0.00    +0.000 A 
ATOM      2  C   UNL     1      47.127   4.987  13.679  0.00  0.00    +0.000 A 
ATOM      3  C   UNL     1      46.613   3.714  13.414  0.00  0.00    +0.000 A 
ATOM      4  C   UNL     1      45.437   3.566  12.676  0.00  0.00    +0.000 A 
ATOM      5  C   UNL     1      44.769   4.693  12.192  0.00  0.00    +0.000 A 
ATOM      6  C   UNL     1      45.315   5.961  12.463  0.00  0.00    +0.000 A 
ENDROOT
BRANCH   1  11
ATOM      7  C   UNL     1      49.463   7.676  11.525  0.00  0.00    +0.000 C 
ATOM      8  C   UNL     1      49.200   8.468  12.820  0.00  0.00    +0.000 C 
ATOM      9  C   UNL     1      50.563   8.847  13.427  0.00  0.00    +0.000 C 
ATOM     10  C   UNL     1      48.422   7.595  13.855  0.00  0.00    +0.000 C 
ATOM     11  N   UNL     1      47.021   7.397  13.457  0.00  0.00    +0.000 N 
ATOM     12  C   UNL     1      46.283   8.618  13.099  0.00  0.00    +0.000 C 
ATOM     13  C   UNL     1      47.094   9.481  12.105  0.00  0.00    +0.000 C 
ATOM     14  N   UNL     1      48.489   9.743  12.518  0.00  0.00    +0.000 NA
ATOM     15  H   UNL     1      48.450  10.287  13.381  0.00  0.00    +0.000 HD
ENDBRANCH   1  11
BRANCH   5  16
ATOM     16  C   UNL     1      43.479   4.585  11.396  0.00  0.00    +0.000 C 
BRANCH  16  17
ATOM     17  N   UNL     1      43.731   4.784   9.976  0.00  0.00    +0.000 N 
ATOM     18  H   UNL     1      42.965   5.219   9.471  0.00  0.00    +0.000 HD
BRANCH  17  19
ATOM     19  C   UNL     1      44.517   3.927   9.215  0.00  0.00    +0.000 A 
ATOM     20  C   UNL     1      44.525   2.534   9.337  0.00  0.00    +0.000 A 
ATOM     21  C   UNL     1      45.428   1.741   8.609  0.00  0.00    +0.000 A 
ATOM     22  C   UNL     1      46.372   2.322   7.761  0.00  0.00    +0.000 A 
ATOM     23  C   UNL     1      46.389   3.716   7.631  0.00  0.00    +0.000 A 
ATOM     24  C   UNL     1      45.474   4.496   8.359  0.00  0.00    +0.000 A 
BRANCH  22  25
ATOM     25  C   UNL     1      47.350   1.445   7.070  0.00  0.00    +0.000 C 
ATOM     26  N   UNL     1      48.465   2.026   6.533  0.00  0.00    +0.000 N 
ATOM     27  O   UNL     1      47.165   0.239   6.972  0.00  0.00    +0.000 OA
ATOM     28  H   UNL     1      48.623   3.020   6.493  0.00  0.00    +0.000 HD
ATOM     29  H   UNL     1      49.097   1.417   6.031  0.00  0.00    +0.000 HD
ENDBRANCH  22  25
ENDBRANCH  17  19
ENDBRANCH  16  17
ENDBRANCH   5  16
TORSDOF 5
ENDMDL
MODEL 2
REMARK VINA RESULT:    -7.954      1.357      2.089
REMARK INTER + INTRA:         -11.365
REMARK INTER:                 -10.497
REMARK INTRA:                  -0.868
REMARK UNBOUND:                -1.087
REMARK  Name = 
REMARK  7 active torsions:
REMARK  status: ('A' for Active; 'I' for Inactive)
REMARK    1  A    between atoms: C_1  and  C_2
REMARK    2  A    between atoms: C_2  and  C_3
REMARK    3  A    between atoms: N_5  and  C_6
REMARK    4  A    between atoms: C_10  and  C_11
REMARK    5  A    between atoms: C_11  and  N_12
REMARK    6  A    between atoms: N_12  and  C_13
REMARK    7  A    between atoms: C_16  and  C_17
REMARK                            x       y       z     vdW  Elec       q    Type
REMARK                         _______ _______ _______ _____ _____    ______ ____
ROOT
ATOM      1  C   UNL     1      46.807   6.493  12.714  0.00  0.00    +0.000 A 
ATOM      2  C   UNL     1      46.197   7.679  12.278  0.00  0.00    +0.000 A 
ATOM      3  C   UNL     1      44.921   7.675  11.704  0.00  0.00    +0.000 A 
ATOM      4  C   UNL     1      44.226   6.476  11.536  0.00  0.00    +0.000 A 
ATOM      5  C   UNL     1      44.800   5.271  11.948  0.00  0.00    +0.000 A 
ATOM      6  C   UNL     1      46.079   5.306  12.533  0.00  0.00    +0.000 A 
ENDROOT
BRANCH   1  11
ATOM      7  C   UNL     1      49.024   9.479  13.105  0.00  0.00    +0.000 C 
ATOM      8  C   UNL     1      49.895   8.223  13.295  0.00  0.00    +0.000 C 
ATOM      9  C   UNL     1      51.267   8.497  12.652  0.00  0.00    +0.000 C 
ATOM     10  C   UNL     1      49.252   6.990  12.585  0.00  0.00    +0.000 C 
ATOM     11  N   UNL     1      48.059   6.512  13.297  0.00  0.00    +0.000 N 
ATOM     12  C   UNL     1      48.226   6.292  14.742  0.00  0.00    +0.000 C 
ATOM     13  C   UNL     1      48.901   7.512  15.411  0.00  0.00    +0.000 C 
ATOM     14  N   UNL     1      50.138   7.969  14.743  0.00  0.00    +0.000 NA
ATOM     15  H   UNL     1      50.817   7.210  14.815  0.00  0.00    +0.000 HD
ENDBRANCH   1  11
BRANCH   5  16
ATOM     16  C   UNL     1      44.089   3.940  11.773  0.00  0.00    +0.000 C 
BRANCH  16  17
ATOM     17  N   UNL     1      43.694   3.745  10.385  0.00  0.00    +0.000 N 
ATOM     18  H   UNL     1      42.738   3.425  10.262  0.00  0.00    +0.000 HD
BRANCH  17  19
ATOM     19  C   UNL     1      44.577   3.335   9.393  0.00  0.00    +0.000 A 
ATOM     20  C   UNL     1      45.029   2.024   9.221  0.00  0.00    +0.000 A 
ATOM     21  C   UNL     1      46.007   1.706   8.264  0.00  0.00    +0.000 A 
ATOM     22  C   UNL     1      46.585   2.699   7.472  0.00  0.00    +0.000 A 
ATOM     23  C   UNL     1      46.155   4.022   7.633  0.00  0.00    +0.000 A 
ATOM     24  C   UNL     1      45.170   4.322   8.589  0.00  0.00    +0.000 A 
BRANCH  22  25
ATOM     25  C   UNL     1      47.665   2.322   6.526  0.00  0.00    +0.000 C 
ATOM     26  N   UNL     1      47.779   3.034   5.364  0.00  0.00    +0.000 N 
ATOM     27  O   UNL     1      48.430   1.397   6.769  0.00  0.00    +0.000 OA
ATOM     28  H   UNL     1      47.122   3.737   5.064  0.00  0.00    +0.000 HD
ATOM     29  H   UNL     1      48.495   2.735   4.716  0.00  0.00    +0.000 HD
ENDBRANCH  22  25
ENDBRANCH  17  19
ENDBRANCH  16  17
ENDBRANCH   5  16
TORSDOF 5
ENDMDL
MODEL 3
REMARK VINA RESULT:    -7.823      1.340      2.523
REMARK INTER + INTRA:         -11.196
REMARK INTER:                 -10.307
REMARK INTRA:                  -0.889
REMARK UNBOUND:                -1.087
REMARK  Name = 
REMARK  7 active torsions:
REMARK  status: ('A' for Active; 'I' for Inactive)
REMARK    1  A    between atoms: C_1  and  C_2
REMARK    2  A    between atoms: C_2  and  C_3
REMARK    3  A    between atoms: N_5  and  C_6
REMARK    4  A    between atoms: C_10  and  C_11
REMARK    5  A    between atoms: C_11  and  N_12
REMARK    6  A    between atoms: N_12  and  C_13
REMARK    7  A    between atoms: C_16  and  C_17
REMARK                            x       y       z     vdW  Elec       q    Type
REMARK                         _______ _______ _______ _____ _____    ______ ____
ROOT
ATOM      1  C   UNL     1      47.160   7.299  12.199  0.00  0.00    +0.000 A 
ATOM      2  C   UNL     1      46.652   8.604  12.120  0.00  0.00    +0.000 A 
ATOM      3  C   UNL     1      45.309   8.847  11.814  0.00  0.00    +0.000 A 
ATOM      4  C   UNL     1      44.439   7.784  11.561  0.00  0.00    +0.000 A 
ATOM      5  C   UNL     1      44.906   6.469  11.620  0.00  0.00    +0.000 A 
ATOM      6  C   UNL     1      46.258   6.254  11.943  0.00  0.00    +0.000 A 
ENDROOT
BRANCH   1  11
ATOM      7  C   UNL     1      50.001   9.683  11.715  0.00  0.00    +0.000 C 
ATOM      8  C   UNL     1      50.600   8.278  11.916  0.00  0.00    +0.000 C 
ATOM      9  C   UNL     1      51.822   8.147  10.988  0.00  0.00    +0.000 C 
ATOM     10  C   UNL     1      49.565   7.174  11.531  0.00  0.00    +0.000 C 
ATOM     11  N   UNL     1      48.484   7.071  12.522  0.00  0.00    +0.000 N 
ATOM     12  C   UNL     1      48.915   6.960  13.923  0.00  0.00    +0.000 C 
ATOM     13  C   UNL     1      49.968   8.039  14.265  0.00  0.00    +0.000 C 
ATOM     14  N   UNL     1      51.096   8.116  13.312  0.00  0.00    +0.000 NA
ATOM     15  H   UNL     1      51.593   7.226  13.363  0.00  0.00    +0.000 HD
ENDBRANCH   1  11
BRANCH   5  16
ATOM     16  C   UNL     1      44.002   5.281  11.338  0.00  0.00    +0.000 C 
BRANCH  16  17
ATOM     17  N   UNL     1      43.926   5.019   9.908  0.00  0.00    +0.000 N 
ATOM     18  H   UNL     1      42.981   4.992   9.536  0.00  0.00    +0.000 HD
BRANCH  17  19
ATOM     19  C   UNL     1      44.839   4.220   9.231  0.00  0.00    +0.000 A 
ATOM     20  C   UNL     1      45.792   4.692   8.324  0.00  0.00    +0.000 A 
ATOM     21  C   UNL     1      46.608   3.812   7.594  0.00  0.00    +0.000 A 
ATOM     22  C   UNL     1      46.471   2.429   7.728  0.00  0.00    +0.000 A 
ATOM     23  C   UNL     1      45.516   1.932   8.623  0.00  0.00    +0.000 A 
ATOM     24  C   UNL     1      44.713   2.826   9.352  0.00  0.00    +0.000 A 
BRANCH  22  25
ATOM     25  C   UNL     1      47.308   1.542   6.882  0.00  0.00    +0.000 C 
ATOM     26  N   UNL     1      48.255   2.121   6.084  0.00  0.00    +0.000 N 
ATOM     27  O   UNL     1      47.153   0.327   6.886  0.00  0.00    +0.000 OA
ATOM     28  H   UNL     1      48.362   3.115   5.963  0.00  0.00    +0.000 HD
ATOM     29  H   UNL     1      48.785   1.503   5.486  0.00  0.00    +0.000 HD
ENDBRANCH  22  25
ENDBRANCH  17  19
ENDBRANCH  16  17
ENDBRANCH   5  16
TORSDOF 5
ENDMDL
MODEL 4
REMARK VINA RESULT:    -7.603      1.378      2.160
REMARK INTER + INTRA:         -10.912
REMARK INTER:                 -10.079
REMARK INTRA:                  -0.832
REMARK UNBOUND:                -1.087
REMARK  Name = 
REMARK  7 active torsions:
REMARK  status: ('A' for Active; 'I' for Inactive)
REMARK    1  A    between atoms: C_1  and  C_2
REMARK    2  A    between atoms: C_2  and  C_3
REMARK    3  A    between atoms: N_5  and  C_6
REMARK    4  A    between atoms: C_10  and  C_11
REMARK    5  A    between atoms: C_11  and  N_12
REMARK    6  A    between atoms: N_12  and  C_13
REMARK    7  A    between atoms: C_16  and  C_17
REMARK                            x       y       z     vdW  Elec       q    Type
REMARK                         _______ _______ _______ _____ _____    ______ ____
ROOT
ATOM      1  C   UNL     1      47.153   6.415  13.179  0.00  0.00    +0.000 A 
ATOM      2  C   UNL     1      47.435   5.224  13.863  0.00  0.00    +0.000 A 
ATOM      3  C   UNL     1      46.648   4.081  13.692  0.00  0.00    +0.000 A 
ATOM      4  C   UNL     1      45.543   4.104  12.838  0.00  0.00    +0.000 A 
ATOM      5  C   UNL     1      45.221   5.273  12.145  0.00  0.00    +0.000 A 
ATOM      6  C   UNL     1      46.037   6.405  12.327  0.00  0.00    +0.000 A 
ENDROOT
BRANCH   1  11
ATOM      7  C   UNL     1      48.798   7.522  16.350  0.00  0.00    +0.000 C 
ATOM      8  C   UNL     1      48.789   8.722  15.385  0.00  0.00    +0.000 C 
ATOM      9  C   UNL     1      48.529   9.994  16.215  0.00  0.00    +0.000 C 
ATOM     10  C   UNL     1      47.647   8.578  14.330  0.00  0.00    +0.000 C 
ATOM     11  N   UNL     1      47.949   7.533  13.342  0.00  0.00    +0.000 N 
ATOM     12  C   UNL     1      49.275   7.617  12.712  0.00  0.00    +0.000 C 
ATOM     13  C   UNL     1      50.381   7.801  13.777  0.00  0.00    +0.000 C 
ATOM     14  N   UNL     1      50.124   8.889  14.745  0.00  0.00    +0.000 NA
ATOM     15  H   UNL     1      50.108   9.762  14.217  0.00  0.00    +0.000 HD
ENDBRANCH   1  11
BRANCH   5  16
ATOM     16  C   UNL     1      44.020   5.353  11.216  0.00  0.00    +0.000 C 
BRANCH  16  17
ATOM     17  N   UNL     1      43.904   4.140  10.420  0.00  0.00    +0.000 N 
ATOM     18  H   UNL     1      43.417   3.379  10.884  0.00  0.00    +0.000 HD
BRANCH  17  19
ATOM     19  C   UNL     1      44.864   3.740   9.497  0.00  0.00    +0.000 A 
ATOM     20  C   UNL     1      45.572   4.605   8.658  0.00  0.00    +0.000 A 
ATOM     21  C   UNL     1      46.447   4.117   7.673  0.00  0.00    +0.000 A 
ATOM     22  C   UNL     1      46.613   2.744   7.478  0.00  0.00    +0.000 A 
ATOM     23  C   UNL     1      45.906   1.858   8.300  0.00  0.00    +0.000 A 
ATOM     24  C   UNL     1      45.041   2.363   9.286  0.00  0.00    +0.000 A 
BRANCH  22  25
ATOM     25  C   UNL     1      47.493   2.280   6.377  0.00  0.00    +0.000 C 
ATOM     26  N   UNL     1      47.432   2.943   5.183  0.00  0.00    +0.000 N 
ATOM     27  O   UNL     1      48.247   1.326   6.524  0.00  0.00    +0.000 OA
ATOM     28  H   UNL     1      46.764   3.666   4.970  0.00  0.00    +0.000 HD
ATOM     29  H   UNL     1      48.009   2.585   4.434  0.00  0.00    +0.000 HD
ENDBRANCH  22  25
ENDBRANCH  17  19
ENDBRANCH  16  17
ENDBRANCH   5  16
TORSDOF 5
ENDMDL
MODEL 5
REMARK VINA RESULT:    -6.982      3.336      7.484
REMARK INTER + INTRA:         -10.109
REMARK INTER:                  -9.171
REMARK INTRA:                  -0.938
REMARK UNBOUND:                -1.087
REMARK  Name = 
REMARK  7 active torsions:
REMARK  status: ('A' for Active; 'I' for Inactive)
REMARK    1  A    between atoms: C_1  and  C_2
REMARK    2  A    between atoms: C_2  and  C_3
REMARK    3  A    between atoms: N_5  and  C_6
REMARK    4  A    between atoms: C_10  and  C_11
REMARK    5  A    between atoms: C_11  and  N_12
REMARK    6  A    between atoms: N_12  and  C_13
REMARK    7  A    between atoms: C_16  and  C_17
REMARK                            x       y       z     vdW  Elec       q    Type
REMARK                         _______ _______ _______ _____ _____    ______ ____
ROOT
ATOM      1  C   UNL     1      45.282   7.151  11.479  0.00  0.00    +0.000 A 
ATOM      2  C   UNL     1      44.884   8.489  11.613  0.00  0.00    +0.000 A 
ATOM      3  C   UNL     1      45.754   9.462  12.115  0.00  0.00    +0.000 A 
ATOM      4  C   UNL     1      47.047   9.117  12.513  0.00  0.00    +0.000 A 
ATOM      5  C   UNL     1      47.481   7.793  12.405  0.00  0.00    +0.000 A 
ATOM      6  C   UNL     1      46.589   6.838  11.885  0.00  0.00    +0.000 A 
ENDROOT
BRANCH   1  11
ATOM      7  C   UNL     1      45.243   3.506  12.313  0.00  0.00    +0.000 C 
ATOM      8  C   UNL     1      44.454   3.693  11.004  0.00  0.00    +0.000 C 
ATOM      9  C   UNL     1      44.760   2.491  10.091  0.00  0.00    +0.000 C 
ATOM     10  C   UNL     1      44.898   4.998  10.270  0.00  0.00    +0.000 C 
ATOM     11  N   UNL     1      44.420   6.202  10.964  0.00  0.00    +0.000 N 
ATOM     12  C   UNL     1      42.988   6.217  11.297  0.00  0.00    +0.000 C 
ATOM     13  C   UNL     1      42.568   4.897  11.985  0.00  0.00    +0.000 C 
ATOM     14  N   UNL     1      42.988   3.674  11.270  0.00  0.00    +0.000 NA
ATOM     15  H   UNL     1      42.509   3.674  10.368  0.00  0.00    +0.000 HD
ENDBRANCH   1  11
BRANCH   5  16
ATOM     16  C   UNL     1      48.873   7.365  12.838  0.00  0.00    +0.000 C 
BRANCH  16  17
ATOM     17  N   UNL     1      48.993   7.395  14.289  0.00  0.00    +0.000 N 
ATOM     18  H   UNL     1      49.741   7.988  14.636  0.00  0.00    +0.000 HD
BRANCH  17  19
ATOM     19  C   UNL     1      48.689   6.308  15.100  0.00  0.00    +0.000 A 
ATOM     20  C   UNL     1      47.662   5.393  14.854  0.00  0.00    +0.000 A 
ATOM     21  C   UNL     1      47.343   4.383  15.778  0.00  0.00    +0.000 A 
ATOM     22  C   UNL     1      48.025   4.281  16.992  0.00  0.00    +0.000 A 
ATOM     23  C   UNL     1      49.051   5.193  17.265  0.00  0.00    +0.000 A 
ATOM     24  C   UNL     1      49.363   6.192  16.327  0.00  0.00    +0.000 A 
BRANCH  22  25
ATOM     25  C   UNL     1      47.603   3.242  17.965  0.00  0.00    +0.000 C 
ATOM     26  N   UNL     1      48.310   3.128  19.129  0.00  0.00    +0.000 N 
ATOM     27  O   UNL     1      46.656   2.501  17.733  0.00  0.00    +0.000 OA
ATOM     28  H   UNL     1      49.154   3.638  19.332  0.00  0.00    +0.000 HD
ATOM     29  H   UNL     1      48.031   2.388  19.759  0.00  0.00    +0.000 HD
ENDBRANCH  22  25
ENDBRANCH  17  19
ENDBRANCH  16  17
ENDBRANCH   5  16
TORSDOF 5
ENDMDL
MODEL 6
REMARK VINA RESULT:    -6.932      4.628      7.849
REMARK INTER + INTRA:         -10.045
REMARK INTER:                  -9.287
REMARK INTRA:                  -0.758
REMARK UNBOUND:                -1.087
REMARK  Name = 
REMARK  7 active torsions:
REMARK  status: ('A' for Active; 'I' for Inactive)
REMARK    1  A    between atoms: C_1  and  C_2
REMARK    2  A    between atoms: C_2  and  C_3
REMARK    3  A    between atoms: N_5  and  C_6
REMARK    4  A    between atoms: C_10  and  C_11
REMARK    5  A    between atoms: C_11  and  N_12
REMARK    6  A    between atoms: N_12  and  C_13
REMARK    7  A    between atoms: C_16  and  C_17
REMARK                            x       y       z     vdW  Elec       q    Type
REMARK                         _______ _______ _______ _____ _____    ______ ____
ROOT
ATOM      1  C   UNL     1      46.463   6.299  12.405  0.00  0.00    +0.000 A 
ATOM      2  C   UNL     1      47.478   7.265  12.485  0.00  0.00    +0.000 A 
ATOM      3  C   UNL     1      48.405   7.262  13.531  0.00  0.00    +0.000 A 
ATOM      4  C   UNL     1      48.332   6.298  14.539  0.00  0.00    +0.000 A 
ATOM      5  C   UNL     1      47.331   5.324  14.503  0.00  0.00    +0.000 A 
ATOM      6  C   UNL     1      46.419   5.343  13.431  0.00  0.00    +0.000 A 
ENDROOT
BRANCH   1  11
ATOM      7  C   UNL     1      44.996   3.288  10.743  0.00  0.00    +0.000 C 
ATOM      8  C   UNL     1      44.784   4.489   9.803  0.00  0.00    +0.000 C 
ATOM      9  C   UNL     1      44.974   3.996   8.356  0.00  0.00    +0.000 C 
ATOM     10  C   UNL     1      45.835   5.608  10.087  0.00  0.00    +0.000 C 
ATOM     11  N   UNL     1      45.565   6.300  11.355  0.00  0.00    +0.000 N 
ATOM     12  C   UNL     1      44.186   6.779  11.536  0.00  0.00    +0.000 C 
ATOM     13  C   UNL     1      43.167   5.663  11.209  0.00  0.00    +0.000 C 
ATOM     14  N   UNL     1      43.386   4.996   9.908  0.00  0.00    +0.000 NA
ATOM     15  H   UNL     1      43.257   5.702   9.183  0.00  0.00    +0.000 HD
ENDBRANCH   1  11
BRANCH   5  16
ATOM     16  C   UNL     1      47.201   4.263  15.583  0.00  0.00    +0.000 C 
BRANCH  16  17
ATOM     17  N   UNL     1      48.005   4.612  16.746  0.00  0.00    +0.000 N 
ATOM     18  H   UNL     1      48.036   5.606  16.952  0.00  0.00    +0.000 HD
BRANCH  17  19
ATOM     19  C   UNL     1      49.139   3.904  17.128  0.00  0.00    +0.000 A 
ATOM     20  C   UNL     1      50.290   4.477  17.675  0.00  0.00    +0.000 A 
ATOM     21  C   UNL     1      51.438   3.710  17.934  0.00  0.00    +0.000 A 
ATOM     22  C   UNL     1      51.478   2.350  17.621  0.00  0.00    +0.000 A 
ATOM     23  C   UNL     1      50.340   1.756  17.063  0.00  0.00    +0.000 A 
ATOM     24  C   UNL     1      49.196   2.535  16.818  0.00  0.00    +0.000 A 
BRANCH  22  25
ATOM     25  C   UNL     1      52.739   1.601  17.847  0.00  0.00    +0.000 C 
ATOM     26  N   UNL     1      53.917   2.216  17.529  0.00  0.00    +0.000 N 
ATOM     27  O   UNL     1      52.730   0.461  18.296  0.00  0.00    +0.000 OA
ATOM     28  H   UNL     1      53.984   3.108  17.065  0.00  0.00    +0.000 HD
ATOM     29  H   UNL     1      54.761   1.673  17.652  0.00  0.00    +0.000 HD
ENDBRANCH  22  25
ENDBRANCH  17  19
ENDBRANCH  16  17
ENDBRANCH   5  16
TORSDOF 5
ENDMDL
MODEL 7
REMARK VINA RESULT:    -6.530      3.848      6.259
REMARK INTER + INTRA:          -9.525
REMARK INTER:                  -8.722
REMARK INTRA:                  -0.803
REMARK UNBOUND:                -1.087
REMARK  Name = 
REMARK  7 active torsions:
REMARK  status: ('A' for Active; 'I' for Inactive)
REMARK    1  A    between atoms: C_1  and  C_2
REMARK    2  A    between atoms: C_2  and  C_3
REMARK    3  A    between atoms: N_5  and  C_6
REMARK    4  A    between atoms: C_10  and  C_11
REMARK    5  A    between atoms: C_11  and  N_12
REMARK    6  A    between atoms: N_12  and  C_13
REMARK    7  A    between atoms: C_16  and  C_17
REMARK                            x       y       z     vdW  Elec       q    Type
REMARK                         _______ _______ _______ _____ _____    ______ ____
ROOT
ATOM      1  C   UNL     1      50.220   6.148  16.693  0.00  0.00    +0.000 A 
ATOM      2  C   UNL     1      51.434   6.822  16.491  0.00  0.00    +0.000 A 
ATOM      3  C   UNL     1      51.583   7.767  15.472  0.00  0.00    +0.000 A 
ATOM      4  C   UNL     1      50.520   8.053  14.612  0.00  0.00    +0.000 A 
ATOM      5  C   UNL     1      49.297   7.398  14.772  0.00  0.00    +0.000 A 
ATOM      6  C   UNL     1      49.171   6.462  15.814  0.00  0.00    +0.000 A 
ENDROOT
BRANCH   1  11
ATOM      7  C   UNL     1      47.266   5.794  18.958  0.00  0.00    +0.000 C 
ATOM      8  C   UNL     1      48.451   5.064  19.619  0.00  0.00    +0.000 C 
ATOM      9  C   UNL     1      48.366   5.304  21.138  0.00  0.00    +0.000 C 
ATOM     10  C   UNL     1      49.810   5.635  19.104  0.00  0.00    +0.000 C 
ATOM     11  N   UNL     1      50.079   5.231  17.717  0.00  0.00    +0.000 N 
ATOM     12  C   UNL     1      49.941   3.795  17.434  0.00  0.00    +0.000 C 
ATOM     13  C   UNL     1      48.605   3.249  17.991  0.00  0.00    +0.000 C 
ATOM     14  N   UNL     1      48.346   3.594  19.405  0.00  0.00    +0.000 NA
ATOM     15  H   UNL     1      49.074   3.146  19.962  0.00  0.00    +0.000 HD
ENDBRANCH   1  11
BRANCH   5  16
ATOM     16  C   UNL     1      48.116   7.665  13.853  0.00  0.00    +0.000 C 
BRANCH  16  17
ATOM     17  N   UNL     1      47.064   6.680  14.068  0.00  0.00    +0.000 N 
ATOM     18  H   UNL     1      47.140   6.169  14.943  0.00  0.00    +0.000 HD
BRANCH  17  19
ATOM     19  C   UNL     1      46.458   5.976  13.034  0.00  0.00    +0.000 A 
ATOM     20  C   UNL     1      46.065   6.533  11.814  0.00  0.00    +0.000 A 
ATOM     21  C   UNL     1      45.357   5.782  10.861  0.00  0.00    +0.000 A 
ATOM     22  C   UNL     1      44.994   4.459  11.116  0.00  0.00    +0.000 A 
ATOM     23  C   UNL     1      45.367   3.883  12.336  0.00  0.00    +0.000 A 
ATOM     24  C   UNL     1      46.082   4.644  13.276  0.00  0.00    +0.000 A 
BRANCH  22  25
ATOM     25  C   UNL     1      44.184   3.732  10.106  0.00  0.00    +0.000 C 
ATOM     26  N   UNL     1      44.021   4.309   8.877  0.00  0.00    +0.000 N 
ATOM     27  O   UNL     1      43.667   2.651  10.363  0.00  0.00    +0.000 OA
ATOM     28  H   UNL     1      44.335   5.236   8.641  0.00  0.00    +0.000 HD
ATOM     29  H   UNL     1      43.433   3.817   8.219  0.00  0.00    +0.000 HD
ENDBRANCH  22  25
ENDBRANCH  17  19
ENDBRANCH  16  17
ENDBRANCH   5  16
TORSDOF 5
ENDMDL
MODEL 8
REMARK VINA RESULT:    -6.391      3.482      5.866
REMARK INTER + INTRA:          -9.346
REMARK INTER:                  -8.483
REMARK INTRA:                  -0.862
REMARK UNBOUND:                -1.087
REMARK  Name = 
REMARK  7 active torsions:
REMARK  status: ('A' for Active; 'I' for Inactive)
REMARK    1  A    between atoms: C_1  and  C_2
REMARK    2  A    between atoms: C_2  and  C_3
REMARK    3  A    between atoms: N_5  and  C_6
REMARK    4  A    between atoms: C_10  and  C_11
REMARK    5  A    between atoms: C_11  and  N_12
REMARK    6  A    between atoms: N_12  and  C_13
REMARK    7  A    between atoms: C_16  and  C_17
REMARK                            x       y       z     vdW  Elec       q    Type
REMARK                         _______ _______ _______ _____ _____    ______ ____
ROOT
ATOM      1  C   UNL     1      49.302   6.557  16.272  0.00  0.00    +0.000 A 
ATOM      2  C   UNL     1      50.591   7.096  16.400  0.00  0.00    +0.000 A 
ATOM      3  C   UNL     1      51.223   7.737  15.331  0.00  0.00    +0.000 A 
ATOM      4  C   UNL     1      50.586   7.843  14.093  0.00  0.00    +0.000 A 
ATOM      5  C   UNL     1      49.305   7.311  13.918  0.00  0.00    +0.000 A 
ATOM      6  C   UNL     1      48.688   6.683  15.016  0.00  0.00    +0.000 A 
ENDROOT
BRANCH   1  11
ATOM      7  C   UNL     1      49.438   2.919  17.126  0.00  0.00    +0.000 C 
ATOM      8  C   UNL     1      48.246   3.533  17.885  0.00  0.00    +0.000 C 
ATOM      9  C   UNL     1      47.105   2.498  17.887  0.00  0.00    +0.000 C 
ATOM     10  C   UNL     1      47.740   4.826  17.171  0.00  0.00    +0.000 C 
ATOM     11  N   UNL     1      48.679   5.944  17.342  0.00  0.00    +0.000 N 
ATOM     12  C   UNL     1      49.109   6.208  18.723  0.00  0.00    +0.000 C 
ATOM     13  C   UNL     1      49.565   4.903  19.418  0.00  0.00    +0.000 C 
ATOM     14  N   UNL     1      48.606   3.785  19.309  0.00  0.00    +0.000 NA
ATOM     15  H   UNL     1      47.756   4.069  19.797  0.00  0.00    +0.000 HD
ENDBRANCH   1  11
BRANCH   5  16
ATOM     16  C   UNL     1      48.577   7.388  12.587  0.00  0.00    +0.000 C 
BRANCH  16  17
ATOM     17  N   UNL     1      47.134   7.374  12.788  0.00  0.00    +0.000 N 
ATOM     18  H   UNL     1      46.824   7.841  13.635  0.00  0.00    +0.000 HD
BRANCH  17  19
ATOM     19  C   UNL     1      46.317   6.331  12.367  0.00  0.00    +0.000 A 
ATOM     20  C   UNL     1      45.847   5.305  13.191  0.00  0.00    +0.000 A 
ATOM     21  C   UNL     1      45.116   4.224  12.670  0.00  0.00    +0.000 A 
ATOM     22  C   UNL     1      44.861   4.124  11.301  0.00  0.00    +0.000 A 
ATOM     23  C   UNL     1      45.332   5.135  10.455  0.00  0.00    +0.000 A 
ATOM     24  C   UNL     1      46.054   6.214  10.993  0.00  0.00    +0.000 A 
BRANCH  22  25
ATOM     25  C   UNL     1      44.147   2.927  10.792  0.00  0.00    +0.000 C 
ATOM     26  N   UNL     1      44.717   2.228   9.764  0.00  0.00    +0.000 N 
ATOM     27  O   UNL     1      43.075   2.575  11.267  0.00  0.00    +0.000 OA
ATOM     28  H   UNL     1      45.543   2.523   9.268  0.00  0.00    +0.000 HD
ATOM     29  H   UNL     1      44.195   1.440   9.405  0.00  0.00    +0.000 HD
ENDBRANCH  22  25
ENDBRANCH  17  19
ENDBRANCH  16  17
ENDBRANCH   5  16
TORSDOF 5
ENDMDL
MODEL 9
REMARK VINA RESULT:    -5.983      2.846      4.626
REMARK INTER + INTRA:          -8.819
REMARK INTER:                  -7.842
REMARK INTRA:                  -0.976
REMARK UNBOUND:                -1.087
REMARK  Name = 
REMARK  7 active torsions:
REMARK  status: ('A' for Active; 'I' for Inactive)
REMARK    1  A    between atoms: C_1  and  C_2
REMARK    2  A    between atoms: C_2  and  C_3
REMARK    3  A    between atoms: N_5  and  C_6
REMARK    4  A    between atoms: C_10  and  C_11
REMARK    5  A    between atoms: C_11  and  N_12
REMARK    6  A    between atoms: N_12  and  C_13
REMARK    7  A    between atoms: C_16  and  C_17
REMARK                            x       y       z     vdW  Elec       q    Type
REMARK                         _______ _______ _______ _____ _____    ______ ____
ROOT
ATOM      1  C   UNL     1      49.236   7.523  14.712  0.00  0.00    +0.000 A 
ATOM      2  C   UNL     1      50.141   7.707  13.656  0.00  0.00    +0.000 A 
ATOM      3  C   UNL     1      49.699   7.942  12.350  0.00  0.00    +0.000 A 
ATOM      4  C   UNL     1      48.333   7.982  12.062  0.00  0.00    +0.000 A 
ATOM      5  C   UNL     1      47.398   7.793  13.083  0.00  0.00    +0.000 A 
ATOM      6  C   UNL     1      47.870   7.572  14.389  0.00  0.00    +0.000 A 
ENDROOT
BRANCH   1  11
ATOM      7  C   UNL     1      48.126   4.803  17.027  0.00  0.00    +0.000 C 
ATOM      8  C   UNL     1      48.818   5.886  17.877  0.00  0.00    +0.000 C 
ATOM      9  C   UNL     1      48.051   6.004  19.207  0.00  0.00    +0.000 C 
ATOM     10  C   UNL     1      48.773   7.270  17.155  0.00  0.00    +0.000 C 
ATOM     11  N   UNL     1      49.684   7.312  16.002  0.00  0.00    +0.000 N 
ATOM     12  C   UNL     1      51.062   6.870  16.264  0.00  0.00    +0.000 C 
ATOM     13  C   UNL     1      51.074   5.518  17.015  0.00  0.00    +0.000 C 
ATOM     14  N   UNL     1      50.210   5.476  18.213  0.00  0.00    +0.000 NA
ATOM     15  H   UNL     1      50.582   6.157  18.876  0.00  0.00    +0.000 HD
ENDBRANCH   1  11
BRANCH   5  16
ATOM     16  C   UNL     1      45.902   7.814  12.817  0.00  0.00    +0.000 C 
BRANCH  16  17
ATOM     17  N   UNL     1      45.319   6.501  13.054  0.00  0.00    +0.000 N 
ATOM     18  H   UNL     1      45.503   6.121  13.978  0.00  0.00    +0.000 HD
BRANCH  17  19
ATOM     19  C   UNL     1      45.157   5.547  12.056  0.00  0.00    +0.000 A 
ATOM     20  C   UNL     1      44.926   4.188  12.282  0.00  0.00    +0.000 A 
ATOM     21  C   UNL     1      44.884   3.266  11.223  0.00  0.00    +0.000 A 
ATOM     22  C   UNL     1      45.105   3.675   9.907  0.00  0.00    +0.000 A 
ATOM     23  C   UNL     1      45.350   5.030   9.657  0.00  0.00    +0.000 A 
ATOM     24  C   UNL     1      45.380   5.942  10.726  0.00  0.00    +0.000 A 
BRANCH  22  25
ATOM     25  C   UNL     1      45.121   2.651   8.833  0.00  0.00    +0.000 C 
ATOM     26  N   UNL     1      44.624   1.410   9.120  0.00  0.00    +0.000 N 
ATOM     27  O   UNL     1      45.574   2.900   7.722  0.00  0.00    +0.000 OA
ATOM     28  H   UNL     1      44.332   1.116  10.038  0.00  0.00    +0.000 HD
ATOM     29  H   UNL     1      44.682   0.716   8.388  0.00  0.00    +0.000 HD
ENDBRANCH  22  25
ENDBRANCH  17  19
ENDBRANCH  16  17
ENDBRANCH   5  16
TORSDOF 5
ENDMDL
