MODEL 1
REMARK VINA RESULT:    -8.946      0.000      0.000
REMARK INTER + INTRA:         -14.419
REMARK INTER:                 -13.131
REMARK INTRA:                  -1.288
REMARK UNBOUND:                -1.288
REMARK  Name = 
REMARK  8 active torsions:
REMARK  status: ('A' for Active; 'I' for Inactive)
REMARK    1  A    between atoms: C_2  and  C_3
REMARK    2  A    between atoms: C_3  and  N_4
REMARK    3  A    between atoms: C_5  and  C_7
REMARK    4  A    between atoms: N_17  and  C_18
REMARK    5  A    between atoms: C_18  and  C_19
REMARK    6  A    between atoms: C_22  and  C_23
REMARK    7  A    between atoms: C_23  and  N_24
REMARK    8  A    between atoms: C_25  and  C_27
REMARK                            x       y       z     vdW  Elec       q    Type
REMARK                         _______ _______ _______ _____ _____    ______ ____
ROOT
ATOM      1  O   UNL     1      47.356   5.312  17.656  0.00  0.00    +0.000 OA
ATOM      2  C   UNL     1      47.557   4.305  16.982  0.00  0.00    +0.000 C 
ATOM      3  N   UNL     1      47.528   4.292  15.604  0.00  0.00    +0.000 N 
ATOM      4  H   UNL     1      47.529   3.395  15.129  0.00  0.00    +0.000 HD
ENDROOT
BRANCH   2   5
ATOM      5  C   UNL     1      47.786   2.934  17.619  0.00  0.00    +0.000 C 
BRANCH   5   6
ATOM      6  N   UNL     1      49.185   2.735  17.942  0.00  0.00    +0.000 N 
ATOM      7  C   UNL     1      50.051   2.141  17.061  0.00  0.00    +0.000 C 
ATOM      8  O   UNL     1      49.678   1.760  15.952  0.00  0.00    +0.000 OA
ATOM      9  H   UNL     1      49.443   2.814  18.923  0.00  0.00    +0.000 HD
BRANCH   7  10
ATOM     10  C   UNL     1      51.454   2.035  17.478  0.00  0.00    +0.000 A 
ATOM     11  C   UNL     1      52.040   0.784  17.617  0.00  0.00    +0.000 A 
ATOM     12  S   UNL     1      53.675   0.842  18.100  0.00  0.00    +0.000 S 
ATOM     13  C   UNL     1      53.648   2.541  18.179  0.00  0.00    +0.000 A 
ATOM     14  N   UNL     1      54.745   3.242  18.569  0.00  0.00    +0.000 NA
ATOM     15  C   UNL     1      54.575   4.522  18.612  0.00  0.00    +0.000 A 
ATOM     16  N   UNL     1      53.408   5.164  18.286  0.00  0.00    +0.000 N 
ATOM     17  C   UNL     1      52.290   4.500  17.841  0.00  0.00    +0.000 A 
ATOM     18  O   UNL     1      51.287   5.107  17.474  0.00  0.00    +0.000 OA
ATOM     19  C   UNL     1      52.418   3.057  17.810  0.00  0.00    +0.000 A 
ATOM     20  H   UNL     1      53.348   6.171  18.317  0.00  0.00    +0.000 HD
ENDBRANCH   7  10
ENDBRANCH   5   6
ENDBRANCH   2   5
BRANCH   3  21
ATOM     21  C   UNL     1      47.280   5.484  14.827  0.00  0.00    +0.000 C 
BRANCH  21  22
ATOM     22  C   UNL     1      46.383   5.201  13.647  0.00  0.00    +0.000 A 
ATOM     23  C   UNL     1      46.107   3.887  13.249  0.00  0.00    +0.000 A 
ATOM     24  C   UNL     1      45.263   3.632  12.160  0.00  0.00    +0.000 A 
ATOM     25  C   UNL     1      44.687   4.686  11.437  0.00  0.00    +0.000 A 
ATOM     26  C   UNL     1      44.965   6.001  11.834  0.00  0.00    +0.000 A 
ATOM     27  C   UNL     1      45.814   6.256  12.919  0.00  0.00    +0.000 A 
BRANCH  25  28
ATOM     28  C   UNL     1      43.806   4.413  10.245  0.00  0.00    +0.000 C 
BRANCH  28  29
ATOM     29  N   UNL     1      44.402   3.495   9.299  0.00  0.00    +0.000 N 
ATOM     30  C   UNL     1      45.373   3.940   8.429  0.00  0.00    +0.000 C 
ATOM     31  O   UNL     1      45.760   5.106   8.420  0.00  0.00    +0.000 OA
ATOM     32  H   UNL     1      44.148   2.517   9.335  0.00  0.00    +0.000 HD
BRANCH  30  33
ATOM     33  C   UNL     1      45.863   2.906   7.422  0.00  0.00    +0.000 C 
ATOM     34  C   UNL     1      46.307   1.583   8.043  0.00  0.00    +0.000 C 
ATOM     35  C   UNL     1      47.264   0.961   7.025  0.00  0.00    +0.000 C 
ATOM     36  C   UNL     1      47.697   2.086   6.089  0.00  0.00    +0.000 C 
ATOM     37  C   UNL     1      47.125   3.362   6.686  0.00  0.00    +0.000 C 
ENDBRANCH  30  33
ENDBRANCH  28  29
ENDBRANCH  25  28
ENDBRANCH  21  22
ENDBRANCH   3  21
TORSDOF 8
ENDMDL
MODEL 2
REMARK VINA RESULT:    -8.286      1.996      2.714
REMARK INTER + INTRA:         -13.449
REMARK INTER:                 -12.524
REMARK INTRA:                  -0.924
REMARK UNBOUND:                -1.288
REMARK  Name = 
REMARK  8 active torsions:
REMARK  status: ('A' for Active; 'I' for Inactive)
REMARK    1  A    between atoms: C_2  and  C_3
REMARK    2  A    between atoms: C_3  and  N_4
REMARK    3  A    between atoms: C_5  and  C_7
REMARK    4  A    between atoms: N_17  and  C_18
REMARK    5  A    between atoms: C_18  and  C_19
REMARK    6  A    between atoms: C_22  and  C_23
REMARK    7  A    between atoms: C_23  and  N_24
REMARK    8  A    between atoms: C_25  and  C_27
REMARK                            x       y       z     vdW  Elec       q    Type
REMARK                         _______ _______ _______ _____ _____    ______ ____
ROOT
ATOM      1  O   UNL     1      50.015   6.851  14.868  0.00  0.00    +0.000 OA
ATOM      2  C   UNL     1      49.011   7.036  15.551  0.00  0.00    +0.000 C 
ATOM      3  N   UNL     1      47.886   7.684  15.091  0.00  0.00    +0.000 N 
ATOM      4  H   UNL     1      47.173   7.951  15.763  0.00  0.00    +0.000 HD
ENDROOT
BRANCH   2   5
ATOM      5  C   UNL     1      48.944   6.627  17.022  0.00  0.00    +0.000 C 
BRANCH   5   6
ATOM      6  N   UNL     1      50.139   5.908  17.420  0.00  0.00    +0.000 N 
ATOM      7  C   UNL     1      50.073   4.736  18.126  0.00  0.00    +0.000 C 
ATOM      8  O   UNL     1      48.994   4.237  18.445  0.00  0.00    +0.000 OA
ATOM      9  H   UNL     1      51.016   6.423  17.384  0.00  0.00    +0.000 HD
BRANCH   7  10
ATOM     10  C   UNL     1      51.347   4.073  18.433  0.00  0.00    +0.000 A 
ATOM     11  C   UNL     1      52.285   4.715  19.229  0.00  0.00    +0.000 A 
ATOM     12  S   UNL     1      53.702   3.802  19.492  0.00  0.00    +0.000 S 
ATOM     13  C   UNL     1      53.127   2.529  18.521  0.00  0.00    +0.000 A 
ATOM     14  N   UNL     1      53.883   1.422  18.297  0.00  0.00    +0.000 NA
ATOM     15  C   UNL     1      53.335   0.549  17.517  0.00  0.00    +0.000 A 
ATOM     16  N   UNL     1      52.093   0.680  16.952  0.00  0.00    +0.000 N 
ATOM     17  C   UNL     1      51.275   1.758  17.189  0.00  0.00    +0.000 A 
ATOM     18  O   UNL     1      50.133   1.809  16.739  0.00  0.00    +0.000 OA
ATOM     19  C   UNL     1      51.859   2.785  18.029  0.00  0.00    +0.000 A 
ATOM     20  H   UNL     1      51.712  -0.052  16.371  0.00  0.00    +0.000 HD
ENDBRANCH   7  10
ENDBRANCH   5   6
ENDBRANCH   2   5
BRANCH   3  21
ATOM     21  C   UNL     1      47.782   8.185  13.740  0.00  0.00    +0.000 C 
BRANCH  21  22
ATOM     22  C   UNL     1      46.750   7.425  12.943  0.00  0.00    +0.000 A 
ATOM     23  C   UNL     1      46.678   6.028  13.002  0.00  0.00    +0.000 A 
ATOM     24  C   UNL     1      45.708   5.331  12.269  0.00  0.00    +0.000 A 
ATOM     25  C   UNL     1      44.798   6.015  11.452  0.00  0.00    +0.000 A 
ATOM     26  C   UNL     1      44.872   7.413  11.392  0.00  0.00    +0.000 A 
ATOM     27  C   UNL     1      45.845   8.110  12.119  0.00  0.00    +0.000 A 
BRANCH  25  28
ATOM     28  C   UNL     1      43.776   5.263  10.638  0.00  0.00    +0.000 C 
BRANCH  28  29
ATOM     29  N   UNL     1      44.335   4.655   9.449  0.00  0.00    +0.000 N 
ATOM     30  C   UNL     1      44.481   3.287   9.382  0.00  0.00    +0.000 C 
ATOM     31  O   UNL     1      44.154   2.547  10.307  0.00  0.00    +0.000 OA
ATOM     32  H   UNL     1      44.545   5.239   8.652  0.00  0.00    +0.000 HD
BRANCH  30  33
ATOM     33  C   UNL     1      45.160   2.770   8.118  0.00  0.00    +0.000 C 
ATOM     34  C   UNL     1      46.030   1.535   8.331  0.00  0.00    +0.000 C 
ATOM     35  C   UNL     1      47.031   1.541   7.174  0.00  0.00    +0.000 C 
ATOM     36  C   UNL     1      47.022   2.955   6.599  0.00  0.00    +0.000 C 
ATOM     37  C   UNL     1      46.156   3.777   7.540  0.00  0.00    +0.000 C 
ENDBRANCH  30  33
ENDBRANCH  28  29
ENDBRANCH  25  28
ENDBRANCH  21  22
ENDBRANCH   3  21
TORSDOF 8
ENDMDL
MODEL 3
REMARK VINA RESULT:    -7.904      3.233      4.543
REMARK INTER + INTRA:         -12.889
REMARK INTER:                 -11.456
REMARK INTRA:                  -1.433
REMARK UNBOUND:                -1.288
REMARK  Name = 
REMARK  8 active torsions:
REMARK  status: ('A' for Active; 'I' for Inactive)
REMARK    1  A    between atoms: C_2  and  C_3
REMARK    2  A    between atoms: C_3  and  N_4
REMARK    3  A    between atoms: C_5  and  C_7
REMARK    4  A    between atoms: N_17  and  C_18
REMARK    5  A    between atoms: C_18  and  C_19
REMARK    6  A    between atoms: C_22  and  C_23
REMARK    7  A    between atoms: C_23  and  N_24
REMARK    8  A    between atoms: C_25  and  C_27
REMARK                            x       y       z     vdW  Elec       q    Type
REMARK                         _______ _______ _______ _____ _____    ______ ____
ROOT
ATOM      1  O   UNL     1      49.740   9.029  14.185  0.00  0.00    +0.000 OA
ATOM      2  C   UNL     1      48.704   9.419  14.720  0.00  0.00    +0.000 C 
ATOM      3  N   UNL     1      47.577   9.788  14.019  0.00  0.00    +0.000 N 
ATOM      4  H   UNL     1      46.831  10.262  14.518  0.00  0.00    +0.000 HD
ENDROOT
BRANCH   2   5
ATOM      5  C   UNL     1      48.594   9.606  16.233  0.00  0.00    +0.000 C 
BRANCH   5   6
ATOM      6  N   UNL     1      48.411   8.335  16.904  0.00  0.00    +0.000 N 
ATOM      7  C   UNL     1      49.440   7.713  17.562  0.00  0.00    +0.000 C 
ATOM      8  O   UNL     1      50.563   8.215  17.618  0.00  0.00    +0.000 OA
ATOM      9  H   UNL     1      47.579   7.803  16.659  0.00  0.00    +0.000 HD
BRANCH   7  10
ATOM     10  C   UNL     1      49.127   6.452  18.245  0.00  0.00    +0.000 A 
ATOM     11  C   UNL     1      49.368   6.325  19.606  0.00  0.00    +0.000 A 
ATOM     12  S   UNL     1      48.941   4.800  20.240  0.00  0.00    +0.000 S 
ATOM     13  C   UNL     1      48.453   4.240  18.709  0.00  0.00    +0.000 A 
ATOM     14  N   UNL     1      48.000   2.970  18.540  0.00  0.00    +0.000 NA
ATOM     15  C   UNL     1      47.692   2.670  17.321  0.00  0.00    +0.000 A 
ATOM     16  N   UNL     1      47.786   3.533  16.259  0.00  0.00    +0.000 N 
ATOM     17  C   UNL     1      48.193   4.839  16.392  0.00  0.00    +0.000 A 
ATOM     18  O   UNL     1      48.185   5.613  15.439  0.00  0.00    +0.000 OA
ATOM     19  C   UNL     1      48.585   5.215  17.735  0.00  0.00    +0.000 A 
ATOM     20  H   UNL     1      47.505   3.243  15.335  0.00  0.00    +0.000 HD
ENDBRANCH   7  10
ENDBRANCH   5   6
ENDBRANCH   2   5
BRANCH   3  21
ATOM     21  C   UNL     1      47.510   9.724  12.577  0.00  0.00    +0.000 C 
BRANCH  21  22
ATOM     22  C   UNL     1      46.623   8.596  12.111  0.00  0.00    +0.000 A 
ATOM     23  C   UNL     1      47.126   7.298  11.956  0.00  0.00    +0.000 A 
ATOM     24  C   UNL     1      46.293   6.253  11.536  0.00  0.00    +0.000 A 
ATOM     25  C   UNL     1      44.941   6.486  11.250  0.00  0.00    +0.000 A 
ATOM     26  C   UNL     1      44.437   7.785  11.403  0.00  0.00    +0.000 A 
ATOM     27  C   UNL     1      45.272   8.831  11.817  0.00  0.00    +0.000 A 
BRANCH  25  28
ATOM     28  C   UNL     1      44.052   5.369  10.766  0.00  0.00    +0.000 C 
BRANCH  28  29
ATOM     29  N   UNL     1      44.556   4.719   9.575  0.00  0.00    +0.000 N 
ATOM     30  C   UNL     1      44.435   3.354   9.434  0.00  0.00    +0.000 C 
ATOM     31  O   UNL     1      43.910   2.651  10.294  0.00  0.00    +0.000 OA
ATOM     32  H   UNL     1      44.928   5.286   8.826  0.00  0.00    +0.000 HD
BRANCH  30  33
ATOM     33  C   UNL     1      45.080   2.773   8.181  0.00  0.00    +0.000 C 
ATOM     34  C   UNL     1      45.968   1.559   8.435  0.00  0.00    +0.000 C 
ATOM     35  C   UNL     1      46.932   1.509   7.248  0.00  0.00    +0.000 C 
ATOM     36  C   UNL     1      46.892   2.887   6.595  0.00  0.00    +0.000 C 
ATOM     37  C   UNL     1      46.047   3.754   7.516  0.00  0.00    +0.000 C 
ENDBRANCH  30  33
ENDBRANCH  28  29
ENDBRANCH  25  28
ENDBRANCH  21  22
ENDBRANCH   3  21
TORSDOF 8
ENDMDL
MODEL 4
REMARK VINA RESULT:    -7.809      3.091      4.588
REMARK INTER + INTRA:         -12.749
REMARK INTER:                 -11.135
REMARK INTRA:                  -1.614
REMARK UNBOUND:                -1.288
REMARK  Name = 
REMARK  8 active torsions:
REMARK  status: ('A' for Active; 'I' for Inactive)
REMARK    1  A    between atoms: C_2  and  C_3
REMARK    2  A    between atoms: C_3  and  N_4
REMARK    3  A    between atoms: C_5  and  C_7
REMARK    4  A    between atoms: N_17  and  C_18
REMARK    5  A    between atoms: C_18  and  C_19
REMARK    6  A    between atoms: C_22  and  C_23
REMARK    7  A    between atoms: C_23  and  N_24
REMARK    8  A    between atoms: C_25  and  C_27
REMARK                            x       y       z     vdW  Elec       q    Type
REMARK                         _______ _______ _______ _____ _____    ______ ____
ROOT
ATOM      1  O   UNL     1      50.566   9.900  11.876  0.00  0.00    +0.000 OA
ATOM      2  C   UNL     1      50.497   9.266  12.926  0.00  0.00    +0.000 C 
ATOM      3  N   UNL     1      49.334   9.112  13.648  0.00  0.00    +0.000 N 
ATOM      4  H   UNL     1      49.393   8.728  14.586  0.00  0.00    +0.000 HD
ENDROOT
BRANCH   2   5
ATOM      5  C   UNL     1      51.730   8.642  13.580  0.00  0.00    +0.000 C 
BRANCH   5   6
ATOM      6  N   UNL     1      51.362   7.526  14.430  0.00  0.00    +0.000 N 
ATOM      7  C   UNL     1      51.760   7.457  15.739  0.00  0.00    +0.000 C 
ATOM      8  O   UNL     1      52.439   8.345  16.252  0.00  0.00    +0.000 OA
ATOM      9  H   UNL     1      51.024   6.687  13.963  0.00  0.00    +0.000 HD
BRANCH   7  10
ATOM     10  C   UNL     1      51.290   6.303  16.516  0.00  0.00    +0.000 A 
ATOM     11  C   UNL     1      52.208   5.473  17.144  0.00  0.00    +0.000 A 
ATOM     12  S   UNL     1      51.493   4.188  18.009  0.00  0.00    +0.000 S 
ATOM     13  C   UNL     1      49.930   4.674  17.544  0.00  0.00    +0.000 A 
ATOM     14  N   UNL     1      48.834   3.968  17.928  0.00  0.00    +0.000 NA
ATOM     15  C   UNL     1      47.714   4.432  17.479  0.00  0.00    +0.000 A 
ATOM     16  N   UNL     1      47.594   5.547  16.691  0.00  0.00    +0.000 N 
ATOM     17  C   UNL     1      48.669   6.318  16.318  0.00  0.00    +0.000 A 
ATOM     18  O   UNL     1      48.523   7.359  15.684  0.00  0.00    +0.000 OA
ATOM     19  C   UNL     1      49.953   5.818  16.766  0.00  0.00    +0.000 A 
ATOM     20  H   UNL     1      46.686   5.872  16.393  0.00  0.00    +0.000 HD
ENDBRANCH   7  10
ENDBRANCH   5   6
ENDBRANCH   2   5
BRANCH   3  21
ATOM     21  C   UNL     1      48.076   9.673  13.212  0.00  0.00    +0.000 C 
BRANCH  21  22
ATOM     22  C   UNL     1      47.145   8.607  12.687  0.00  0.00    +0.000 A 
ATOM     23  C   UNL     1      45.755   8.743  12.802  0.00  0.00    +0.000 A 
ATOM     24  C   UNL     1      44.897   7.756  12.301  0.00  0.00    +0.000 A 
ATOM     25  C   UNL     1      45.409   6.606  11.684  0.00  0.00    +0.000 A 
ATOM     26  C   UNL     1      46.799   6.469  11.571  0.00  0.00    +0.000 A 
ATOM     27  C   UNL     1      47.658   7.453  12.078  0.00  0.00    +0.000 A 
BRANCH  25  28
ATOM     28  C   UNL     1      44.486   5.529  11.174  0.00  0.00    +0.000 C 
BRANCH  28  29
ATOM     29  N   UNL     1      44.958   4.911   9.953  0.00  0.00    +0.000 N 
ATOM     30  C   UNL     1      44.497   3.664   9.591  0.00  0.00    +0.000 C 
ATOM     31  O   UNL     1      43.690   3.040  10.277  0.00  0.00    +0.000 OA
ATOM     32  H   UNL     1      45.567   5.436   9.341  0.00  0.00    +0.000 HD
BRANCH  30  33
ATOM     33  C   UNL     1      45.130   3.080   8.333  0.00  0.00    +0.000 C 
ATOM     34  C   UNL     1      45.866   1.761   8.553  0.00  0.00    +0.000 C 
ATOM     35  C   UNL     1      46.871   1.664   7.404  0.00  0.00    +0.000 C 
ATOM     36  C   UNL     1      47.014   3.071   6.830  0.00  0.00    +0.000 C 
ATOM     37  C   UNL     1      46.229   3.979   7.764  0.00  0.00    +0.000 C 
ENDBRANCH  30  33
ENDBRANCH  28  29
ENDBRANCH  25  28
ENDBRANCH  21  22
ENDBRANCH   3  21
TORSDOF 8
ENDMDL
MODEL 5
REMARK VINA RESULT:    -7.722      2.481      3.570
REMARK INTER + INTRA:         -12.621
REMARK INTER:                 -11.386
REMARK INTRA:                  -1.235
REMARK UNBOUND:                -1.288
REMARK  Name = 
REMARK  8 active torsions:
REMARK  status: ('A' for Active; 'I' for Inactive)
REMARK    1  A    between atoms: C_2  and  C_3
REMARK    2  A    between atoms: C_3  and  N_4
REMARK    3  A    between atoms: C_5  and  C_7
REMARK    4  A    between atoms: N_17  and  C_18
REMARK    5  A    between atoms: C_18  and  C_19
REMARK    6  A    between atoms: C_22  and  C_23
REMARK    7  A    between atoms: C_23  and  N_24
REMARK    8  A    between atoms: C_25  and  C_27
REMARK                            x       y       z     vdW  Elec       q    Type
REMARK                         _______ _______ _______ _____ _____    ______ ____
ROOT
ATOM      1  O   UNL     1      49.019  10.390  15.358  0.00  0.00    +0.000 OA
ATOM      2  C   UNL     1      48.612   9.257  15.602  0.00  0.00    +0.000 C 
ATOM      3  N   UNL     1      47.905   8.491  14.701  0.00  0.00    +0.000 N 
ATOM      4  H   UNL     1      47.455   7.644  15.034  0.00  0.00    +0.000 HD
ENDROOT
BRANCH   2   5
ATOM      5  C   UNL     1      48.788   8.610  16.975  0.00  0.00    +0.000 C 
BRANCH   5   6
ATOM      6  N   UNL     1      49.053   7.190  16.854  0.00  0.00    +0.000 N 
ATOM      7  C   UNL     1      48.394   6.266  17.622  0.00  0.00    +0.000 C 
ATOM      8  O   UNL     1      47.540   6.603  18.441  0.00  0.00    +0.000 OA
ATOM      9  H   UNL     1      49.911   6.924  16.375  0.00  0.00    +0.000 HD
BRANCH   7  10
ATOM     10  C   UNL     1      48.711   4.853  17.380  0.00  0.00    +0.000 A 
ATOM     11  C   UNL     1      47.754   4.016  16.823  0.00  0.00    +0.000 A 
ATOM     12  S   UNL     1      48.289   2.411  16.604  0.00  0.00    +0.000 S 
ATOM     13  C   UNL     1      49.809   2.768  17.279  0.00  0.00    +0.000 A 
ATOM     14  N   UNL     1      50.756   1.804  17.421  0.00  0.00    +0.000 NA
ATOM     15  C   UNL     1      51.851   2.208  17.976  0.00  0.00    +0.000 A 
ATOM     16  N   UNL     1      52.087   3.494  18.390  0.00  0.00    +0.000 N 
ATOM     17  C   UNL     1      51.177   4.510  18.223  0.00  0.00    +0.000 A 
ATOM     18  O   UNL     1      51.447   5.669  18.525  0.00  0.00    +0.000 OA
ATOM     19  C   UNL     1      49.916   4.101  17.638  0.00  0.00    +0.000 A 
ATOM     20  H   UNL     1      52.975   3.750  18.795  0.00  0.00    +0.000 HD
ENDBRANCH   7  10
ENDBRANCH   5   6
ENDBRANCH   2   5
BRANCH   3  21
ATOM     21  C   UNL     1      47.600   8.954  13.367  0.00  0.00    +0.000 C 
BRANCH  21  22
ATOM     22  C   UNL     1      46.628   8.036  12.668  0.00  0.00    +0.000 A 
ATOM     23  C   UNL     1      45.358   8.485  12.286  0.00  0.00    +0.000 A 
ATOM     24  C   UNL     1      44.466   7.631  11.625  0.00  0.00    +0.000 A 
ATOM     25  C   UNL     1      44.820   6.304  11.343  0.00  0.00    +0.000 A 
ATOM     26  C   UNL     1      46.090   5.853  11.728  0.00  0.00    +0.000 A 
ATOM     27  C   UNL     1      46.980   6.706  12.394  0.00  0.00    +0.000 A 
BRANCH  25  28
ATOM     28  C   UNL     1      43.848   5.375  10.662  0.00  0.00    +0.000 C 
BRANCH  28  29
ATOM     29  N   UNL     1      44.397   4.752   9.476  0.00  0.00    +0.000 N 
ATOM     30  C   UNL     1      44.556   3.385   9.429  0.00  0.00    +0.000 C 
ATOM     31  O   UNL     1      44.248   2.657  10.370  0.00  0.00    +0.000 OA
ATOM     32  H   UNL     1      44.591   5.325   8.666  0.00  0.00    +0.000 HD
BRANCH  30  33
ATOM     33  C   UNL     1      45.222   2.854   8.165  0.00  0.00    +0.000 C 
ATOM     34  C   UNL     1      45.996   1.553   8.361  0.00  0.00    +0.000 C 
ATOM     35  C   UNL     1      47.019   1.516   7.224  0.00  0.00    +0.000 C 
ATOM     36  C   UNL     1      47.126   2.941   6.689  0.00  0.00    +0.000 C 
ATOM     37  C   UNL     1      46.301   3.800   7.635  0.00  0.00    +0.000 C 
ENDBRANCH  30  33
ENDBRANCH  28  29
ENDBRANCH  25  28
ENDBRANCH  21  22
ENDBRANCH   3  21
TORSDOF 8
ENDMDL
MODEL 6
REMARK VINA RESULT:    -7.418      3.909      5.157
REMARK INTER + INTRA:         -12.176
REMARK INTER:                 -10.798
REMARK INTRA:                  -1.378
REMARK UNBOUND:                -1.288
REMARK  Name = 
REMARK  8 active torsions:
REMARK  status: ('A' for Active; 'I' for Inactive)
REMARK    1  A    between atoms: C_2  and  C_3
REMARK    2  A    between atoms: C_3  and  N_4
REMARK    3  A    between atoms: C_5  and  C_7
REMARK    4  A    between atoms: N_17  and  C_18
REMARK    5  A    between atoms: C_18  and  C_19
REMARK    6  A    between atoms: C_22  and  C_23
REMARK    7  A    between atoms: C_23  and  N_24
REMARK    8  A    between atoms: C_25  and  C_27
REMARK                            x       y       z     vdW  Elec       q    Type
REMARK                         _______ _______ _______ _____ _____    ______ ____
ROOT
ATOM      1  O   UNL     1      48.321   3.678  18.239  0.00  0.00    +0.000 OA
ATOM      2  C   UNL     1      47.566   4.593  17.921  0.00  0.00    +0.000 C 
ATOM      3  N   UNL     1      47.150   4.822  16.628  0.00  0.00    +0.000 N 
ATOM      4  H   UNL     1      46.673   5.694  16.421  0.00  0.00    +0.000 HD
ENDROOT
BRANCH   2   5
ATOM      5  C   UNL     1      47.070   5.625  18.934  0.00  0.00    +0.000 C 
BRANCH   5   6
ATOM      6  N   UNL     1      47.413   6.971  18.519  0.00  0.00    +0.000 N 
ATOM      7  C   UNL     1      48.523   7.612  19.004  0.00  0.00    +0.000 C 
ATOM      8  O   UNL     1      49.282   7.067  19.805  0.00  0.00    +0.000 OA
ATOM      9  H   UNL     1      46.680   7.511  18.065  0.00  0.00    +0.000 HD
BRANCH   7  10
ATOM     10  C   UNL     1      48.796   8.956  18.478  0.00  0.00    +0.000 A 
ATOM     11  C   UNL     1      48.915  10.027  19.352  0.00  0.00    +0.000 A 
ATOM     12  S   UNL     1      49.240  11.512  18.576  0.00  0.00    +0.000 S 
ATOM     13  C   UNL     1      49.196  10.781  17.040  0.00  0.00    +0.000 A 
ATOM     14  N   UNL     1      49.370  11.516  15.911  0.00  0.00    +0.000 NA
ATOM     15  C   UNL     1      49.283  10.838  14.814  0.00  0.00    +0.000 A 
ATOM     16  N   UNL     1      49.049   9.489  14.748  0.00  0.00    +0.000 N 
ATOM     17  C   UNL     1      48.915   8.699  15.865  0.00  0.00    +0.000 A 
ATOM     18  O   UNL     1      48.792   7.481  15.779  0.00  0.00    +0.000 OA
ATOM     19  C   UNL     1      48.968   9.419  17.122  0.00  0.00    +0.000 A 
ATOM     20  H   UNL     1      49.017   9.015  13.858  0.00  0.00    +0.000 HD
ENDBRANCH   7  10
ENDBRANCH   5   6
ENDBRANCH   2   5
BRANCH   3  21
ATOM     21  C   UNL     1      47.554   3.979  15.527  0.00  0.00    +0.000 C 
BRANCH  21  22
ATOM     22  C   UNL     1      46.880   4.385  14.239  0.00  0.00    +0.000 A 
ATOM     23  C   UNL     1      46.914   5.713  13.794  0.00  0.00    +0.000 A 
ATOM     24  C   UNL     1      46.298   6.079  12.590  0.00  0.00    +0.000 A 
ATOM     25  C   UNL     1      45.622   5.129  11.812  0.00  0.00    +0.000 A 
ATOM     26  C   UNL     1      45.586   3.801  12.259  0.00  0.00    +0.000 A 
ATOM     27  C   UNL     1      46.197   3.436  13.465  0.00  0.00    +0.000 A 
BRANCH  25  28
ATOM     28  C   UNL     1      44.931   5.530  10.534  0.00  0.00    +0.000 C 
BRANCH  28  29
ATOM     29  N   UNL     1      45.442   4.835   9.372  0.00  0.00    +0.000 N 
ATOM     30  C   UNL     1      44.828   3.682   8.935  0.00  0.00    +0.000 C 
ATOM     31  O   UNL     1      43.847   3.208   9.503  0.00  0.00    +0.000 OA
ATOM     32  H   UNL     1      46.205   5.245   8.851  0.00  0.00    +0.000 HD
BRANCH  30  33
ATOM     33  C   UNL     1      45.507   2.993   7.757  0.00  0.00    +0.000 C 
ATOM     34  C   UNL     1      46.107   1.629   8.086  0.00  0.00    +0.000 C 
ATOM     35  C   UNL     1      47.189   1.399   7.030  0.00  0.00    +0.000 C 
ATOM     36  C   UNL     1      47.498   2.762   6.418  0.00  0.00    +0.000 C 
ATOM     37  C   UNL     1      46.722   3.772   7.249  0.00  0.00    +0.000 C 
ENDBRANCH  30  33
ENDBRANCH  28  29
ENDBRANCH  25  28
ENDBRANCH  21  22
ENDBRANCH   3  21
TORSDOF 8
ENDMDL
MODEL 7
REMARK VINA RESULT:    -7.289      4.190      5.440
REMARK INTER + INTRA:         -11.987
REMARK INTER:                 -10.671
REMARK INTRA:                  -1.316
REMARK UNBOUND:                -1.288
REMARK  Name = 
REMARK  8 active torsions:
REMARK  status: ('A' for Active; 'I' for Inactive)
REMARK    1  A    between atoms: C_2  and  C_3
REMARK    2  A    between atoms: C_3  and  N_4
REMARK    3  A    between atoms: C_5  and  C_7
REMARK    4  A    between atoms: N_17  and  C_18
REMARK    5  A    between atoms: C_18  and  C_19
REMARK    6  A    between atoms: C_22  and  C_23
REMARK    7  A    between atoms: C_23  and  N_24
REMARK    8  A    between atoms: C_25  and  C_27
REMARK                            x       y       z     vdW  Elec       q    Type
REMARK                         _______ _______ _______ _____ _____    ______ ____
ROOT
ATOM      1  O   UNL     1      49.113   5.116  17.268  0.00  0.00    +0.000 OA
ATOM      2  C   UNL     1      48.542   6.020  16.665  0.00  0.00    +0.000 C 
ATOM      3  N   UNL     1      47.680   5.808  15.611  0.00  0.00    +0.000 N 
ATOM      4  H   UNL     1      47.388   6.606  15.056  0.00  0.00    +0.000 HD
ENDROOT
BRANCH   2   5
ATOM      5  C   UNL     1      48.796   7.494  16.982  0.00  0.00    +0.000 C 
BRANCH   5   6
ATOM      6  N   UNL     1      49.788   8.057  16.087  0.00  0.00    +0.000 N 
ATOM      7  C   UNL     1      49.432   8.687  14.923  0.00  0.00    +0.000 C 
ATOM      8  O   UNL     1      48.253   8.810  14.592  0.00  0.00    +0.000 OA
ATOM      9  H   UNL     1      50.749   7.751  16.218  0.00  0.00    +0.000 HD
BRANCH   7  10
ATOM     10  C   UNL     1      50.519   9.259  14.118  0.00  0.00    +0.000 A 
ATOM     11  C   UNL     1      51.263  10.319  14.618  0.00  0.00    +0.000 A 
ATOM     12  S   UNL     1      52.488  10.856  13.559  0.00  0.00    +0.000 S 
ATOM     13  C   UNL     1      52.044   9.716  12.378  0.00  0.00    +0.000 A 
ATOM     14  N   UNL     1      52.687   9.658  11.182  0.00  0.00    +0.000 NA
ATOM     15  C   UNL     1      52.227   8.765  10.370  0.00  0.00    +0.000 A 
ATOM     16  N   UNL     1      51.188   7.916  10.653  0.00  0.00    +0.000 N 
ATOM     17  C   UNL     1      50.540   7.906  11.865  0.00  0.00    +0.000 A 
ATOM     18  O   UNL     1      49.671   7.078  12.122  0.00  0.00    +0.000 OA
ATOM     19  C   UNL     1      50.996   8.916  12.799  0.00  0.00    +0.000 A 
ATOM     20  H   UNL     1      50.892   7.223   9.982  0.00  0.00    +0.000 HD
ENDBRANCH   7  10
ENDBRANCH   5   6
ENDBRANCH   2   5
BRANCH   3  21
ATOM     21  C   UNL     1      47.353   4.483  15.137  0.00  0.00    +0.000 C 
BRANCH  21  22
ATOM     22  C   UNL     1      46.478   4.531  13.909  0.00  0.00    +0.000 A 
ATOM     23  C   UNL     1      46.040   5.753  13.382  0.00  0.00    +0.000 A 
ATOM     24  C   UNL     1      45.239   5.791  12.234  0.00  0.00    +0.000 A 
ATOM     25  C   UNL     1      44.847   4.607  11.594  0.00  0.00    +0.000 A 
ATOM     26  C   UNL     1      45.282   3.384  12.123  0.00  0.00    +0.000 A 
ATOM     27  C   UNL     1      46.079   3.346  13.274  0.00  0.00    +0.000 A 
BRANCH  25  28
ATOM     28  C   UNL     1      43.958   4.646  10.378  0.00  0.00    +0.000 C 
BRANCH  28  29
ATOM     29  N   UNL     1      44.394   3.751   9.328  0.00  0.00    +0.000 N 
ATOM     30  C   UNL     1      45.446   4.108   8.514  0.00  0.00    +0.000 C 
ATOM     31  O   UNL     1      46.039   5.177   8.641  0.00  0.00    +0.000 OA
ATOM     32  H   UNL     1      43.966   2.838   9.251  0.00  0.00    +0.000 HD
BRANCH  30  33
ATOM     33  C   UNL     1      45.759   3.126   7.391  0.00  0.00    +0.000 C 
ATOM     34  C   UNL     1      46.411   1.826   7.855  0.00  0.00    +0.000 C 
ATOM     35  C   UNL     1      47.151   1.286   6.630  0.00  0.00    +0.000 C 
ATOM     36  C   UNL     1      47.291   2.452   5.656  0.00  0.00    +0.000 C 
ATOM     37  C   UNL     1      46.791   3.677   6.406  0.00  0.00    +0.000 C 
ENDBRANCH  30  33
ENDBRANCH  28  29
ENDBRANCH  25  28
ENDBRANCH  21  22
ENDBRANCH   3  21
TORSDOF 8
ENDMDL
MODEL 8
REMARK VINA RESULT:    -7.096      5.379      6.512
REMARK INTER + INTRA:         -11.703
REMARK INTER:                 -10.954
REMARK INTRA:                  -0.749
REMARK UNBOUND:                -1.288
REMARK  Name = 
REMARK  8 active torsions:
REMARK  status: ('A' for Active; 'I' for Inactive)
REMARK    1  A    between atoms: C_2  and  C_3
REMARK    2  A    between atoms: C_3  and  N_4
REMARK    3  A    between atoms: C_5  and  C_7
REMARK    4  A    between atoms: N_17  and  C_18
REMARK    5  A    between atoms: C_18  and  C_19
REMARK    6  A    between atoms: C_22  and  C_23
REMARK    7  A    between atoms: C_23  and  N_24
REMARK    8  A    between atoms: C_25  and  C_27
REMARK                            x       y       z     vdW  Elec       q    Type
REMARK                         _______ _______ _______ _____ _____    ______ ____
ROOT
ATOM      1  O   UNL     1      49.400   6.599  13.052  0.00  0.00    +0.000 OA
ATOM      2  C   UNL     1      48.849   7.293  13.903  0.00  0.00    +0.000 C 
ATOM      3  N   UNL     1      47.877   6.823  14.758  0.00  0.00    +0.000 N 
ATOM      4  H   UNL     1      47.350   7.495  15.308  0.00  0.00    +0.000 HD
ENDROOT
BRANCH   2   5
ATOM      5  C   UNL     1      49.143   8.787  14.045  0.00  0.00    +0.000 C 
BRANCH   5   6
ATOM      6  N   UNL     1      50.362   9.148  13.349  0.00  0.00    +0.000 N 
ATOM      7  C   UNL     1      50.347   9.585  12.050  0.00  0.00    +0.000 C 
ATOM      8  O   UNL     1      49.294   9.699  11.422  0.00  0.00    +0.000 OA
ATOM      9  H   UNL     1      51.236   8.829  13.760  0.00  0.00    +0.000 HD
BRANCH   7  10
ATOM     10  C   UNL     1      51.637   9.967  11.462  0.00  0.00    +0.000 A 
ATOM     11  C   UNL     1      52.172  11.220  11.726  0.00  0.00    +0.000 A 
ATOM     12  S   UNL     1      53.676  11.497  10.972  0.00  0.00    +0.000 S 
ATOM     13  C   UNL     1      53.650   9.964  10.234  0.00  0.00    +0.000 A 
ATOM     14  N   UNL     1      54.652   9.568   9.406  0.00  0.00    +0.000 NA
ATOM     15  C   UNL     1      54.489   8.393   8.893  0.00  0.00    +0.000 A 
ATOM     16  N   UNL     1      53.417   7.576   9.143  0.00  0.00    +0.000 N 
ATOM     17  C   UNL     1      52.405   7.916  10.010  0.00  0.00    +0.000 A 
ATOM     18  O   UNL     1      51.502   7.130  10.281  0.00  0.00    +0.000 OA
ATOM     19  C   UNL     1      52.523   9.241  10.584  0.00  0.00    +0.000 A 
ATOM     20  H   UNL     1      53.361   6.658   8.728  0.00  0.00    +0.000 HD
ENDBRANCH   7  10
ENDBRANCH   5   6
ENDBRANCH   2   5
BRANCH   3  21
ATOM     21  C   UNL     1      47.434   5.448  14.740  0.00  0.00    +0.000 C 
BRANCH  21  22
ATOM     22  C   UNL     1      46.475   5.188  13.604  0.00  0.00    +0.000 A 
ATOM     23  C   UNL     1      46.184   3.882  13.191  0.00  0.00    +0.000 A 
ATOM     24  C   UNL     1      45.282   3.647  12.144  0.00  0.00    +0.000 A 
ATOM     25  C   UNL     1      44.662   4.714  11.480  0.00  0.00    +0.000 A 
ATOM     26  C   UNL     1      44.956   6.021  11.892  0.00  0.00    +0.000 A 
ATOM     27  C   UNL     1      45.862   6.256  12.934  0.00  0.00    +0.000 A 
BRANCH  25  28
ATOM     28  C   UNL     1      43.717   4.464  10.332  0.00  0.00    +0.000 C 
BRANCH  28  29
ATOM     29  N   UNL     1      44.255   3.553   9.344  0.00  0.00    +0.000 N 
ATOM     30  C   UNL     1      45.273   3.965   8.513  0.00  0.00    +0.000 C 
ATOM     31  O   UNL     1      45.752   5.096   8.574  0.00  0.00    +0.000 OA
ATOM     32  H   UNL     1      43.924   2.599   9.324  0.00  0.00    +0.000 HD
BRANCH  30  33
ATOM     33  C   UNL     1      45.698   2.951   7.457  0.00  0.00    +0.000 C 
ATOM     34  C   UNL     1      46.366   1.699   8.019  0.00  0.00    +0.000 C 
ATOM     35  C   UNL     1      47.206   1.140   6.870  0.00  0.00    +0.000 C 
ATOM     36  C   UNL     1      47.367   2.270   5.857  0.00  0.00    +0.000 C 
ATOM     37  C   UNL     1      46.772   3.503   6.518  0.00  0.00    +0.000 C 
ENDBRANCH  30  33
ENDBRANCH  28  29
ENDBRANCH  25  28
ENDBRANCH  21  22
ENDBRANCH   3  21
TORSDOF 8
ENDMDL
