MODEL 1
REMARK VINA RESULT:    -9.019      0.000      0.000
REMARK INTER + INTRA:         -14.235
REMARK INTER:                 -13.236
REMARK INTRA:                  -0.999
REMARK UNBOUND:                -0.999
REMARK  Name = 
REMARK  9 active torsions:
REMARK  status: ('A' for Active; 'I' for Inactive)
REMARK    1  A    between atoms: C_1  and  C_2
REMARK    2  A    between atoms: C_2  and  N_3
REMARK    3  A    between atoms: C_2  and  C_21
REMARK    4  A    between atoms: N_3  and  C_4
REMARK    5  A    between atoms: C_4  and  C_5
REMARK    6  A    between atoms: C_8  and  C_9
REMARK    7  A    between atoms: C_9  and  N_10
REMARK    8  A    between atoms: N_10  and  C_11
REMARK    9  A    between atoms: C_11  and  C_12
REMARK                            x       y       z     vdW  Elec       q    Type
REMARK                         _______ _______ _______ _____ _____    ______ ____
ROOT
ATOM      1  C   UNL     1      46.852   5.414  13.411  0.00  0.00    +0.000 A 
ATOM      2  C   UNL     1      45.953   4.347  13.554  0.00  0.00    +0.000 A 
ATOM      3  C   UNL     1      44.907   4.178  12.649  0.00  0.00    +0.000 A 
ATOM      4  C   UNL     1      44.731   5.081  11.590  0.00  0.00    +0.000 A 
ATOM      5  C   UNL     1      45.633   6.144  11.446  0.00  0.00    +0.000 A 
ATOM      6  C   UNL     1      46.685   6.308  12.349  0.00  0.00    +0.000 A 
ENDROOT
BRANCH   1   7
ATOM      7  C   UNL     1      47.880   5.684  14.480  0.00  0.00    +0.000 C 
BRANCH   7   8
ATOM      8  N   UNL     1      48.161   4.516  15.321  0.00  0.00    +0.000 NA
ATOM      9  H   UNL     1      49.138   4.255  15.193  0.00  0.00    +0.000 HD
BRANCH   8  11
ATOM     10  C   UNL     1      46.840   3.829  17.298  0.00  0.00    +0.000 C 
ATOM     11  C   UNL     1      47.926   4.783  16.753  0.00  0.00    +0.000 C 
BRANCH  11  12
ATOM     12  C   UNL     1      49.256   4.588  17.488  0.00  0.00    +0.000 A 
ATOM     13  C   UNL     1      49.779   5.531  18.363  0.00  0.00    +0.000 A 
ATOM     14  S   UNL     1      51.342   5.163  18.930  0.00  0.00    +0.000 S 
ATOM     15  C   UNL     1      51.345   3.666  18.123  0.00  0.00    +0.000 A 
ATOM     16  N   UNL     1      52.414   2.828  18.224  0.00  0.00    +0.000 NA
ATOM     17  C   UNL     1      52.263   1.700  17.616  0.00  0.00    +0.000 A 
ATOM     18  N   UNL     1      51.147   1.338  16.915  0.00  0.00    +0.000 N 
ATOM     19  C   UNL     1      50.036   2.149  16.788  0.00  0.00    +0.000 A 
ATOM     20  O   UNL     1      49.022   1.765  16.203  0.00  0.00    +0.000 OA
ATOM     21  C   UNL     1      50.163   3.448  17.432  0.00  0.00    +0.000 A 
ATOM     22  H   UNL     1      51.079   0.419  16.496  0.00  0.00    +0.000 HD
ENDBRANCH  11  12
ENDBRANCH   8  11
ENDBRANCH   7   8
ENDBRANCH   1   7
BRANCH   4  23
ATOM     23  C   UNL     1      43.593   4.905  10.616  0.00  0.00    +0.000 C 
BRANCH  23  24
ATOM     24  N   UNL     1      44.071   4.407   9.324  0.00  0.00    +0.000 NA
ATOM     25  H   UNL     1      44.909   4.929   9.068  0.00  0.00    +0.000 HD
BRANCH  24  26
ATOM     26  C   UNL     1      44.384   2.985   9.400  0.00  0.00    +0.000 C 
BRANCH  26  27
ATOM     27  C   UNL     1      45.491   2.616   8.437  0.00  0.00    +0.000 A 
ATOM     28  C   UNL     1      45.930   1.292   8.341  0.00  0.00    +0.000 A 
ATOM     29  C   UNL     1      46.940   0.956   7.439  0.00  0.00    +0.000 A 
ATOM     30  N   UNL     1      47.530   1.907   6.627  0.00  0.00    +0.000 N 
ATOM     31  O   UNL     1      48.447   1.583   5.813  0.00  0.00    +0.000 OA
ATOM     32  C   UNL     1      47.094   3.216   6.723  0.00  0.00    +0.000 A 
ATOM     33  C   UNL     1      46.082   3.582   7.613  0.00  0.00    +0.000 A 
ENDBRANCH  26  27
ENDBRANCH  24  26
ENDBRANCH  23  24
ENDBRANCH   4  23
TORSDOF 8
ENDMDL
MODEL 2
REMARK VINA RESULT:    -8.625      1.957      2.670
REMARK INTER + INTRA:         -13.658
REMARK INTER:                 -12.364
REMARK INTRA:                  -1.294
REMARK UNBOUND:                -0.999
REMARK  Name = 
REMARK  9 active torsions:
REMARK  status: ('A' for Active; 'I' for Inactive)
REMARK    1  A    between atoms: C_1  and  C_2
REMARK    2  A    between atoms: C_2  and  N_3
REMARK    3  A    between atoms: C_2  and  C_21
REMARK    4  A    between atoms: N_3  and  C_4
REMARK    5  A    between atoms: C_4  and  C_5
REMARK    6  A    between atoms: C_8  and  C_9
REMARK    7  A    between atoms: C_9  and  N_10
REMARK    8  A    between atoms: N_10  and  C_11
REMARK    9  A    between atoms: C_11  and  C_12
REMARK                            x       y       z     vdW  Elec       q    Type
REMARK                         _______ _______ _______ _____ _____    ______ ____
ROOT
ATOM      1  C   UNL     1      47.007   6.144  12.836  0.00  0.00    +0.000 A 
ATOM      2  C   UNL     1      46.792   6.607  11.530  0.00  0.00    +0.000 A 
ATOM      3  C   UNL     1      45.669   6.200  10.812  0.00  0.00    +0.000 A 
ATOM      4  C   UNL     1      44.745   5.311  11.381  0.00  0.00    +0.000 A 
ATOM      5  C   UNL     1      44.959   4.853  12.688  0.00  0.00    +0.000 A 
ATOM      6  C   UNL     1      46.081   5.267  13.409  0.00  0.00    +0.000 A 
ENDROOT
BRANCH   1   7
ATOM      7  C   UNL     1      48.300   6.458  13.545  0.00  0.00    +0.000 C 
BRANCH   7   8
ATOM      8  N   UNL     1      48.229   6.248  14.995  0.00  0.00    +0.000 NA
ATOM      9  H   UNL     1      48.486   5.282  15.193  0.00  0.00    +0.000 HD
BRANCH   8  11
ATOM     10  C   UNL     1      49.040   8.579  15.180  0.00  0.00    +0.000 C 
ATOM     11  C   UNL     1      49.138   7.142  15.738  0.00  0.00    +0.000 C 
BRANCH  11  12
ATOM     12  C   UNL     1      48.736   7.093  17.215  0.00  0.00    +0.000 A 
ATOM     13  C   UNL     1      48.269   8.203  17.907  0.00  0.00    +0.000 A 
ATOM     14  S   UNL     1      48.042   7.940  19.574  0.00  0.00    +0.000 S 
ATOM     15  C   UNL     1      48.448   6.295  19.429  0.00  0.00    +0.000 A 
ATOM     16  N   UNL     1      48.425   5.478  20.519  0.00  0.00    +0.000 NA
ATOM     17  C   UNL     1      48.691   4.242  20.261  0.00  0.00    +0.000 A 
ATOM     18  N   UNL     1      48.984   3.753  19.018  0.00  0.00    +0.000 N 
ATOM     19  C   UNL     1      49.014   4.539  17.883  0.00  0.00    +0.000 A 
ATOM     20  O   UNL     1      49.218   4.052  16.769  0.00  0.00    +0.000 OA
ATOM     21  C   UNL     1      48.749   5.950  18.120  0.00  0.00    +0.000 A 
ATOM     22  H   UNL     1      49.144   2.763  18.881  0.00  0.00    +0.000 HD
ENDBRANCH  11  12
ENDBRANCH   8  11
ENDBRANCH   7   8
ENDBRANCH   1   7
BRANCH   4  23
ATOM     23  C   UNL     1      43.535   4.862  10.601  0.00  0.00    +0.000 C 
BRANCH  23  24
ATOM     24  N   UNL     1      43.918   4.285   9.311  0.00  0.00    +0.000 NA
ATOM     25  H   UNL     1      44.664   4.854   8.912  0.00  0.00    +0.000 HD
BRANCH  24  26
ATOM     26  C   UNL     1      44.384   2.913   9.473  0.00  0.00    +0.000 C 
BRANCH  26  27
ATOM     27  C   UNL     1      45.477   2.585   8.481  0.00  0.00    +0.000 A 
ATOM     28  C   UNL     1      45.957   1.276   8.367  0.00  0.00    +0.000 A 
ATOM     29  C   UNL     1      46.954   0.978   7.438  0.00  0.00    +0.000 A 
ATOM     30  N   UNL     1      47.493   1.951   6.617  0.00  0.00    +0.000 N 
ATOM     31  O   UNL     1      48.399   1.661   5.778  0.00  0.00    +0.000 OA
ATOM     32  C   UNL     1      47.018   3.245   6.731  0.00  0.00    +0.000 A 
ATOM     33  C   UNL     1      46.017   3.573   7.648  0.00  0.00    +0.000 A 
ENDBRANCH  26  27
ENDBRANCH  24  26
ENDBRANCH  23  24
ENDBRANCH   4  23
TORSDOF 8
ENDMDL
MODEL 3
REMARK VINA RESULT:    -7.733      2.028      2.586
REMARK INTER + INTRA:         -12.349
REMARK INTER:                 -11.384
REMARK INTRA:                  -0.965
REMARK UNBOUND:                -0.999
REMARK  Name = 
REMARK  9 active torsions:
REMARK  status: ('A' for Active; 'I' for Inactive)
REMARK    1  A    between atoms: C_1  and  C_2
REMARK    2  A    between atoms: C_2  and  N_3
REMARK    3  A    between atoms: C_2  and  C_21
REMARK    4  A    between atoms: N_3  and  C_4
REMARK    5  A    between atoms: C_4  and  C_5
REMARK    6  A    between atoms: C_8  and  C_9
REMARK    7  A    between atoms: C_9  and  N_10
REMARK    8  A    between atoms: N_10  and  C_11
REMARK    9  A    between atoms: C_11  and  C_12
REMARK                            x       y       z     vdW  Elec       q    Type
REMARK                         _______ _______ _______ _____ _____    ______ ____
ROOT
ATOM      1  C   UNL     1      47.140   6.011  13.343  0.00  0.00    +0.000 A 
ATOM      2  C   UNL     1      46.367   6.442  12.256  0.00  0.00    +0.000 A 
ATOM      3  C   UNL     1      45.394   5.610  11.706  0.00  0.00    +0.000 A 
ATOM      4  C   UNL     1      45.185   4.323  12.223  0.00  0.00    +0.000 A 
ATOM      5  C   UNL     1      45.956   3.895  13.312  0.00  0.00    +0.000 A 
ATOM      6  C   UNL     1      46.925   4.732  13.868  0.00  0.00    +0.000 A 
ENDROOT
BRANCH   1   7
ATOM      7  C   UNL     1      48.295   6.850  13.829  0.00  0.00    +0.000 C 
BRANCH   7   8
ATOM      8  N   UNL     1      47.980   7.625  15.033  0.00  0.00    +0.000 NA
ATOM      9  H   UNL     1      47.260   7.129  15.556  0.00  0.00    +0.000 HD
BRANCH   8  11
ATOM     10  C   UNL     1      48.894   8.961  16.905  0.00  0.00    +0.000 C 
ATOM     11  C   UNL     1      49.155   7.812  15.906  0.00  0.00    +0.000 C 
BRANCH  11  12
ATOM     12  C   UNL     1      49.409   6.489  16.635  0.00  0.00    +0.000 A 
ATOM     13  C   UNL     1      48.383   5.681  17.109  0.00  0.00    +0.000 A 
ATOM     14  S   UNL     1      48.914   4.349  18.026  0.00  0.00    +0.000 S 
ATOM     15  C   UNL     1      50.548   4.726  17.736  0.00  0.00    +0.000 A 
ATOM     16  N   UNL     1      51.539   3.938  18.238  0.00  0.00    +0.000 NA
ATOM     17  C   UNL     1      52.729   4.299  17.893  0.00  0.00    +0.000 A 
ATOM     18  N   UNL     1      53.016   5.374  17.099  0.00  0.00    +0.000 N 
ATOM     19  C   UNL     1      52.046   6.198  16.562  0.00  0.00    +0.000 A 
ATOM     20  O   UNL     1      52.337   7.121  15.798  0.00  0.00    +0.000 OA
ATOM     21  C   UNL     1      50.685   5.855  16.943  0.00  0.00    +0.000 A 
ATOM     22  H   UNL     1      53.971   5.576  16.833  0.00  0.00    +0.000 HD
ENDBRANCH  11  12
ENDBRANCH   8  11
ENDBRANCH   7   8
ENDBRANCH   1   7
BRANCH   4  23
ATOM     23  C   UNL     1      44.141   3.416  11.622  0.00  0.00    +0.000 C 
BRANCH  23  24
ATOM     24  N   UNL     1      44.735   2.486  10.660  0.00  0.00    +0.000 NA
ATOM     25  H   UNL     1      44.385   1.549  10.859  0.00  0.00    +0.000 HD
BRANCH  24  26
ATOM     26  C   UNL     1      44.388   2.859   9.294  0.00  0.00    +0.000 C 
BRANCH  26  27
ATOM     27  C   UNL     1      45.510   2.529   8.335  0.00  0.00    +0.000 A 
ATOM     28  C   UNL     1      46.017   1.227   8.264  0.00  0.00    +0.000 A 
ATOM     29  C   UNL     1      47.041   0.926   7.366  0.00  0.00    +0.000 A 
ATOM     30  N   UNL     1      47.580   1.889   6.533  0.00  0.00    +0.000 N 
ATOM     31  O   UNL     1      48.511   1.597   5.723  0.00  0.00    +0.000 OA
ATOM     32  C   UNL     1      47.078   3.176   6.605  0.00  0.00    +0.000 A 
ATOM     33  C   UNL     1      46.050   3.507   7.491  0.00  0.00    +0.000 A 
ENDBRANCH  26  27
ENDBRANCH  24  26
ENDBRANCH  23  24
ENDBRANCH   4  23
TORSDOF 8
ENDMDL
MODEL 4
REMARK VINA RESULT:    -7.541      3.621      8.561
REMARK INTER + INTRA:         -12.067
REMARK INTER:                 -10.439
REMARK INTRA:                  -1.628
REMARK UNBOUND:                -0.999
REMARK  Name = 
REMARK  9 active torsions:
REMARK  status: ('A' for Active; 'I' for Inactive)
REMARK    1  A    between atoms: C_1  and  C_2
REMARK    2  A    between atoms: C_2  and  N_3
REMARK    3  A    between atoms: C_2  and  C_21
REMARK    4  A    between atoms: N_3  and  C_4
REMARK    5  A    between atoms: C_4  and  C_5
REMARK    6  A    between atoms: C_8  and  C_9
REMARK    7  A    between atoms: C_9  and  N_10
REMARK    8  A    between atoms: N_10  and  C_11
REMARK    9  A    between atoms: C_11  and  C_12
REMARK                            x       y       z     vdW  Elec       q    Type
REMARK                         _______ _______ _______ _____ _____    ______ ____
ROOT
ATOM      1  C   UNL     1      48.611   8.201  13.660  0.00  0.00    +0.000 A 
ATOM      2  C   UNL     1      48.161   9.228  14.501  0.00  0.00    +0.000 A 
ATOM      3  C   UNL     1      48.205   9.079  15.885  0.00  0.00    +0.000 A 
ATOM      4  C   UNL     1      48.686   7.892  16.457  0.00  0.00    +0.000 A 
ATOM      5  C   UNL     1      49.139   6.867  15.615  0.00  0.00    +0.000 A 
ATOM      6  C   UNL     1      49.102   7.021  14.228  0.00  0.00    +0.000 A 
ENDROOT
BRANCH   1   7
ATOM      7  C   UNL     1      48.412   8.303  12.168  0.00  0.00    +0.000 C 
BRANCH   7   8
ATOM      8  N   UNL     1      47.791   7.110  11.585  0.00  0.00    +0.000 NA
ATOM      9  H   UNL     1      48.328   6.293  11.875  0.00  0.00    +0.000 HD
BRANCH   8  11
ATOM     10  C   UNL     1      45.608   8.252  11.824  0.00  0.00    +0.000 C 
ATOM     11  C   UNL     1      46.392   6.934  12.019  0.00  0.00    +0.000 C 
BRANCH  11  12
ATOM     12  C   UNL     1      45.785   5.800  11.188  0.00  0.00    +0.000 A 
ATOM     13  C   UNL     1      45.965   5.691   9.815  0.00  0.00    +0.000 A 
ATOM     14  S   UNL     1      45.061   4.443   9.090  0.00  0.00    +0.000 S 
ATOM     15  C   UNL     1      44.474   3.915  10.597  0.00  0.00    +0.000 A 
ATOM     16  N   UNL     1      43.644   2.837  10.677  0.00  0.00    +0.000 NA
ATOM     17  C   UNL     1      43.323   2.504  11.881  0.00  0.00    +0.000 A 
ATOM     18  N   UNL     1      43.750   3.151  13.008  0.00  0.00    +0.000 N 
ATOM     19  C   UNL     1      44.595   4.243  12.978  0.00  0.00    +0.000 A 
ATOM     20  O   UNL     1      45.012   4.761  14.016  0.00  0.00    +0.000 OA
ATOM     21  C   UNL     1      44.968   4.681  11.642  0.00  0.00    +0.000 A 
ATOM     22  H   UNL     1      43.491   2.810  13.925  0.00  0.00    +0.000 HD
ENDBRANCH  11  12
ENDBRANCH   8  11
ENDBRANCH   7   8
ENDBRANCH   1   7
BRANCH   4  23
ATOM     23  C   UNL     1      48.724   7.725  17.956  0.00  0.00    +0.000 C 
BRANCH  23  24
ATOM     24  N   UNL     1      47.524   7.041  18.444  0.00  0.00    +0.000 NA
ATOM     25  H   UNL     1      46.969   6.751  17.640  0.00  0.00    +0.000 HD
BRANCH  24  26
ATOM     26  C   UNL     1      47.880   5.874  19.241  0.00  0.00    +0.000 C 
BRANCH  26  27
ATOM     27  C   UNL     1      48.286   4.713  18.360  0.00  0.00    +0.000 A 
ATOM     28  C   UNL     1      49.600   4.234  18.387  0.00  0.00    +0.000 A 
ATOM     29  C   UNL     1      49.964   3.153  17.583  0.00  0.00    +0.000 A 
ATOM     30  N   UNL     1      49.053   2.534  16.748  0.00  0.00    +0.000 N 
ATOM     31  O   UNL     1      49.402   1.552  16.025  0.00  0.00    +0.000 OA
ATOM     32  C   UNL     1      47.755   3.009  16.723  0.00  0.00    +0.000 A 
ATOM     33  C   UNL     1      47.359   4.086  17.519  0.00  0.00    +0.000 A 
ENDBRANCH  26  27
ENDBRANCH  24  26
ENDBRANCH  23  24
ENDBRANCH   4  23
TORSDOF 8
ENDMDL
MODEL 5
REMARK VINA RESULT:    -7.495      2.976      8.762
REMARK INTER + INTRA:         -11.999
REMARK INTER:                 -10.306
REMARK INTRA:                  -1.693
REMARK UNBOUND:                -0.999
REMARK  Name = 
REMARK  9 active torsions:
REMARK  status: ('A' for Active; 'I' for Inactive)
REMARK    1  A    between atoms: C_1  and  C_2
REMARK    2  A    between atoms: C_2  and  N_3
REMARK    3  A    between atoms: C_2  and  C_21
REMARK    4  A    between atoms: N_3  and  C_4
REMARK    5  A    between atoms: C_4  and  C_5
REMARK    6  A    between atoms: C_8  and  C_9
REMARK    7  A    between atoms: C_9  and  N_10
REMARK    8  A    between atoms: N_10  and  C_11
REMARK    9  A    between atoms: C_11  and  C_12
REMARK                            x       y       z     vdW  Elec       q    Type
REMARK                         _______ _______ _______ _____ _____    ______ ____
ROOT
ATOM      1  C   UNL     1      48.192   7.775  13.402  0.00  0.00    +0.000 A 
ATOM      2  C   UNL     1      47.716   8.832  14.191  0.00  0.00    +0.000 A 
ATOM      3  C   UNL     1      47.953   8.852  15.564  0.00  0.00    +0.000 A 
ATOM      4  C   UNL     1      48.659   7.808  16.178  0.00  0.00    +0.000 A 
ATOM      5  C   UNL     1      49.138   6.754  15.388  0.00  0.00    +0.000 A 
ATOM      6  C   UNL     1      48.906   6.738  14.012  0.00  0.00    +0.000 A 
ENDROOT
BRANCH   1   7
ATOM      7  C   UNL     1      47.796   7.678  11.951  0.00  0.00    +0.000 C 
BRANCH   7   8
ATOM      8  N   UNL     1      46.994   6.488  11.650  0.00  0.00    +0.000 NA
ATOM      9  H   UNL     1      47.430   5.683  12.099  0.00  0.00    +0.000 HD
BRANCH   8  11
ATOM     10  C   UNL     1      44.903   7.796  11.443  0.00  0.00    +0.000 C 
ATOM     11  C   UNL     1      45.606   6.606  12.135  0.00  0.00    +0.000 C 
BRANCH  11  12
ATOM     12  C   UNL     1      44.891   5.286  11.832  0.00  0.00    +0.000 A 
ATOM     13  C   UNL     1      44.075   4.642  12.753  0.00  0.00    +0.000 A 
ATOM     14  S   UNL     1      43.524   3.113  12.245  0.00  0.00    +0.000 S 
ATOM     15  C   UNL     1      44.256   3.291  10.721  0.00  0.00    +0.000 A 
ATOM     16  N   UNL     1      44.137   2.315   9.778  0.00  0.00    +0.000 NA
ATOM     17  C   UNL     1      44.686   2.602   8.646  0.00  0.00    +0.000 A 
ATOM     18  N   UNL     1      45.345   3.769   8.374  0.00  0.00    +0.000 N 
ATOM     19  C   UNL     1      45.487   4.789   9.294  0.00  0.00    +0.000 A 
ATOM     20  O   UNL     1      46.031   5.854   8.994  0.00  0.00    +0.000 OA
ATOM     21  C   UNL     1      44.911   4.507  10.600  0.00  0.00    +0.000 A 
ATOM     22  H   UNL     1      45.716   3.944   7.449  0.00  0.00    +0.000 HD
ENDBRANCH  11  12
ENDBRANCH   8  11
ENDBRANCH   7   8
ENDBRANCH   1   7
BRANCH   4  23
ATOM     23  C   UNL     1      48.907   7.822  17.667  0.00  0.00    +0.000 C 
BRANCH  23  24
ATOM     24  N   UNL     1      47.765   7.273  18.401  0.00  0.00    +0.000 NA
ATOM     25  H   UNL     1      47.064   6.970  17.725  0.00  0.00    +0.000 HD
BRANCH  24  26
ATOM     26  C   UNL     1      48.173   6.141  19.224  0.00  0.00    +0.000 C 
BRANCH  26  27
ATOM     27  C   UNL     1      48.440   4.916  18.377  0.00  0.00    +0.000 A 
ATOM     28  C   UNL     1      47.425   4.375  17.582  0.00  0.00    +0.000 A 
ATOM     29  C   UNL     1      47.682   3.254  16.791  0.00  0.00    +0.000 A 
ATOM     30  N   UNL     1      48.927   2.654  16.770  0.00  0.00    +0.000 N 
ATOM     31  O   UNL     1      49.142   1.637  16.044  0.00  0.00    +0.000 OA
ATOM     32  C   UNL     1      49.929   3.191  17.556  0.00  0.00    +0.000 A 
ATOM     33  C   UNL     1      49.704   4.314  18.355  0.00  0.00    +0.000 A 
ENDBRANCH  26  27
ENDBRANCH  24  26
ENDBRANCH  23  24
ENDBRANCH   4  23
TORSDOF 8
ENDMDL
MODEL 6
REMARK VINA RESULT:    -6.675      3.630      8.687
REMARK INTER + INTRA:         -10.795
REMARK INTER:                  -9.070
REMARK INTRA:                  -1.726
REMARK UNBOUND:                -0.999
REMARK  Name = 
REMARK  9 active torsions:
REMARK  status: ('A' for Active; 'I' for Inactive)
REMARK    1  A    between atoms: C_1  and  C_2
REMARK    2  A    between atoms: C_2  and  N_3
REMARK    3  A    between atoms: C_2  and  C_21
REMARK    4  A    between atoms: N_3  and  C_4
REMARK    5  A    between atoms: C_4  and  C_5
REMARK    6  A    between atoms: C_8  and  C_9
REMARK    7  A    between atoms: C_9  and  N_10
REMARK    8  A    between atoms: N_10  and  C_11
REMARK    9  A    between atoms: C_11  and  C_12
REMARK                            x       y       z     vdW  Elec       q    Type
REMARK                         _______ _______ _______ _____ _____    ______ ____
ROOT
ATOM      1  C   UNL     1      49.054   8.679  14.595  0.00  0.00    +0.000 A 
ATOM      2  C   UNL     1      48.734   8.556  15.955  0.00  0.00    +0.000 A 
ATOM      3  C   UNL     1      49.645   7.994  16.847  0.00  0.00    +0.000 A 
ATOM      4  C   UNL     1      50.889   7.531  16.395  0.00  0.00    +0.000 A 
ATOM      5  C   UNL     1      51.209   7.658  15.037  0.00  0.00    +0.000 A 
ATOM      6  C   UNL     1      50.299   8.228  14.144  0.00  0.00    +0.000 A 
ENDROOT
BRANCH   1   7
ATOM      7  C   UNL     1      48.008   9.137  13.611  0.00  0.00    +0.000 C 
BRANCH   7   8
ATOM      8  N   UNL     1      46.788   8.323  13.643  0.00  0.00    +0.000 NA
ATOM      9  H   UNL     1      45.990   8.945  13.772  0.00  0.00    +0.000 HD
BRANCH   8  11
ATOM     10  C   UNL     1      47.842   7.673  11.501  0.00  0.00    +0.000 C 
ATOM     11  C   UNL     1      46.592   7.553  12.401  0.00  0.00    +0.000 C 
BRANCH  11  12
ATOM     12  C   UNL     1      46.328   6.096  12.792  0.00  0.00    +0.000 A 
ATOM     13  C   UNL     1      47.177   5.371  13.618  0.00  0.00    +0.000 A 
ATOM     14  S   UNL     1      46.761   3.728  13.777  0.00  0.00    +0.000 S 
ATOM     15  C   UNL     1      45.356   3.934  12.839  0.00  0.00    +0.000 A 
ATOM     16  N   UNL     1      44.519   2.884  12.608  0.00  0.00    +0.000 NA
ATOM     17  C   UNL     1      43.460   3.189  11.936  0.00  0.00    +0.000 A 
ATOM     18  N   UNL     1      43.168   4.442  11.472  0.00  0.00    +0.000 N 
ATOM     19  C   UNL     1      43.981   5.537  11.685  0.00  0.00    +0.000 A 
ATOM     20  O   UNL     1      43.654   6.664  11.307  0.00  0.00    +0.000 OA
ATOM     21  C   UNL     1      45.206   5.245  12.414  0.00  0.00    +0.000 A 
ATOM     22  H   UNL     1      42.297   4.618  10.986  0.00  0.00    +0.000 HD
ENDBRANCH  11  12
ENDBRANCH   8  11
ENDBRANCH   7   8
ENDBRANCH   1   7
BRANCH   4  23
ATOM     23  C   UNL     1      51.872   6.913  17.358  0.00  0.00    +0.000 C 
BRANCH  23  24
ATOM     24  N   UNL     1      52.085   5.494  17.062  0.00  0.00    +0.000 NA
ATOM     25  H   UNL     1      53.080   5.347  16.893  0.00  0.00    +0.000 HD
BRANCH  24  26
ATOM     26  C   UNL     1      51.648   4.660  18.175  0.00  0.00    +0.000 C 
BRANCH  26  27
ATOM     27  C   UNL     1      50.227   4.183  17.974  0.00  0.00    +0.000 A 
ATOM     28  C   UNL     1      49.161   4.879  18.552  0.00  0.00    +0.000 A 
ATOM     29  C   UNL     1      47.851   4.442  18.350  0.00  0.00    +0.000 A 
ATOM     30  N   UNL     1      47.571   3.325  17.586  0.00  0.00    +0.000 N 
ATOM     31  O   UNL     1      46.374   2.943  17.413  0.00  0.00    +0.000 OA
ATOM     32  C   UNL     1      48.626   2.637  17.015  0.00  0.00    +0.000 A 
ATOM     33  C   UNL     1      49.948   3.052  17.196  0.00  0.00    +0.000 A 
ENDBRANCH  26  27
ENDBRANCH  24  26
ENDBRANCH  23  24
ENDBRANCH   4  23
TORSDOF 8
ENDMDL
MODEL 7
REMARK VINA RESULT:    -6.401      4.778      5.060
REMARK INTER + INTRA:         -10.394
REMARK INTER:                  -9.518
REMARK INTRA:                  -0.877
REMARK UNBOUND:                -0.999
REMARK  Name = 
REMARK  9 active torsions:
REMARK  status: ('A' for Active; 'I' for Inactive)
REMARK    1  A    between atoms: C_1  and  C_2
REMARK    2  A    between atoms: C_2  and  N_3
REMARK    3  A    between atoms: C_2  and  C_21
REMARK    4  A    between atoms: N_3  and  C_4
REMARK    5  A    between atoms: C_4  and  C_5
REMARK    6  A    between atoms: C_8  and  C_9
REMARK    7  A    between atoms: C_9  and  N_10
REMARK    8  A    between atoms: N_10  and  C_11
REMARK    9  A    between atoms: C_11  and  C_12
REMARK                            x       y       z     vdW  Elec       q    Type
REMARK                         _______ _______ _______ _____ _____    ______ ____
ROOT
ATOM      1  C   UNL     1      45.913   7.780  12.127  0.00  0.00    +0.000 A 
ATOM      2  C   UNL     1      46.672   6.658  11.766  0.00  0.00    +0.000 A 
ATOM      3  C   UNL     1      46.059   5.541  11.202  0.00  0.00    +0.000 A 
ATOM      4  C   UNL     1      44.672   5.518  11.001  0.00  0.00    +0.000 A 
ATOM      5  C   UNL     1      43.914   6.642  11.359  0.00  0.00    +0.000 A 
ATOM      6  C   UNL     1      44.530   7.764  11.917  0.00  0.00    +0.000 A 
ENDROOT
BRANCH   1   7
ATOM      7  C   UNL     1      46.555   8.917  12.882  0.00  0.00    +0.000 C 
BRANCH   7   8
ATOM      8  N   UNL     1      47.953   8.656  13.240  0.00  0.00    +0.000 NA
ATOM      9  H   UNL     1      48.100   7.647  13.247  0.00  0.00    +0.000 HD
BRANCH   8  11
ATOM     10  C   UNL     1      48.426  10.685  11.905  0.00  0.00    +0.000 C 
ATOM     11  C   UNL     1      48.902   9.266  12.290  0.00  0.00    +0.000 C 
BRANCH  11  12
ATOM     12  C   UNL     1      50.277   9.305  12.963  0.00  0.00    +0.000 A 
ATOM     13  C   UNL     1      50.504   9.943  14.176  0.00  0.00    +0.000 A 
ATOM     14  S   UNL     1      52.141   9.992  14.641  0.00  0.00    +0.000 S 
ATOM     15  C   UNL     1      52.611   9.060  13.297  0.00  0.00    +0.000 A 
ATOM     16  N   UNL     1      53.917   8.717  13.116  0.00  0.00    +0.000 NA
ATOM     17  C   UNL     1      54.128   7.958  12.094  0.00  0.00    +0.000 A 
ATOM     18  N   UNL     1      53.157   7.517  11.238  0.00  0.00    +0.000 N 
ATOM     19  C   UNL     1      51.820   7.833  11.384  0.00  0.00    +0.000 A 
ATOM     20  O   UNL     1      50.964   7.365  10.631  0.00  0.00    +0.000 OA
ATOM     21  C   UNL     1      51.527   8.712  12.505  0.00  0.00    +0.000 A 
ATOM     22  H   UNL     1      53.388   6.889  10.479  0.00  0.00    +0.000 HD
ENDBRANCH  11  12
ENDBRANCH   8  11
ENDBRANCH   7   8
ENDBRANCH   1   7
BRANCH   4  23
ATOM     23  C   UNL     1      44.005   4.306  10.401  0.00  0.00    +0.000 C 
BRANCH  23  24
ATOM     24  N   UNL     1      44.858   3.120  10.512  0.00  0.00    +0.000 NA
ATOM     25  H   UNL     1      44.713   2.704  11.432  0.00  0.00    +0.000 HD
BRANCH  24  26
ATOM     26  C   UNL     1      44.532   2.147   9.477  0.00  0.00    +0.000 C 
BRANCH  26  27
ATOM     27  C   UNL     1      45.606   2.101   8.413  0.00  0.00    +0.000 A 
ATOM     28  C   UNL     1      46.245   0.895   8.108  0.00  0.00    +0.000 A 
ATOM     29  C   UNL     1      47.224   0.856   7.115  0.00  0.00    +0.000 A 
ATOM     30  N   UNL     1      47.588   1.990   6.413  0.00  0.00    +0.000 N 
ATOM     31  O   UNL     1      48.480   1.936   5.513  0.00  0.00    +0.000 OA
ATOM     32  C   UNL     1      46.956   3.182   6.716  0.00  0.00    +0.000 A 
ATOM     33  C   UNL     1      45.969   3.252   7.702  0.00  0.00    +0.000 A 
ENDBRANCH  26  27
ENDBRANCH  24  26
ENDBRANCH  23  24
ENDBRANCH   4  23
TORSDOF 8
ENDMDL
MODEL 8
REMARK VINA RESULT:    -6.305      3.200      4.087
REMARK INTER + INTRA:         -10.252
REMARK INTER:                  -9.181
REMARK INTRA:                  -1.071
REMARK UNBOUND:                -0.999
REMARK  Name = 
REMARK  9 active torsions:
REMARK  status: ('A' for Active; 'I' for Inactive)
REMARK    1  A    between atoms: C_1  and  C_2
REMARK    2  A    between atoms: C_2  and  N_3
REMARK    3  A    between atoms: C_2  and  C_21
REMARK    4  A    between atoms: N_3  and  C_4
REMARK    5  A    between atoms: C_4  and  C_5
REMARK    6  A    between atoms: C_8  and  C_9
REMARK    7  A    between atoms: C_9  and  N_10
REMARK    8  A    between atoms: N_10  and  C_11
REMARK    9  A    between atoms: C_11  and  C_12
REMARK                            x       y       z     vdW  Elec       q    Type
REMARK                         _______ _______ _______ _____ _____    ______ ____
ROOT
ATOM      1  C   UNL     1      46.285   7.688  12.078  0.00  0.00    +0.000 A 
ATOM      2  C   UNL     1      46.852   6.723  11.234  0.00  0.00    +0.000 A 
ATOM      3  C   UNL     1      46.080   5.671  10.745  0.00  0.00    +0.000 A 
ATOM      4  C   UNL     1      44.730   5.555  11.101  0.00  0.00    +0.000 A 
ATOM      5  C   UNL     1      44.163   6.522  11.942  0.00  0.00    +0.000 A 
ATOM      6  C   UNL     1      44.934   7.580  12.426  0.00  0.00    +0.000 A 
ENDROOT
BRANCH   1   7
ATOM      7  C   UNL     1      47.159   8.728  12.731  0.00  0.00    +0.000 C 
BRANCH   7   8
ATOM      8  N   UNL     1      48.447   8.197  13.188  0.00  0.00    +0.000 NA
ATOM      9  H   UNL     1      48.708   7.420  12.582  0.00  0.00    +0.000 HD
BRANCH   8  11
ATOM     10  C   UNL     1      48.989  10.564  13.669  0.00  0.00    +0.000 C 
ATOM     11  C   UNL     1      49.520   9.209  13.149  0.00  0.00    +0.000 C 
BRANCH  11  12
ATOM     12  C   UNL     1      50.676   8.698  14.013  0.00  0.00    +0.000 A 
ATOM     13  C   UNL     1      52.001   8.737  13.599  0.00  0.00    +0.000 A 
ATOM     14  S   UNL     1      53.085   7.964  14.661  0.00  0.00    +0.000 S 
ATOM     15  C   UNL     1      51.848   7.643  15.783  0.00  0.00    +0.000 A 
ATOM     16  N   UNL     1      52.125   7.007  16.956  0.00  0.00    +0.000 NA
ATOM     17  C   UNL     1      51.111   6.881  17.743  0.00  0.00    +0.000 A 
ATOM     18  N   UNL     1      49.849   7.326  17.463  0.00  0.00    +0.000 N 
ATOM     19  C   UNL     1      49.520   7.980  16.292  0.00  0.00    +0.000 A 
ATOM     20  O   UNL     1      48.386   8.424  16.101  0.00  0.00    +0.000 OA
ATOM     21  C   UNL     1      50.621   8.124  15.352  0.00  0.00    +0.000 A 
ATOM     22  H   UNL     1      49.108   7.230  18.145  0.00  0.00    +0.000 HD
ENDBRANCH  11  12
ENDBRANCH   8  11
ENDBRANCH   7   8
ENDBRANCH   1   7
BRANCH   4  23
ATOM     23  C   UNL     1      43.896   4.410  10.581  0.00  0.00    +0.000 C 
BRANCH  23  24
ATOM     24  N   UNL     1      44.667   3.166  10.542  0.00  0.00    +0.000 NA
ATOM     25  H   UNL     1      44.470   2.637  11.391  0.00  0.00    +0.000 HD
BRANCH  24  26
ATOM     26  C   UNL     1      44.309   2.369   9.374  0.00  0.00    +0.000 C 
BRANCH  26  27
ATOM     27  C   UNL     1      45.481   2.225   8.430  0.00  0.00    +0.000 A 
ATOM     28  C   UNL     1      46.018   3.349   7.795  0.00  0.00    +0.000 A 
ATOM     29  C   UNL     1      47.109   3.211   6.937  0.00  0.00    +0.000 A 
ATOM     30  N   UNL     1      47.684   1.978   6.690  0.00  0.00    +0.000 N 
ATOM     31  O   UNL     1      48.676   1.872   5.908  0.00  0.00    +0.000 OA
ATOM     32  C   UNL     1      47.152   0.868   7.319  0.00  0.00    +0.000 A 
ATOM     33  C   UNL     1      46.063   0.974   8.186  0.00  0.00    +0.000 A 
ENDBRANCH  26  27
ENDBRANCH  24  26
ENDBRANCH  23  24
ENDBRANCH   4  23
TORSDOF 8
ENDMDL
MODEL 9
REMARK VINA RESULT:    -6.049      3.228      4.500
REMARK INTER + INTRA:          -9.877
REMARK INTER:                  -8.762
REMARK INTRA:                  -1.116
REMARK UNBOUND:                -0.999
REMARK  Name = 
REMARK  9 active torsions:
REMARK  status: ('A' for Active; 'I' for Inactive)
REMARK    1  A    between atoms: C_1  and  C_2
REMARK    2  A    between atoms: C_2  and  N_3
REMARK    3  A    between atoms: C_2  and  C_21
REMARK    4  A    between atoms: N_3  and  C_4
REMARK    5  A    between atoms: C_4  and  C_5
REMARK    6  A    between atoms: C_8  and  C_9
REMARK    7  A    between atoms: C_9  and  N_10
REMARK    8  A    between atoms: N_10  and  C_11
REMARK    9  A    between atoms: C_11  and  C_12
REMARK                            x       y       z     vdW  Elec       q    Type
REMARK                         _______ _______ _______ _____ _____    ______ ____
ROOT
ATOM      1  C   UNL     1      50.153   7.358  15.253  0.00  0.00    +0.000 A 
ATOM      2  C   UNL     1      48.903   6.764  15.477  0.00  0.00    +0.000 A 
ATOM      3  C   UNL     1      47.985   6.635  14.437  0.00  0.00    +0.000 A 
ATOM      4  C   UNL     1      48.293   7.111  13.154  0.00  0.00    +0.000 A 
ATOM      5  C   UNL     1      49.544   7.701  12.931  0.00  0.00    +0.000 A 
ATOM      6  C   UNL     1      50.467   7.823  13.971  0.00  0.00    +0.000 A 
ENDROOT
BRANCH   1   7
ATOM      7  C   UNL     1      51.075   7.639  16.412  0.00  0.00    +0.000 C 
BRANCH   7   8
ATOM      8  N   UNL     1      52.003   6.539  16.693  0.00  0.00    +0.000 NA
ATOM      9  H   UNL     1      52.953   6.911  16.689  0.00  0.00    +0.000 HD
BRANCH   8  11
ATOM     10  C   UNL     1      50.708   6.731  18.793  0.00  0.00    +0.000 C 
ATOM     11  C   UNL     1      51.748   5.907  18.001  0.00  0.00    +0.000 C 
BRANCH  11  12
ATOM     12  C   UNL     1      51.244   4.484  17.740  0.00  0.00    +0.000 A 
ATOM     13  C   UNL     1      49.914   4.193  17.465  0.00  0.00    +0.000 A 
ATOM     14  S   UNL     1      49.569   2.528  17.374  0.00  0.00    +0.000 S 
ATOM     15  C   UNL     1      51.207   2.119  17.583  0.00  0.00    +0.000 A 
ATOM     16  N   UNL     1      51.600   0.814  17.577  0.00  0.00    +0.000 NA
ATOM     17  C   UNL     1      52.875   0.645  17.682  0.00  0.00    +0.000 A 
ATOM     18  N   UNL     1      53.787   1.656  17.798  0.00  0.00    +0.000 N 
ATOM     19  C   UNL     1      53.439   2.992  17.804  0.00  0.00    +0.000 A 
ATOM     20  O   UNL     1      54.294   3.880  17.846  0.00  0.00    +0.000 OA
ATOM     21  C   UNL     1      52.008   3.243  17.717  0.00  0.00    +0.000 A 
ATOM     22  H   UNL     1      54.778   1.452  17.836  0.00  0.00    +0.000 HD
ENDBRANCH  11  12
ENDBRANCH   8  11
ENDBRANCH   7   8
ENDBRANCH   1   7
BRANCH   4  23
ATOM     23  C   UNL     1      47.296   6.982  12.030  0.00  0.00    +0.000 C 
BRANCH  23  24
ATOM     24  N   UNL     1      45.975   7.472  12.432  0.00  0.00    +0.000 NA
ATOM     25  H   UNL     1      46.044   8.473  12.613  0.00  0.00    +0.000 HD
BRANCH  24  26
ATOM     26  C   UNL     1      44.991   7.230  11.385  0.00  0.00    +0.000 C 
BRANCH  26  27
ATOM     27  C   UNL     1      44.426   5.829  11.478  0.00  0.00    +0.000 A 
ATOM     28  C   UNL     1      44.493   4.967  10.379  0.00  0.00    +0.000 A 
ATOM     29  C   UNL     1      43.985   3.672  10.477  0.00  0.00    +0.000 A 
ATOM     30  N   UNL     1      43.407   3.208  11.644  0.00  0.00    +0.000 N 
ATOM     31  O   UNL     1      42.951   2.026  11.714  0.00  0.00    +0.000 OA
ATOM     32  C   UNL     1      43.341   4.061  12.729  0.00  0.00    +0.000 A 
ATOM     33  C   UNL     1      43.845   5.362  12.663  0.00  0.00    +0.000 A 
ENDBRANCH  26  27
ENDBRANCH  24  26
ENDBRANCH  23  24
ENDBRANCH   4  23
TORSDOF 8
ENDMDL
