MODEL 1
REMARK VINA RESULT:    -8.615      0.000      0.000
REMARK INTER + INTRA:         -13.601
REMARK INTER:                 -12.140
REMARK INTRA:                  -1.461
REMARK UNBOUND:                -1.461
REMARK  Name = 
REMARK  8 active torsions:
REMARK  status: ('A' for Active; 'I' for Inactive)
REMARK    1  A    between atoms: C_1  and  C_2
REMARK    2  A    between atoms: C_2  and  N_3
REMARK    3  A    between atoms: C_2  and  C_25
REMARK    4  A    between atoms: N_3  and  C_4
REMARK    5  A    between atoms: C_4  and  C_5
REMARK    6  A    between atoms: C_8  and  C_9
REMARK    7  A    between atoms: C_9  and  N_10
REMARK    8  A    between atoms: C_11  and  C_13
REMARK                            x       y       z     vdW  Elec       q    Type
REMARK                         _______ _______ _______ _____ _____    ______ ____
ROOT
ATOM      1  C   UNL     1      44.661   5.844  10.972  0.00  0.00    +0.000 A 
ATOM      2  C   UNL     1      46.041   5.849  10.722  0.00  0.00    +0.000 A 
ATOM      3  C   UNL     1      46.907   6.614  11.507  0.00  0.00    +0.000 A 
ATOM      4  C   UNL     1      46.410   7.399  12.555  0.00  0.00    +0.000 A 
ATOM      5  C   UNL     1      45.027   7.442  12.769  0.00  0.00    +0.000 A 
ATOM      6  C   UNL     1      44.162   6.666  11.992  0.00  0.00    +0.000 A 
ENDROOT
BRANCH   1   7
ATOM      7  C   UNL     1      43.730   4.956  10.170  0.00  0.00    +0.000 C 
BRANCH   7   8
ATOM      8  N   UNL     1      44.391   4.477   8.960  0.00  0.00    +0.000 NA
ATOM      9  H   UNL     1      43.916   4.862   8.145  0.00  0.00    +0.000 HD
BRANCH   8  11
ATOM     10  C   UNL     1      44.554   2.290  10.153  0.00  0.00    +0.000 C 
ATOM     11  C   UNL     1      44.427   3.018   8.810  0.00  0.00    +0.000 C 
BRANCH  11  12
ATOM     12  C   UNL     1      45.599   2.651   7.905  0.00  0.00    +0.000 A 
ATOM     13  C   UNL     1      46.045   3.528   6.907  0.00  0.00    +0.000 A 
ATOM     14  C   UNL     1      47.147   3.197   6.111  0.00  0.00    +0.000 A 
ATOM     15  C   UNL     1      47.813   1.987   6.302  0.00  0.00    +0.000 A 
ATOM     16  C   UNL     1      47.378   1.103   7.284  0.00  0.00    +0.000 A 
ATOM     17  C   UNL     1      46.281   1.432   8.080  0.00  0.00    +0.000 A 
ENDBRANCH  11  12
ENDBRANCH   8  11
ENDBRANCH   7   8
ENDBRANCH   1   7
BRANCH   4  18
ATOM     18  C   UNL     1      47.339   8.191  13.433  0.00  0.00    +0.000 C 
BRANCH  18  19
ATOM     19  N   UNL     1      47.664   7.476  14.640  0.00  0.00    +0.000 N 
ATOM     20  C   UNL     1      48.892   6.888  14.800  0.00  0.00    +0.000 C 
ATOM     21  O   UNL     1      49.771   6.971  13.945  0.00  0.00    +0.000 OA
ATOM     22  H   UNL     1      46.892   7.201  15.239  0.00  0.00    +0.000 HD
BRANCH  20  23
ATOM     23  C   UNL     1      49.131   6.203  16.076  0.00  0.00    +0.000 A 
ATOM     24  C   UNL     1      50.140   6.651  16.917  0.00  0.00    +0.000 A 
ATOM     25  S   UNL     1      50.258   5.771  18.373  0.00  0.00    +0.000 S 
ATOM     26  C   UNL     1      48.996   4.727  17.908  0.00  0.00    +0.000 A 
ATOM     27  N   UNL     1      48.608   3.701  18.706  0.00  0.00    +0.000 NA
ATOM     28  C   UNL     1      47.663   2.968  18.217  0.00  0.00    +0.000 A 
ATOM     29  N   UNL     1      47.066   3.180  17.000  0.00  0.00    +0.000 N 
ATOM     30  C   UNL     1      47.400   4.226  16.175  0.00  0.00    +0.000 A 
ATOM     31  O   UNL     1      46.805   4.419  15.118  0.00  0.00    +0.000 OA
ATOM     32  C   UNL     1      48.475   5.064  16.670  0.00  0.00    +0.000 A 
ATOM     33  H   UNL     1      46.321   2.578  16.681  0.00  0.00    +0.000 HD
ENDBRANCH  20  23
ENDBRANCH  18  19
ENDBRANCH   4  18
TORSDOF 7
ENDMDL
MODEL 2
REMARK VINA RESULT:    -7.978      2.495      3.102
REMARK INTER + INTRA:         -12.704
REMARK INTER:                 -11.554
REMARK INTRA:                  -1.149
REMARK UNBOUND:                -1.461
REMARK  Name = 
REMARK  8 active torsions:
REMARK  status: ('A' for Active; 'I' for Inactive)
REMARK    1  A    between atoms: C_1  and  C_2
REMARK    2  A    between atoms: C_2  and  N_3
REMARK    3  A    between atoms: C_2  and  C_25
REMARK    4  A    between atoms: N_3  and  C_4
REMARK    5  A    between atoms: C_4  and  C_5
REMARK    6  A    between atoms: C_8  and  C_9
REMARK    7  A    between atoms: C_9  and  N_10
REMARK    8  A    between atoms: C_11  and  C_13
REMARK                            x       y       z     vdW  Elec       q    Type
REMARK                         _______ _______ _______ _____ _____    ______ ____
ROOT
ATOM      1  C   UNL     1      45.442   5.660  11.648  0.00  0.00    +0.000 A 
ATOM      2  C   UNL     1      46.412   6.593  11.250  0.00  0.00    +0.000 A 
ATOM      3  C   UNL     1      47.471   6.928  12.097  0.00  0.00    +0.000 A 
ATOM      4  C   UNL     1      47.578   6.346  13.366  0.00  0.00    +0.000 A 
ATOM      5  C   UNL     1      46.579   5.461  13.789  0.00  0.00    +0.000 A 
ATOM      6  C   UNL     1      45.527   5.114  12.936  0.00  0.00    +0.000 A 
ENDROOT
BRANCH   1   7
ATOM      7  C   UNL     1      44.336   5.238  10.701  0.00  0.00    +0.000 C 
BRANCH   7   8
ATOM      8  N   UNL     1      44.892   4.795   9.426  0.00  0.00    +0.000 NA
ATOM      9  H   UNL     1      44.618   5.451   8.696  0.00  0.00    +0.000 HD
BRANCH   8  11
ATOM     10  C   UNL     1      44.152   2.534  10.185  0.00  0.00    +0.000 C 
ATOM     11  C   UNL     1      44.475   3.453   9.002  0.00  0.00    +0.000 C 
BRANCH  11  12
ATOM     12  C   UNL     1      45.589   2.843   8.156  0.00  0.00    +0.000 A 
ATOM     13  C   UNL     1      46.297   3.616   7.225  0.00  0.00    +0.000 A 
ATOM     14  C   UNL     1      47.342   3.055   6.485  0.00  0.00    +0.000 A 
ATOM     15  C   UNL     1      47.691   1.717   6.665  0.00  0.00    +0.000 A 
ATOM     16  C   UNL     1      46.993   0.935   7.580  0.00  0.00    +0.000 A 
ATOM     17  C   UNL     1      45.951   1.494   8.320  0.00  0.00    +0.000 A 
ENDBRANCH  11  12
ENDBRANCH   8  11
ENDBRANCH   7   8
ENDBRANCH   1   7
BRANCH   4  18
ATOM     18  C   UNL     1      48.738   6.669  14.268  0.00  0.00    +0.000 C 
BRANCH  18  19
ATOM     19  N   UNL     1      48.305   6.910  15.619  0.00  0.00    +0.000 N 
ATOM     20  C   UNL     1      48.891   6.256  16.673  0.00  0.00    +0.000 C 
ATOM     21  O   UNL     1      49.821   5.468  16.515  0.00  0.00    +0.000 OA
ATOM     22  H   UNL     1      47.406   7.363  15.745  0.00  0.00    +0.000 HD
BRANCH  20  23
ATOM     23  C   UNL     1      48.392   6.590  18.012  0.00  0.00    +0.000 A 
ATOM     24  C   UNL     1      48.194   5.580  18.943  0.00  0.00    +0.000 A 
ATOM     25  S   UNL     1      47.650   6.143  20.457  0.00  0.00    +0.000 S 
ATOM     26  C   UNL     1      47.610   7.753  19.907  0.00  0.00    +0.000 A 
ATOM     27  N   UNL     1      47.191   8.759  20.716  0.00  0.00    +0.000 NA
ATOM     28  C   UNL     1      47.180   9.925  20.160  0.00  0.00    +0.000 A 
ATOM     29  N   UNL     1      47.560  10.173  18.865  0.00  0.00    +0.000 N 
ATOM     30  C   UNL     1      48.025   9.194  18.021  0.00  0.00    +0.000 A 
ATOM     31  O   UNL     1      48.410   9.462  16.887  0.00  0.00    +0.000 OA
ATOM     32  C   UNL     1      48.033   7.861  18.592  0.00  0.00    +0.000 A 
ATOM     33  H   UNL     1      47.541  11.112  18.494  0.00  0.00    +0.000 HD
ENDBRANCH  20  23
ENDBRANCH  18  19
ENDBRANCH   4  18
TORSDOF 7
ENDMDL
MODEL 3
REMARK VINA RESULT:    -7.547      1.954      2.273
REMARK INTER + INTRA:         -12.096
REMARK INTER:                 -10.930
REMARK INTRA:                  -1.167
REMARK UNBOUND:                -1.461
REMARK  Name = 
REMARK  8 active torsions:
REMARK  status: ('A' for Active; 'I' for Inactive)
REMARK    1  A    between atoms: C_1  and  C_2
REMARK    2  A    between atoms: C_2  and  N_3
REMARK    3  A    between atoms: C_2  and  C_25
REMARK    4  A    between atoms: N_3  and  C_4
REMARK    5  A    between atoms: C_4  and  C_5
REMARK    6  A    between atoms: C_8  and  C_9
REMARK    7  A    between atoms: C_9  and  N_10
REMARK    8  A    between atoms: C_11  and  C_13
REMARK                            x       y       z     vdW  Elec       q    Type
REMARK                         _______ _______ _______ _____ _____    ______ ____
ROOT
ATOM      1  C   UNL     1      45.946   5.880  11.706  0.00  0.00    +0.000 A 
ATOM      2  C   UNL     1      46.280   5.311  12.945  0.00  0.00    +0.000 A 
ATOM      3  C   UNL     1      47.342   5.814  13.699  0.00  0.00    +0.000 A 
ATOM      4  C   UNL     1      48.102   6.892  13.228  0.00  0.00    +0.000 A 
ATOM      5  C   UNL     1      47.809   7.423  11.966  0.00  0.00    +0.000 A 
ATOM      6  C   UNL     1      46.737   6.929  11.217  0.00  0.00    +0.000 A 
ENDROOT
BRANCH   1   7
ATOM      7  C   UNL     1      44.748   5.385  10.922  0.00  0.00    +0.000 C 
BRANCH   7   8
ATOM      8  N   UNL     1      45.147   4.968   9.581  0.00  0.00    +0.000 NA
ATOM      9  H   UNL     1      44.892   5.697   8.915  0.00  0.00    +0.000 HD
BRANCH   8  11
ATOM     10  C   UNL     1      44.090   2.815  10.277  0.00  0.00    +0.000 C 
ATOM     11  C   UNL     1      44.548   3.711   9.120  0.00  0.00    +0.000 C 
BRANCH  11  12
ATOM     12  C   UNL     1      45.572   2.972   8.262  0.00  0.00    +0.000 A 
ATOM     13  C   UNL     1      46.314   3.644   7.281  0.00  0.00    +0.000 A 
ATOM     14  C   UNL     1      47.277   2.963   6.529  0.00  0.00    +0.000 A 
ATOM     15  C   UNL     1      47.509   1.605   6.748  0.00  0.00    +0.000 A 
ATOM     16  C   UNL     1      46.775   0.923   7.714  0.00  0.00    +0.000 A 
ATOM     17  C   UNL     1      45.815   1.601   8.465  0.00  0.00    +0.000 A 
ENDBRANCH  11  12
ENDBRANCH   8  11
ENDBRANCH   7   8
ENDBRANCH   1   7
BRANCH   4  18
ATOM     18  C   UNL     1      49.220   7.468  14.054  0.00  0.00    +0.000 C 
BRANCH  18  19
ATOM     19  N   UNL     1      49.418   6.721  15.269  0.00  0.00    +0.000 N 
ATOM     20  C   UNL     1      50.605   6.791  15.952  0.00  0.00    +0.000 C 
ATOM     21  O   UNL     1      51.530   7.509  15.579  0.00  0.00    +0.000 OA
ATOM     22  H   UNL     1      48.772   5.961  15.458  0.00  0.00    +0.000 HD
BRANCH  20  23
ATOM     23  C   UNL     1      50.696   6.010  17.191  0.00  0.00    +0.000 A 
ATOM     24  C   UNL     1      51.719   5.084  17.345  0.00  0.00    +0.000 A 
ATOM     25  S   UNL     1      51.702   4.292  18.855  0.00  0.00    +0.000 S 
ATOM     26  C   UNL     1      50.296   5.122  19.337  0.00  0.00    +0.000 A 
ATOM     27  N   UNL     1      49.719   4.880  20.541  0.00  0.00    +0.000 NA
ATOM     28  C   UNL     1      48.640   5.555  20.765  0.00  0.00    +0.000 A 
ATOM     29  N   UNL     1      48.093   6.458  19.889  0.00  0.00    +0.000 N 
ATOM     30  C   UNL     1      48.660   6.762  18.676  0.00  0.00    +0.000 A 
ATOM     31  O   UNL     1      48.173   7.618  17.942  0.00  0.00    +0.000 OA
ATOM     32  C   UNL     1      49.862   6.012  18.368  0.00  0.00    +0.000 A 
ATOM     33  H   UNL     1      47.253   6.964  20.129  0.00  0.00    +0.000 HD
ENDBRANCH  20  23
ENDBRANCH  18  19
ENDBRANCH   4  18
TORSDOF 7
ENDMDL
MODEL 4
REMARK VINA RESULT:    -7.373      2.982      8.462
REMARK INTER + INTRA:         -11.851
REMARK INTER:                  -9.906
REMARK INTRA:                  -1.945
REMARK UNBOUND:                -1.461
REMARK  Name = 
REMARK  8 active torsions:
REMARK  status: ('A' for Active; 'I' for Inactive)
REMARK    1  A    between atoms: C_1  and  C_2
REMARK    2  A    between atoms: C_2  and  N_3
REMARK    3  A    between atoms: C_2  and  C_25
REMARK    4  A    between atoms: N_3  and  C_4
REMARK    5  A    between atoms: C_4  and  C_5
REMARK    6  A    between atoms: C_8  and  C_9
REMARK    7  A    between atoms: C_9  and  N_10
REMARK    8  A    between atoms: C_11  and  C_13
REMARK                            x       y       z     vdW  Elec       q    Type
REMARK                         _______ _______ _______ _____ _____    ______ ____
ROOT
ATOM      1  C   UNL     1      48.715   7.928  16.111  0.00  0.00    +0.000 A 
ATOM      2  C   UNL     1      48.271   9.082  15.448  0.00  0.00    +0.000 A 
ATOM      3  C   UNL     1      47.867   9.028  14.112  0.00  0.00    +0.000 A 
ATOM      4  C   UNL     1      47.908   7.821  13.405  0.00  0.00    +0.000 A 
ATOM      5  C   UNL     1      48.408   6.680  14.045  0.00  0.00    +0.000 A 
ATOM      6  C   UNL     1      48.799   6.730  15.386  0.00  0.00    +0.000 A 
ENDROOT
BRANCH   1   7
ATOM      7  C   UNL     1      49.081   7.968  17.581  0.00  0.00    +0.000 C 
BRANCH   7   8
ATOM      8  N   UNL     1      47.971   7.491  18.400  0.00  0.00    +0.000 NA
ATOM      9  H   UNL     1      47.619   8.261  18.966  0.00  0.00    +0.000 HD
BRANCH   8  11
ATOM     10  C   UNL     1      49.627   6.601  20.044  0.00  0.00    +0.000 C 
ATOM     11  C   UNL     1      48.301   6.384  19.305  0.00  0.00    +0.000 C 
BRANCH  11  12
ATOM     12  C   UNL     1      48.363   5.094  18.492  0.00  0.00    +0.000 A 
ATOM     13  C   UNL     1      47.231   4.604  17.825  0.00  0.00    +0.000 A 
ATOM     14  C   UNL     1      47.312   3.442  17.050  0.00  0.00    +0.000 A 
ATOM     15  C   UNL     1      48.520   2.757  16.935  0.00  0.00    +0.000 A 
ATOM     16  C   UNL     1      49.650   3.227  17.597  0.00  0.00    +0.000 A 
ATOM     17  C   UNL     1      49.573   4.386  18.369  0.00  0.00    +0.000 A 
ENDBRANCH  11  12
ENDBRANCH   8  11
ENDBRANCH   7   8
ENDBRANCH   1   7
BRANCH   4  18
ATOM     18  C   UNL     1      47.434   7.745  11.978  0.00  0.00    +0.000 C 
BRANCH  18  19
ATOM     19  N   UNL     1      46.774   6.494  11.707  0.00  0.00    +0.000 N 
ATOM     20  C   UNL     1      45.409   6.388  11.785  0.00  0.00    +0.000 C 
ATOM     21  O   UNL     1      44.695   7.351  12.055  0.00  0.00    +0.000 OA
ATOM     22  H   UNL     1      47.346   5.656  11.716  0.00  0.00    +0.000 HD
BRANCH  20  23
ATOM     23  C   UNL     1      44.835   5.076  11.466  0.00  0.00    +0.000 A 
ATOM     24  C   UNL     1      44.085   4.404  12.422  0.00  0.00    +0.000 A 
ATOM     25  S   UNL     1      43.459   2.915  11.878  0.00  0.00    +0.000 S 
ATOM     26  C   UNL     1      44.211   3.090  10.361  0.00  0.00    +0.000 A 
ATOM     27  N   UNL     1      44.104   2.126   9.412  0.00  0.00    +0.000 NA
ATOM     28  C   UNL     1      44.750   2.373   8.321  0.00  0.00    +0.000 A 
ATOM     29  N   UNL     1      45.489   3.507   8.095  0.00  0.00    +0.000 N 
ATOM     30  C   UNL     1      45.596   4.525   9.010  0.00  0.00    +0.000 A 
ATOM     31  O   UNL     1      46.220   5.551   8.752  0.00  0.00    +0.000 OA
ATOM     32  C   UNL     1      44.907   4.284  10.263  0.00  0.00    +0.000 A 
ATOM     33  H   UNL     1      45.960   3.647   7.213  0.00  0.00    +0.000 HD
ENDBRANCH  20  23
ENDBRANCH  18  19
ENDBRANCH   4  18
TORSDOF 7
ENDMDL
MODEL 5
REMARK VINA RESULT:    -7.296      2.273      2.979
REMARK INTER + INTRA:         -11.743
REMARK INTER:                 -10.469
REMARK INTRA:                  -1.274
REMARK UNBOUND:                -1.461
REMARK  Name = 
REMARK  8 active torsions:
REMARK  status: ('A' for Active; 'I' for Inactive)
REMARK    1  A    between atoms: C_1  and  C_2
REMARK    2  A    between atoms: C_2  and  N_3
REMARK    3  A    between atoms: C_2  and  C_25
REMARK    4  A    between atoms: N_3  and  C_4
REMARK    5  A    between atoms: C_4  and  C_5
REMARK    6  A    between atoms: C_8  and  C_9
REMARK    7  A    between atoms: C_9  and  N_10
REMARK    8  A    between atoms: C_11  and  C_13
REMARK                            x       y       z     vdW  Elec       q    Type
REMARK                         _______ _______ _______ _____ _____    ______ ____
ROOT
ATOM      1  C   UNL     1      46.158   5.814  12.289  0.00  0.00    +0.000 A 
ATOM      2  C   UNL     1      46.757   5.597  13.539  0.00  0.00    +0.000 A 
ATOM      3  C   UNL     1      47.890   6.318  13.924  0.00  0.00    +0.000 A 
ATOM      4  C   UNL     1      48.456   7.266  13.063  0.00  0.00    +0.000 A 
ATOM      5  C   UNL     1      47.897   7.441  11.791  0.00  0.00    +0.000 A 
ATOM      6  C   UNL     1      46.754   6.730  11.411  0.00  0.00    +0.000 A 
ENDROOT
BRANCH   1   7
ATOM      7  C   UNL     1      44.886   5.088  11.900  0.00  0.00    +0.000 C 
BRANCH   7   8
ATOM      8  N   UNL     1      44.687   5.136  10.455  0.00  0.00    +0.000 NA
ATOM      9  H   UNL     1      44.071   5.916  10.228  0.00  0.00    +0.000 HD
BRANCH   8  11
ATOM     10  C   UNL     1      43.697   2.893  10.928  0.00  0.00    +0.000 C 
ATOM     11  C   UNL     1      44.107   3.922   9.869  0.00  0.00    +0.000 C 
BRANCH  11  12
ATOM     12  C   UNL     1      45.128   3.309   8.914  0.00  0.00    +0.000 A 
ATOM     13  C   UNL     1      45.403   1.935   8.935  0.00  0.00    +0.000 A 
ATOM     14  C   UNL     1      46.312   1.379   8.027  0.00  0.00    +0.000 A 
ATOM     15  C   UNL     1      46.955   2.188   7.092  0.00  0.00    +0.000 A 
ATOM     16  C   UNL     1      46.697   3.556   7.064  0.00  0.00    +0.000 A 
ATOM     17  C   UNL     1      45.791   4.111   7.967  0.00  0.00    +0.000 A 
ENDBRANCH  11  12
ENDBRANCH   8  11
ENDBRANCH   7   8
ENDBRANCH   1   7
BRANCH   4  18
ATOM     18  C   UNL     1      49.650   8.078  13.486  0.00  0.00    +0.000 C 
BRANCH  18  19
ATOM     19  N   UNL     1      50.572   7.294  14.266  0.00  0.00    +0.000 N 
ATOM     20  C   UNL     1      51.352   7.879  15.230  0.00  0.00    +0.000 C 
ATOM     21  O   UNL     1      51.278   9.077  15.490  0.00  0.00    +0.000 OA
ATOM     22  H   UNL     1      50.811   6.372  13.914  0.00  0.00    +0.000 HD
BRANCH  20  23
ATOM     23  C   UNL     1      52.240   6.987  15.985  0.00  0.00    +0.000 A 
ATOM     24  C   UNL     1      53.610   7.213  15.974  0.00  0.00    +0.000 A 
ATOM     25  S   UNL     1      54.492   6.112  16.931  0.00  0.00    +0.000 S 
ATOM     26  C   UNL     1      53.079   5.262  17.354  0.00  0.00    +0.000 A 
ATOM     27  N   UNL     1      53.135   4.161  18.145  0.00  0.00    +0.000 NA
ATOM     28  C   UNL     1      51.994   3.596  18.360  0.00  0.00    +0.000 A 
ATOM     29  N   UNL     1      50.798   4.043  17.858  0.00  0.00    +0.000 N 
ATOM     30  C   UNL     1      50.687   5.172  17.084  0.00  0.00    +0.000 A 
ATOM     31  O   UNL     1      49.593   5.575  16.699  0.00  0.00    +0.000 OA
ATOM     32  C   UNL     1      51.946   5.830  16.794  0.00  0.00    +0.000 A 
ATOM     33  H   UNL     1      49.936   3.563  18.074  0.00  0.00    +0.000 HD
ENDBRANCH  20  23
ENDBRANCH  18  19
ENDBRANCH   4  18
TORSDOF 7
ENDMDL
MODEL 6
REMARK VINA RESULT:    -7.010      4.899      6.572
REMARK INTER + INTRA:         -11.339
REMARK INTER:                  -9.991
REMARK INTRA:                  -1.349
REMARK UNBOUND:                -1.461
REMARK  Name = 
REMARK  8 active torsions:
REMARK  status: ('A' for Active; 'I' for Inactive)
REMARK    1  A    between atoms: C_1  and  C_2
REMARK    2  A    between atoms: C_2  and  N_3
REMARK    3  A    between atoms: C_2  and  C_25
REMARK    4  A    between atoms: N_3  and  C_4
REMARK    5  A    between atoms: C_4  and  C_5
REMARK    6  A    between atoms: C_8  and  C_9
REMARK    7  A    between atoms: C_9  and  N_10
REMARK    8  A    between atoms: C_11  and  C_13
REMARK                            x       y       z     vdW  Elec       q    Type
REMARK                         _______ _______ _______ _____ _____    ______ ____
ROOT
ATOM      1  C   UNL     1      46.083   5.853  12.342  0.00  0.00    +0.000 A 
ATOM      2  C   UNL     1      46.849   5.609  13.493  0.00  0.00    +0.000 A 
ATOM      3  C   UNL     1      48.100   6.208  13.659  0.00  0.00    +0.000 A 
ATOM      4  C   UNL     1      48.618   7.057  12.674  0.00  0.00    +0.000 A 
ATOM      5  C   UNL     1      47.884   7.254  11.498  0.00  0.00    +0.000 A 
ATOM      6  C   UNL     1      46.625   6.667  11.338  0.00  0.00    +0.000 A 
ENDROOT
BRANCH   1   7
ATOM      7  C   UNL     1      44.694   5.265  12.195  0.00  0.00    +0.000 C 
BRANCH   7   8
ATOM      8  N   UNL     1      44.262   5.311  10.801  0.00  0.00    +0.000 NA
ATOM      9  H   UNL     1      43.513   5.995  10.705  0.00  0.00    +0.000 HD
BRANCH   8  11
ATOM     10  C   UNL     1      43.483   3.005  11.358  0.00  0.00    +0.000 C 
ATOM     11  C   UNL     1      43.775   4.036  10.262  0.00  0.00    +0.000 C 
BRANCH  11  12
ATOM     12  C   UNL     1      44.820   3.486   9.295  0.00  0.00    +0.000 A 
ATOM     13  C   UNL     1      45.093   2.113   9.227  0.00  0.00    +0.000 A 
ATOM     14  C   UNL     1      46.024   1.618   8.308  0.00  0.00    +0.000 A 
ATOM     15  C   UNL     1      46.693   2.488   7.449  0.00  0.00    +0.000 A 
ATOM     16  C   UNL     1      46.438   3.855   7.509  0.00  0.00    +0.000 A 
ATOM     17  C   UNL     1      45.509   4.350   8.424  0.00  0.00    +0.000 A 
ENDBRANCH  11  12
ENDBRANCH   8  11
ENDBRANCH   7   8
ENDBRANCH   1   7
BRANCH   4  18
ATOM     18  C   UNL     1      49.945   7.740  12.864  0.00  0.00    +0.000 C 
BRANCH  18  19
ATOM     19  N   UNL     1      50.517   8.142  11.605  0.00  0.00    +0.000 N 
ATOM     20  C   UNL     1      51.856   8.416  11.497  0.00  0.00    +0.000 C 
ATOM     21  O   UNL     1      52.624   8.301  12.449  0.00  0.00    +0.000 OA
ATOM     22  H   UNL     1      49.877   8.463  10.886  0.00  0.00    +0.000 HD
BRANCH  20  23
ATOM     23  C   UNL     1      52.342   8.793  10.165  0.00  0.00    +0.000 A 
ATOM     24  C   UNL     1      52.237  10.113   9.744  0.00  0.00    +0.000 A 
ATOM     25  S   UNL     1      52.883  10.388   8.191  0.00  0.00    +0.000 S 
ATOM     26  C   UNL     1      53.280   8.743   8.003  0.00  0.00    +0.000 A 
ATOM     27  N   UNL     1      53.845   8.287   6.857  0.00  0.00    +0.000 NA
ATOM     28  C   UNL     1      54.064   7.014   6.837  0.00  0.00    +0.000 A 
ATOM     29  N   UNL     1      53.773   6.158   7.870  0.00  0.00    +0.000 N 
ATOM     30  C   UNL     1      53.236   6.580   9.061  0.00  0.00    +0.000 A 
ATOM     31  O   UNL     1      53.041   5.795   9.985  0.00  0.00    +0.000 OA
ATOM     32  C   UNL     1      52.949   8.000   9.124  0.00  0.00    +0.000 A 
ATOM     33  H   UNL     1      53.982   5.173   7.797  0.00  0.00    +0.000 HD
ENDBRANCH  20  23
ENDBRANCH  18  19
ENDBRANCH   4  18
TORSDOF 7
ENDMDL
MODEL 7
REMARK VINA RESULT:    -7.009      3.305      4.787
REMARK INTER + INTRA:         -11.339
REMARK INTER:                  -9.970
REMARK INTRA:                  -1.369
REMARK UNBOUND:                -1.461
REMARK  Name = 
REMARK  8 active torsions:
REMARK  status: ('A' for Active; 'I' for Inactive)
REMARK    1  A    between atoms: C_1  and  C_2
REMARK    2  A    between atoms: C_2  and  N_3
REMARK    3  A    between atoms: C_2  and  C_25
REMARK    4  A    between atoms: N_3  and  C_4
REMARK    5  A    between atoms: C_4  and  C_5
REMARK    6  A    between atoms: C_8  and  C_9
REMARK    7  A    between atoms: C_9  and  N_10
REMARK    8  A    between atoms: C_11  and  C_13
REMARK                            x       y       z     vdW  Elec       q    Type
REMARK                         _______ _______ _______ _____ _____    ______ ____
ROOT
ATOM      1  C   UNL     1      45.303   6.427  11.562  0.00  0.00    +0.000 A 
ATOM      2  C   UNL     1      46.395   5.805  12.186  0.00  0.00    +0.000 A 
ATOM      3  C   UNL     1      47.228   6.522  13.049  0.00  0.00    +0.000 A 
ATOM      4  C   UNL     1      46.993   7.879  13.300  0.00  0.00    +0.000 A 
ATOM      5  C   UNL     1      45.940   8.516  12.633  0.00  0.00    +0.000 A 
ATOM      6  C   UNL     1      45.097   7.796  11.780  0.00  0.00    +0.000 A 
ENDROOT
BRANCH   1   7
ATOM      7  C   UNL     1      44.354   5.633  10.686  0.00  0.00    +0.000 C 
BRANCH   7   8
ATOM      8  N   UNL     1      45.073   5.023   9.571  0.00  0.00    +0.000 NA
ATOM      9  H   UNL     1      45.047   5.655   8.772  0.00  0.00    +0.000 HD
BRANCH   8  11
ATOM     10  C   UNL     1      44.090   2.848  10.304  0.00  0.00    +0.000 C 
ATOM     11  C   UNL     1      44.548   3.725   9.133  0.00  0.00    +0.000 C 
BRANCH  11  12
ATOM     12  C   UNL     1      45.634   3.007   8.337  0.00  0.00    +0.000 A 
ATOM     13  C   UNL     1      45.836   1.626   8.472  0.00  0.00    +0.000 A 
ATOM     14  C   UNL     1      46.808   0.973   7.706  0.00  0.00    +0.000 A 
ATOM     15  C   UNL     1      47.588   1.690   6.800  0.00  0.00    +0.000 A 
ATOM     16  C   UNL     1      47.403   3.063   6.660  0.00  0.00    +0.000 A 
ATOM     17  C   UNL     1      46.433   3.715   7.421  0.00  0.00    +0.000 A 
ENDBRANCH  11  12
ENDBRANCH   8  11
ENDBRANCH   7   8
ENDBRANCH   1   7
BRANCH   4  18
ATOM     18  C   UNL     1      47.858   8.647  14.262  0.00  0.00    +0.000 C 
BRANCH  18  19
ATOM     19  N   UNL     1      49.168   8.889  13.715  0.00  0.00    +0.000 N 
ATOM     20  C   UNL     1      50.274   8.270  14.240  0.00  0.00    +0.000 C 
ATOM     21  O   UNL     1      50.195   7.469  15.167  0.00  0.00    +0.000 OA
ATOM     22  H   UNL     1      49.281   9.704  13.122  0.00  0.00    +0.000 HD
BRANCH  20  23
ATOM     23  C   UNL     1      51.559   8.566  13.595  0.00  0.00    +0.000 A 
ATOM     24  C   UNL     1      52.594   9.111  14.343  0.00  0.00    +0.000 A 
ATOM     25  S   UNL     1      54.026   9.357  13.452  0.00  0.00    +0.000 S 
ATOM     26  C   UNL     1      53.299   8.791  12.021  0.00  0.00    +0.000 A 
ATOM     27  N   UNL     1      53.983   8.769  10.849  0.00  0.00    +0.000 NA
ATOM     28  C   UNL     1      53.301   8.347   9.837  0.00  0.00    +0.000 A 
ATOM     29  N   UNL     1      51.993   7.935   9.897  0.00  0.00    +0.000 N 
ATOM     30  C   UNL     1      51.272   7.905  11.066  0.00  0.00    +0.000 A 
ATOM     31  O   UNL     1      50.121   7.477  11.092  0.00  0.00    +0.000 OA
ATOM     32  C   UNL     1      51.988   8.394  12.228  0.00  0.00    +0.000 A 
ATOM     33  H   UNL     1      51.520   7.603   9.070  0.00  0.00    +0.000 HD
ENDBRANCH  20  23
ENDBRANCH  18  19
ENDBRANCH   4  18
TORSDOF 7
ENDMDL
MODEL 8
REMARK VINA RESULT:    -6.916      3.322      8.016
REMARK INTER + INTRA:         -11.208
REMARK INTER:                  -9.406
REMARK INTRA:                  -1.802
REMARK UNBOUND:                -1.461
REMARK  Name = 
REMARK  8 active torsions:
REMARK  status: ('A' for Active; 'I' for Inactive)
REMARK    1  A    between atoms: C_1  and  C_2
REMARK    2  A    between atoms: C_2  and  N_3
REMARK    3  A    between atoms: C_2  and  C_25
REMARK    4  A    between atoms: N_3  and  C_4
REMARK    5  A    between atoms: C_4  and  C_5
REMARK    6  A    between atoms: C_8  and  C_9
REMARK    7  A    between atoms: C_9  and  N_10
REMARK    8  A    between atoms: C_11  and  C_13
REMARK                            x       y       z     vdW  Elec       q    Type
REMARK                         _______ _______ _______ _____ _____    ______ ____
ROOT
ATOM      1  C   UNL     1      48.884   7.919  16.331  0.00  0.00    +0.000 A 
ATOM      2  C   UNL     1      49.472   6.982  15.468  0.00  0.00    +0.000 A 
ATOM      3  C   UNL     1      49.250   7.041  14.090  0.00  0.00    +0.000 A 
ATOM      4  C   UNL     1      48.426   8.033  13.545  0.00  0.00    +0.000 A 
ATOM      5  C   UNL     1      47.789   8.932  14.409  0.00  0.00    +0.000 A 
ATOM      6  C   UNL     1      48.023   8.882  15.787  0.00  0.00    +0.000 A 
ENDROOT
BRANCH   1   7
ATOM      7  C   UNL     1      49.185   7.904  17.816  0.00  0.00    +0.000 C 
BRANCH   7   8
ATOM      8  N   UNL     1      48.533   6.767  18.461  0.00  0.00    +0.000 NA
ATOM      9  H   UNL     1      47.992   7.101  19.258  0.00  0.00    +0.000 HD
BRANCH   8  11
ATOM     10  C   UNL     1      50.912   6.167  18.925  0.00  0.00    +0.000 C 
ATOM     11  C   UNL     1      49.445   5.724  18.943  0.00  0.00    +0.000 C 
BRANCH  11  12
ATOM     12  C   UNL     1      49.264   4.482  18.075  0.00  0.00    +0.000 A 
ATOM     13  C   UNL     1      50.313   3.571  17.887  0.00  0.00    +0.000 A 
ATOM     14  C   UNL     1      50.122   2.416  17.121  0.00  0.00    +0.000 A 
ATOM     15  C   UNL     1      48.884   2.160  16.534  0.00  0.00    +0.000 A 
ATOM     16  C   UNL     1      47.835   3.058  16.705  0.00  0.00    +0.000 A 
ATOM     17  C   UNL     1      48.023   4.209  17.470  0.00  0.00    +0.000 A 
ENDBRANCH  11  12
ENDBRANCH   8  11
ENDBRANCH   7   8
ENDBRANCH   1   7
BRANCH   4  18
ATOM     18  C   UNL     1      48.215   8.130  12.058  0.00  0.00    +0.000 C 
BRANCH  18  19
ATOM     19  N   UNL     1      47.535   6.969  11.544  0.00  0.00    +0.000 N 
ATOM     20  C   UNL     1      46.184   6.991  11.311  0.00  0.00    +0.000 C 
ATOM     21  O   UNL     1      45.506   7.998  11.499  0.00  0.00    +0.000 OA
ATOM     22  H   UNL     1      48.022   6.080  11.607  0.00  0.00    +0.000 HD
BRANCH  20  23
ATOM     23  C   UNL     1      45.593   5.764  10.765  0.00  0.00    +0.000 A 
ATOM     24  C   UNL     1      45.737   5.474   9.415  0.00  0.00    +0.000 A 
ATOM     25  S   UNL     1      45.026   3.996   8.953  0.00  0.00    +0.000 S 
ATOM     26  C   UNL     1      44.454   3.713  10.531  0.00  0.00    +0.000 A 
ATOM     27  N   UNL     1      43.718   2.611  10.822  0.00  0.00    +0.000 NA
ATOM     28  C   UNL     1      43.322   2.539  12.049  0.00  0.00    +0.000 A 
ATOM     29  N   UNL     1      43.607   3.472  13.014  0.00  0.00    +0.000 N 
ATOM     30  C   UNL     1      44.378   4.583  12.776  0.00  0.00    +0.000 A 
ATOM     31  O   UNL     1      44.660   5.368  13.678  0.00  0.00    +0.000 OA
ATOM     32  C   UNL     1      44.827   4.722  11.405  0.00  0.00    +0.000 A 
ATOM     33  H   UNL     1      43.278   3.350  13.961  0.00  0.00    +0.000 HD
ENDBRANCH  20  23
ENDBRANCH  18  19
ENDBRANCH   4  18
TORSDOF 7
ENDMDL
MODEL 9
REMARK VINA RESULT:    -6.740      2.981      8.568
REMARK INTER + INTRA:         -10.959
REMARK INTER:                  -9.454
REMARK INTRA:                  -1.505
REMARK UNBOUND:                -1.461
REMARK  Name = 
REMARK  8 active torsions:
REMARK  status: ('A' for Active; 'I' for Inactive)
REMARK    1  A    between atoms: C_1  and  C_2
REMARK    2  A    between atoms: C_2  and  N_3
REMARK    3  A    between atoms: C_2  and  C_25
REMARK    4  A    between atoms: N_3  and  C_4
REMARK    5  A    between atoms: C_4  and  C_5
REMARK    6  A    between atoms: C_8  and  C_9
REMARK    7  A    between atoms: C_9  and  N_10
REMARK    8  A    between atoms: C_11  and  C_13
REMARK                            x       y       z     vdW  Elec       q    Type
REMARK                         _______ _______ _______ _____ _____    ______ ____
ROOT
ATOM      1  C   UNL     1      50.483   7.131  15.814  0.00  0.00    +0.000 A 
ATOM      2  C   UNL     1      49.148   6.701  15.851  0.00  0.00    +0.000 A 
ATOM      3  C   UNL     1      48.316   6.856  14.739  0.00  0.00    +0.000 A 
ATOM      4  C   UNL     1      48.798   7.453  13.568  0.00  0.00    +0.000 A 
ATOM      5  C   UNL     1      50.112   7.938  13.549  0.00  0.00    +0.000 A 
ATOM      6  C   UNL     1      50.949   7.771  14.656  0.00  0.00    +0.000 A 
ENDROOT
BRANCH   1   7
ATOM      7  C   UNL     1      51.408   6.896  16.991  0.00  0.00    +0.000 C 
BRANCH   7   8
ATOM      8  N   UNL     1      50.639   6.641  18.206  0.00  0.00    +0.000 NA
ATOM      9  H   UNL     1      50.867   7.351  18.901  0.00  0.00    +0.000 HD
BRANCH   8  11
ATOM     10  C   UNL     1      52.316   4.851  18.674  0.00  0.00    +0.000 C 
ATOM     11  C   UNL     1      50.866   5.327  18.818  0.00  0.00    +0.000 C 
BRANCH  11  12
ATOM     12  C   UNL     1      49.920   4.320  18.169  0.00  0.00    +0.000 A 
ATOM     13  C   UNL     1      50.414   3.241  17.422  0.00  0.00    +0.000 A 
ATOM     14  C   UNL     1      49.537   2.303  16.866  0.00  0.00    +0.000 A 
ATOM     15  C   UNL     1      48.162   2.432  17.050  0.00  0.00    +0.000 A 
ATOM     16  C   UNL     1      47.656   3.501  17.784  0.00  0.00    +0.000 A 
ATOM     17  C   UNL     1      48.528   4.437  18.340  0.00  0.00    +0.000 A 
ENDBRANCH  11  12
ENDBRANCH   8  11
ENDBRANCH   7   8
ENDBRANCH   1   7
BRANCH   4  18
ATOM     18  C   UNL     1      47.923   7.585  12.352  0.00  0.00    +0.000 C 
BRANCH  18  19
ATOM     19  N   UNL     1      47.148   6.392  12.128  0.00  0.00    +0.000 N 
ATOM     20  C   UNL     1      45.814   6.467  11.820  0.00  0.00    +0.000 C 
ATOM     21  O   UNL     1      45.234   7.543  11.692  0.00  0.00    +0.000 OA
ATOM     22  H   UNL     1      47.541   5.515  12.454  0.00  0.00    +0.000 HD
BRANCH  20  23
ATOM     23  C   UNL     1      45.121   5.195  11.588  0.00  0.00    +0.000 A 
ATOM     24  C   UNL     1      44.430   4.589  12.629  0.00  0.00    +0.000 A 
ATOM     25  S   UNL     1      43.652   3.140  12.180  0.00  0.00    +0.000 S 
ATOM     26  C   UNL     1      44.253   3.243  10.591  0.00  0.00    +0.000 A 
ATOM     27  N   UNL     1      43.982   2.278   9.677  0.00  0.00    +0.000 NA
ATOM     28  C   UNL     1      44.528   2.465   8.521  0.00  0.00    +0.000 A 
ATOM     29  N   UNL     1      45.315   3.542   8.198  0.00  0.00    +0.000 N 
ATOM     30  C   UNL     1      45.586   4.561   9.078  0.00  0.00    +0.000 A 
ATOM     31  O   UNL     1      46.247   5.538   8.737  0.00  0.00    +0.000 OA
ATOM     32  C   UNL     1      45.015   4.384  10.399  0.00  0.00    +0.000 A 
ATOM     33  H   UNL     1      45.701   3.638   7.270  0.00  0.00    +0.000 HD
ENDBRANCH  20  23
ENDBRANCH  18  19
ENDBRANCH   4  18
TORSDOF 7
ENDMDL
