MODEL 1
REMARK VINA RESULT:    -7.194      0.000      0.000
REMARK INTER + INTRA:         -11.739
REMARK INTER:                 -10.558
REMARK INTRA:                  -1.180
REMARK UNBOUND:                -1.180
REMARK  Name = 
REMARK  11 active torsions:
REMARK  status: ('A' for Active; 'I' for Inactive)
REMARK    1  A    between atoms: C_1  and  O_2
REMARK    2  A    between atoms: O_2  and  C_3
REMARK    3  A    between atoms: C_5  and  N_6
REMARK    4  A    between atoms: N_6  and  C_7
REMARK    5  A    between atoms: C_7  and  C_8
REMARK    6  A    between atoms: C_8  and  C_9
REMARK    7  A    between atoms: C_8  and  C_10
REMARK    8  A    between atoms: C_8  and  C_11
REMARK    9  A    between atoms: C_15  and  O_16
REMARK   10  A    between atoms: O_16  and  C_17
REMARK   11  A    between atoms: C_24  and  C_25
REMARK                            x       y       z     vdW  Elec       q    Type
REMARK                         _______ _______ _______ _____ _____    ______ ____
ROOT
ATOM      1  N   UNL     1      46.910   6.467  13.665  0.00  0.00    +0.000 N 
ATOM      2  H   UNL     1      46.079   6.938  14.014  0.00  0.00    +0.000 HD
ENDROOT
BRANCH   1   5
ATOM      3  C   UNL     1      48.865   5.466  16.711  0.00  0.00    +0.000 A 
ATOM      4  C   UNL     1      48.358   6.237  15.649  0.00  0.00    +0.000 A 
ATOM      5  C   UNL     1      47.508   5.697  14.673  0.00  0.00    +0.000 A 
ATOM      6  C   UNL     1      47.136   4.356  14.805  0.00  0.00    +0.000 A 
ATOM      7  C   UNL     1      47.634   3.569  15.849  0.00  0.00    +0.000 A 
ATOM      8  C   UNL     1      48.494   4.113  16.814  0.00  0.00    +0.000 A 
BRANCH   8   9
ATOM      9  C   UNL     1      48.913   3.198  17.924  0.00  0.00    +0.000 C 
ATOM     10  N   UNL     1      48.467   3.463  19.185  0.00  0.00    +0.000 N 
ATOM     11  O   UNL     1      49.623   2.219  17.719  0.00  0.00    +0.000 OA
ATOM     12  H   UNL     1      47.905   4.279  19.383  0.00  0.00    +0.000 HD
ATOM     13  H   UNL     1      48.724   2.837  19.934  0.00  0.00    +0.000 HD
ENDBRANCH   8   9
BRANCH   3  15
ATOM     14  C   UNL     1      49.381   7.177  18.296  0.00  0.00    +0.000 C 
ATOM     15  O   UNL     1      49.750   5.972  17.633  0.00  0.00    +0.000 OA
ENDBRANCH   3  15
ENDBRANCH   1   5
BRANCH   1  16
ATOM     16  C   UNL     1      46.718   5.873  12.333  0.00  0.00    +0.000 C 
BRANCH  16  17
ATOM     17  C   UNL     1      45.237   5.939  11.836  0.00  0.00    +0.000 C 
ATOM     18  C   UNL     1      44.245   5.825  13.014  0.00  0.00    +0.000 C 
ATOM     19  C   UNL     1      45.009   7.321  11.172  0.00  0.00    +0.000 C 
BRANCH  17  20
ATOM     20  C   UNL     1      44.978   4.755  10.869  0.00  0.00    +0.000 A 
ATOM     21  C   UNL     1      44.371   3.561  11.289  0.00  0.00    +0.000 A 
ATOM     22  C   UNL     1      44.154   2.505  10.398  0.00  0.00    +0.000 A 
ATOM     23  C   UNL     1      44.537   2.617   9.063  0.00  0.00    +0.000 A 
ATOM     24  C   UNL     1      45.139   3.785   8.615  0.00  0.00    +0.000 A 
ATOM     25  C   UNL     1      45.355   4.842   9.510  0.00  0.00    +0.000 A 
BRANCH  24  26
ATOM     26  O   UNL     1      45.504   4.012   7.310  0.00  0.00    +0.000 OA
BRANCH  26  27
ATOM     27  C   UNL     1      46.837   3.641   6.899  0.00  0.00    +0.000 C 
ATOM     28  C   UNL     1      46.938   3.004   5.504  0.00  0.00    +0.000 C 
ATOM     29  C   UNL     1      47.783   1.946   6.203  0.00  0.00    +0.000 C 
ATOM     30  O   UNL     1      47.357   2.418   7.501  0.00  0.00    +0.000 OA
ENDBRANCH  26  27
ENDBRANCH  24  26
ENDBRANCH  17  20
ENDBRANCH  16  17
ENDBRANCH   1  16
TORSDOF 8
ENDMDL
MODEL 2
REMARK VINA RESULT:    -6.928      1.236      2.090
REMARK INTER + INTRA:         -11.348
REMARK INTER:                 -10.538
REMARK INTRA:                  -0.809
REMARK UNBOUND:                -1.180
REMARK  Name = 
REMARK  11 active torsions:
REMARK  status: ('A' for Active; 'I' for Inactive)
REMARK    1  A    between atoms: C_1  and  O_2
REMARK    2  A    between atoms: O_2  and  C_3
REMARK    3  A    between atoms: C_5  and  N_6
REMARK    4  A    between atoms: N_6  and  C_7
REMARK    5  A    between atoms: C_7  and  C_8
REMARK    6  A    between atoms: C_8  and  C_9
REMARK    7  A    between atoms: C_8  and  C_10
REMARK    8  A    between atoms: C_8  and  C_11
REMARK    9  A    between atoms: C_15  and  O_16
REMARK   10  A    between atoms: O_16  and  C_17
REMARK   11  A    between atoms: C_24  and  C_25
REMARK                            x       y       z     vdW  Elec       q    Type
REMARK                         _______ _______ _______ _____ _____    ______ ____
ROOT
ATOM      1  N   UNL     1      46.251   4.727  13.041  0.00  0.00    +0.000 N 
ATOM      2  H   UNL     1      46.657   5.073  12.175  0.00  0.00    +0.000 HD
ENDROOT
BRANCH   1   5
ATOM      3  C   UNL     1      48.004   4.734  16.362  0.00  0.00    +0.000 A 
ATOM      4  C   UNL     1      47.151   4.359  15.309  0.00  0.00    +0.000 A 
ATOM      5  C   UNL     1      47.016   5.130  14.146  0.00  0.00    +0.000 A 
ATOM      6  C   UNL     1      47.797   6.285  14.037  0.00  0.00    +0.000 A 
ATOM      7  C   UNL     1      48.646   6.681  15.076  0.00  0.00    +0.000 A 
ATOM      8  C   UNL     1      48.765   5.911  16.241  0.00  0.00    +0.000 A 
BRANCH   8   9
ATOM      9  C   UNL     1      49.753   6.393  17.259  0.00  0.00    +0.000 C 
ATOM     10  N   UNL     1      49.303   6.680  18.515  0.00  0.00    +0.000 N 
ATOM     11  O   UNL     1      50.945   6.513  16.995  0.00  0.00    +0.000 OA
ATOM     12  H   UNL     1      48.321   6.616  18.748  0.00  0.00    +0.000 HD
ATOM     13  H   UNL     1      49.966   6.981  19.213  0.00  0.00    +0.000 HD
ENDBRANCH   8   9
BRANCH   3  15
ATOM     14  C   UNL     1      47.211   2.909  17.682  0.00  0.00    +0.000 C 
ATOM     15  O   UNL     1      48.091   4.018  17.532  0.00  0.00    +0.000 OA
ENDBRANCH   3  15
ENDBRANCH   1   5
BRANCH   1  16
ATOM     16  C   UNL     1      44.789   4.876  13.092  0.00  0.00    +0.000 C 
BRANCH  16  17
ATOM     17  C   UNL     1      44.177   5.419  11.759  0.00  0.00    +0.000 C 
ATOM     18  C   UNL     1      42.658   5.662  11.898  0.00  0.00    +0.000 C 
ATOM     19  C   UNL     1      44.837   6.786  11.444  0.00  0.00    +0.000 C 
BRANCH  17  20
ATOM     20  C   UNL     1      44.399   4.369  10.641  0.00  0.00    +0.000 A 
ATOM     21  C   UNL     1      43.955   3.042  10.757  0.00  0.00    +0.000 A 
ATOM     22  C   UNL     1      44.173   2.113   9.735  0.00  0.00    +0.000 A 
ATOM     23  C   UNL     1      44.838   2.486   8.569  0.00  0.00    +0.000 A 
ATOM     24  C   UNL     1      45.290   3.792   8.423  0.00  0.00    +0.000 A 
ATOM     25  C   UNL     1      45.070   4.722   9.448  0.00  0.00    +0.000 A 
BRANCH  24  26
ATOM     26  O   UNL     1      45.908   4.270   7.293  0.00  0.00    +0.000 OA
BRANCH  26  27
ATOM     27  C   UNL     1      47.132   3.635   6.864  0.00  0.00    +0.000 C 
ATOM     28  C   UNL     1      47.045   2.883   5.526  0.00  0.00    +0.000 C 
ATOM     29  C   UNL     1      47.728   1.750   6.280  0.00  0.00    +0.000 C 
ATOM     30  O   UNL     1      47.461   2.390   7.548  0.00  0.00    +0.000 OA
ENDBRANCH  26  27
ENDBRANCH  24  26
ENDBRANCH  17  20
ENDBRANCH  16  17
ENDBRANCH   1  16
TORSDOF 8
ENDMDL
MODEL 3
REMARK VINA RESULT:    -6.718      3.296      7.587
REMARK INTER + INTRA:         -11.040
REMARK INTER:                  -9.673
REMARK INTRA:                  -1.367
REMARK UNBOUND:                -1.180
REMARK  Name = 
REMARK  11 active torsions:
REMARK  status: ('A' for Active; 'I' for Inactive)
REMARK    1  A    between atoms: C_1  and  O_2
REMARK    2  A    between atoms: O_2  and  C_3
REMARK    3  A    between atoms: C_5  and  N_6
REMARK    4  A    between atoms: N_6  and  C_7
REMARK    5  A    between atoms: C_7  and  C_8
REMARK    6  A    between atoms: C_8  and  C_9
REMARK    7  A    between atoms: C_8  and  C_10
REMARK    8  A    between atoms: C_8  and  C_11
REMARK    9  A    between atoms: C_15  and  O_16
REMARK   10  A    between atoms: O_16  and  C_17
REMARK   11  A    between atoms: C_24  and  C_25
REMARK                            x       y       z     vdW  Elec       q    Type
REMARK                         _______ _______ _______ _____ _____    ______ ____
ROOT
ATOM      1  N   UNL     1      45.739   8.100  13.161  0.00  0.00    +0.000 N 
ATOM      2  H   UNL     1      44.915   8.565  13.533  0.00  0.00    +0.000 HD
ENDROOT
BRANCH   1   5
ATOM      3  C   UNL     1      45.452   4.384  12.708  0.00  0.00    +0.000 A 
ATOM      4  C   UNL     1      45.877   5.637  13.184  0.00  0.00    +0.000 A 
ATOM      5  C   UNL     1      45.409   6.841  12.639  0.00  0.00    +0.000 A 
ATOM      6  C   UNL     1      44.457   6.765  11.617  0.00  0.00    +0.000 A 
ATOM      7  C   UNL     1      44.026   5.530  11.124  0.00  0.00    +0.000 A 
ATOM      8  C   UNL     1      44.509   4.330  11.665  0.00  0.00    +0.000 A 
BRANCH   8   9
ATOM      9  C   UNL     1      43.930   3.067  11.107  0.00  0.00    +0.000 C 
ATOM     10  N   UNL     1      44.548   2.486  10.039  0.00  0.00    +0.000 N 
ATOM     11  O   UNL     1      42.936   2.541  11.598  0.00  0.00    +0.000 OA
ATOM     12  H   UNL     1      45.351   2.915   9.600  0.00  0.00    +0.000 HD
ATOM     13  H   UNL     1      44.178   1.621   9.673  0.00  0.00    +0.000 HD
ENDBRANCH   8   9
BRANCH   3  15
ATOM     14  C   UNL     1      47.163   3.268  13.945  0.00  0.00    +0.000 C 
ATOM     15  O   UNL     1      45.957   3.200  13.193  0.00  0.00    +0.000 OA
ENDBRANCH   3  15
ENDBRANCH   1   5
BRANCH   1  16
ATOM     16  C   UNL     1      46.600   8.996  12.374  0.00  0.00    +0.000 C 
BRANCH  16  17
ATOM     17  C   UNL     1      48.126   8.726  12.584  0.00  0.00    +0.000 C 
ATOM     18  C   UNL     1      48.611   7.545  11.715  0.00  0.00    +0.000 C 
ATOM     19  C   UNL     1      48.908   9.985  12.130  0.00  0.00    +0.000 C 
BRANCH  17  20
ATOM     20  C   UNL     1      48.372   8.366  14.071  0.00  0.00    +0.000 A 
ATOM     21  C   UNL     1      48.233   9.306  15.105  0.00  0.00    +0.000 A 
ATOM     22  C   UNL     1      48.466   8.956  16.438  0.00  0.00    +0.000 A 
ATOM     23  C   UNL     1      48.841   7.657  16.774  0.00  0.00    +0.000 A 
ATOM     24  C   UNL     1      48.986   6.703  15.775  0.00  0.00    +0.000 A 
ATOM     25  C   UNL     1      48.752   7.055  14.439  0.00  0.00    +0.000 A 
BRANCH  24  26
ATOM     26  O   UNL     1      49.301   5.386  16.009  0.00  0.00    +0.000 OA
BRANCH  26  27
ATOM     27  C   UNL     1      48.744   4.748  17.178  0.00  0.00    +0.000 C 
ATOM     28  C   UNL     1      48.947   3.226  17.252  0.00  0.00    +0.000 C 
ATOM     29  C   UNL     1      47.458   3.186  17.575  0.00  0.00    +0.000 C 
ATOM     30  O   UNL     1      47.298   4.560  17.157  0.00  0.00    +0.000 OA
ENDBRANCH  26  27
ENDBRANCH  24  26
ENDBRANCH  17  20
ENDBRANCH  16  17
ENDBRANCH   1  16
TORSDOF 8
ENDMDL
MODEL 4
REMARK VINA RESULT:    -6.508      2.770      7.938
REMARK INTER + INTRA:         -10.732
REMARK INTER:                  -8.947
REMARK INTRA:                  -1.784
REMARK UNBOUND:                -1.180
REMARK  Name = 
REMARK  11 active torsions:
REMARK  status: ('A' for Active; 'I' for Inactive)
REMARK    1  A    between atoms: C_1  and  O_2
REMARK    2  A    between atoms: O_2  and  C_3
REMARK    3  A    between atoms: C_5  and  N_6
REMARK    4  A    between atoms: N_6  and  C_7
REMARK    5  A    between atoms: C_7  and  C_8
REMARK    6  A    between atoms: C_8  and  C_9
REMARK    7  A    between atoms: C_8  and  C_10
REMARK    8  A    between atoms: C_8  and  C_11
REMARK    9  A    between atoms: C_15  and  O_16
REMARK   10  A    between atoms: O_16  and  C_17
REMARK   11  A    between atoms: C_24  and  C_25
REMARK                            x       y       z     vdW  Elec       q    Type
REMARK                         _______ _______ _______ _____ _____    ______ ____
ROOT
ATOM      1  N   UNL     1      47.973   7.433  11.460  0.00  0.00    +0.000 N 
ATOM      2  H   UNL     1      48.109   7.503  10.455  0.00  0.00    +0.000 HD
ENDROOT
BRANCH   1   5
ATOM      3  C   UNL     1      44.925   5.271  11.091  0.00  0.00    +0.000 A 
ATOM      4  C   UNL     1      45.976   6.152  10.781  0.00  0.00    +0.000 A 
ATOM      5  C   UNL     1      46.857   6.636  11.758  0.00  0.00    +0.000 A 
ATOM      6  C   UNL     1      46.687   6.182  13.070  0.00  0.00    +0.000 A 
ATOM      7  C   UNL     1      45.644   5.312  13.401  0.00  0.00    +0.000 A 
ATOM      8  C   UNL     1      44.759   4.842  12.420  0.00  0.00    +0.000 A 
BRANCH   8   9
ATOM      9  C   UNL     1      43.720   3.863  12.874  0.00  0.00    +0.000 C 
ATOM     10  N   UNL     1      43.852   2.557  12.500  0.00  0.00    +0.000 N 
ATOM     11  O   UNL     1      42.778   4.203  13.583  0.00  0.00    +0.000 OA
ATOM     12  H   UNL     1      44.603   2.258  11.894  0.00  0.00    +0.000 HD
ATOM     13  H   UNL     1      43.170   1.887  12.823  0.00  0.00    +0.000 HD
ENDBRANCH   8   9
BRANCH   3  15
ATOM     14  C   UNL     1      44.509   4.011   9.105  0.00  0.00    +0.000 C 
ATOM     15  O   UNL     1      44.018   4.844  10.150  0.00  0.00    +0.000 OA
ENDBRANCH   3  15
ENDBRANCH   1   5
BRANCH   1  16
ATOM     16  C   UNL     1      49.226   7.212  12.198  0.00  0.00    +0.000 C 
BRANCH  16  17
ATOM     17  C   UNL     1      49.717   8.479  12.973  0.00  0.00    +0.000 C 
ATOM     18  C   UNL     1      51.252   8.624  12.891  0.00  0.00    +0.000 C 
ATOM     19  C   UNL     1      49.097   9.730  12.300  0.00  0.00    +0.000 C 
BRANCH  17  20
ATOM     20  C   UNL     1      49.323   8.338  14.465  0.00  0.00    +0.000 A 
ATOM     21  C   UNL     1      48.822   9.414  15.215  0.00  0.00    +0.000 A 
ATOM     22  C   UNL     1      48.479   9.262  16.562  0.00  0.00    +0.000 A 
ATOM     23  C   UNL     1      48.626   8.030  17.195  0.00  0.00    +0.000 A 
ATOM     24  C   UNL     1      49.118   6.945  16.481  0.00  0.00    +0.000 A 
ATOM     25  C   UNL     1      49.461   7.099  15.131  0.00  0.00    +0.000 A 
BRANCH  24  26
ATOM     26  O   UNL     1      49.250   5.680  16.999  0.00  0.00    +0.000 OA
BRANCH  26  27
ATOM     27  C   UNL     1      48.282   4.680  16.615  0.00  0.00    +0.000 C 
ATOM     28  C   UNL     1      47.180   4.404  17.651  0.00  0.00    +0.000 C 
ATOM     29  C   UNL     1      47.517   2.938  17.411  0.00  0.00    +0.000 C 
ATOM     30  O   UNL     1      48.737   3.298  16.723  0.00  0.00    +0.000 OA
ENDBRANCH  26  27
ENDBRANCH  24  26
ENDBRANCH  17  20
ENDBRANCH  16  17
ENDBRANCH   1  16
TORSDOF 8
ENDMDL
MODEL 5
REMARK VINA RESULT:    -6.241      1.587      2.589
REMARK INTER + INTRA:         -10.340
REMARK INTER:                  -9.192
REMARK INTRA:                  -1.147
REMARK UNBOUND:                -1.180
REMARK  Name = 
REMARK  11 active torsions:
REMARK  status: ('A' for Active; 'I' for Inactive)
REMARK    1  A    between atoms: C_1  and  O_2
REMARK    2  A    between atoms: O_2  and  C_3
REMARK    3  A    between atoms: C_5  and  N_6
REMARK    4  A    between atoms: N_6  and  C_7
REMARK    5  A    between atoms: C_7  and  C_8
REMARK    6  A    between atoms: C_8  and  C_9
REMARK    7  A    between atoms: C_8  and  C_10
REMARK    8  A    between atoms: C_8  and  C_11
REMARK    9  A    between atoms: C_15  and  O_16
REMARK   10  A    between atoms: O_16  and  C_17
REMARK   11  A    between atoms: C_24  and  C_25
REMARK                            x       y       z     vdW  Elec       q    Type
REMARK                         _______ _______ _______ _____ _____    ______ ____
ROOT
ATOM      1  N   UNL     1      47.752   6.862  14.475  0.00  0.00    +0.000 N 
ATOM      2  H   UNL     1      47.039   7.546  14.715  0.00  0.00    +0.000 HD
ENDROOT
BRANCH   1   5
ATOM      3  C   UNL     1      48.833   4.445  17.138  0.00  0.00    +0.000 A 
ATOM      4  C   UNL     1      48.157   4.992  16.032  0.00  0.00    +0.000 A 
ATOM      5  C   UNL     1      48.335   6.323  15.631  0.00  0.00    +0.000 A 
ATOM      6  C   UNL     1      49.252   7.100  16.346  0.00  0.00    +0.000 A 
ATOM      7  C   UNL     1      49.929   6.579  17.453  0.00  0.00    +0.000 A 
ATOM      8  C   UNL     1      49.735   5.250  17.856  0.00  0.00    +0.000 A 
BRANCH   8   9
ATOM      9  C   UNL     1      50.562   4.778  19.013  0.00  0.00    +0.000 C 
ATOM     10  N   UNL     1      51.337   3.668  18.845  0.00  0.00    +0.000 N 
ATOM     11  O   UNL     1      50.571   5.373  20.085  0.00  0.00    +0.000 OA
ATOM     12  H   UNL     1      51.324   3.145  17.981  0.00  0.00    +0.000 HD
ATOM     13  H   UNL     1      51.916   3.357  19.611  0.00  0.00    +0.000 HD
ENDBRANCH   8   9
BRANCH   3  15
ATOM     14  C   UNL     1      47.259   2.759  17.757  0.00  0.00    +0.000 C 
ATOM     15  O   UNL     1      48.612   3.161  17.576  0.00  0.00    +0.000 OA
ENDBRANCH   3  15
ENDBRANCH   1   5
BRANCH   1  16
ATOM     16  C   UNL     1      47.339   5.954  13.394  0.00  0.00    +0.000 C 
BRANCH  16  17
ATOM     17  C   UNL     1      46.389   6.628  12.351  0.00  0.00    +0.000 C 
ATOM     18  C   UNL     1      45.760   7.919  12.919  0.00  0.00    +0.000 C 
ATOM     19  C   UNL     1      47.232   7.030  11.114  0.00  0.00    +0.000 C 
BRANCH  17  20
ATOM     20  C   UNL     1      45.243   5.643  12.006  0.00  0.00    +0.000 A 
ATOM     21  C   UNL     1      44.111   5.490  12.823  0.00  0.00    +0.000 A 
ATOM     22  C   UNL     1      43.094   4.590  12.492  0.00  0.00    +0.000 A 
ATOM     23  C   UNL     1      43.179   3.821  11.333  0.00  0.00    +0.000 A 
ATOM     24  C   UNL     1      44.285   3.950  10.502  0.00  0.00    +0.000 A 
ATOM     25  C   UNL     1      45.303   4.852  10.836  0.00  0.00    +0.000 A 
BRANCH  24  26
ATOM     26  O   UNL     1      44.436   3.277   9.314  0.00  0.00    +0.000 OA
BRANCH  26  27
ATOM     27  C   UNL     1      45.722   2.689   9.021  0.00  0.00    +0.000 C 
ATOM     28  C   UNL     1      46.265   2.972   7.611  0.00  0.00    +0.000 C 
ATOM     29  C   UNL     1      46.526   1.473   7.564  0.00  0.00    +0.000 C 
ATOM     30  O   UNL     1      45.703   1.260   8.733  0.00  0.00    +0.000 OA
ENDBRANCH  26  27
ENDBRANCH  24  26
ENDBRANCH  17  20
ENDBRANCH  16  17
ENDBRANCH   1  16
TORSDOF 8
ENDMDL
MODEL 6
REMARK VINA RESULT:    -6.091      3.041      8.987
REMARK INTER + INTRA:         -10.120
REMARK INTER:                  -9.072
REMARK INTRA:                  -1.049
REMARK UNBOUND:                -1.180
REMARK  Name = 
REMARK  11 active torsions:
REMARK  status: ('A' for Active; 'I' for Inactive)
REMARK    1  A    between atoms: C_1  and  O_2
REMARK    2  A    between atoms: O_2  and  C_3
REMARK    3  A    between atoms: C_5  and  N_6
REMARK    4  A    between atoms: N_6  and  C_7
REMARK    5  A    between atoms: C_7  and  C_8
REMARK    6  A    between atoms: C_8  and  C_9
REMARK    7  A    between atoms: C_8  and  C_10
REMARK    8  A    between atoms: C_8  and  C_11
REMARK    9  A    between atoms: C_15  and  O_16
REMARK   10  A    between atoms: O_16  and  C_17
REMARK   11  A    between atoms: C_24  and  C_25
REMARK                            x       y       z     vdW  Elec       q    Type
REMARK                         _______ _______ _______ _____ _____    ______ ____
ROOT
ATOM      1  N   UNL     1      47.290   5.321  14.890  0.00  0.00    +0.000 N 
ATOM      2  H   UNL     1      48.180   5.643  14.520  0.00  0.00    +0.000 HD
ENDROOT
BRANCH   1   5
ATOM      3  C   UNL     1      44.878   5.578  12.023  0.00  0.00    +0.000 A 
ATOM      4  C   UNL     1      45.674   5.931  13.128  0.00  0.00    +0.000 A 
ATOM      5  C   UNL     1      46.411   4.982  13.850  0.00  0.00    +0.000 A 
ATOM      6  C   UNL     1      46.368   3.655  13.412  0.00  0.00    +0.000 A 
ATOM      7  C   UNL     1      45.578   3.281  12.321  0.00  0.00    +0.000 A 
ATOM      8  C   UNL     1      44.833   4.234  11.612  0.00  0.00    +0.000 A 
BRANCH   8   9
ATOM      9  C   UNL     1      44.075   3.735  10.420  0.00  0.00    +0.000 C 
ATOM     10  N   UNL     1      43.953   4.556   9.338  0.00  0.00    +0.000 N 
ATOM     11  O   UNL     1      43.587   2.609  10.391  0.00  0.00    +0.000 OA
ATOM     12  H   UNL     1      44.322   5.497   9.349  0.00  0.00    +0.000 HD
ATOM     13  H   UNL     1      43.466   4.218   8.521  0.00  0.00    +0.000 HD
ENDBRANCH   8   9
BRANCH   3  15
ATOM     14  C   UNL     1      44.543   7.846  11.351  0.00  0.00    +0.000 C 
ATOM     15  O   UNL     1      44.101   6.493  11.352  0.00  0.00    +0.000 OA
ENDBRANCH   3  15
ENDBRANCH   1   5
BRANCH   1  16
ATOM     16  C   UNL     1      47.437   4.401  16.029  0.00  0.00    +0.000 C 
BRANCH  16  17
ATOM     17  C   UNL     1      48.362   4.961  17.158  0.00  0.00    +0.000 C 
ATOM     18  C   UNL     1      48.899   6.364  16.799  0.00  0.00    +0.000 C 
ATOM     19  C   UNL     1      47.517   5.106  18.450  0.00  0.00    +0.000 C 
BRANCH  17  20
ATOM     20  C   UNL     1      49.573   4.010  17.333  0.00  0.00    +0.000 A 
ATOM     21  C   UNL     1      49.475   2.624  17.131  0.00  0.00    +0.000 A 
ATOM     22  C   UNL     1      50.582   1.787  17.301  0.00  0.00    +0.000 A 
ATOM     23  C   UNL     1      51.817   2.313  17.674  0.00  0.00    +0.000 A 
ATOM     24  C   UNL     1      51.948   3.680  17.881  0.00  0.00    +0.000 A 
ATOM     25  C   UNL     1      50.837   4.518  17.710  0.00  0.00    +0.000 A 
BRANCH  24  26
ATOM     26  O   UNL     1      53.131   4.301  18.198  0.00  0.00    +0.000 OA
BRANCH  26  27
ATOM     27  C   UNL     1      53.683   5.243  17.254  0.00  0.00    +0.000 C 
ATOM     28  C   UNL     1      55.219   5.297  17.205  0.00  0.00    +0.000 C 
ATOM     29  C   UNL     1      55.028   6.805  17.296  0.00  0.00    +0.000 C 
ATOM     30  O   UNL     1      53.643   6.640  17.673  0.00  0.00    +0.000 OA
ENDBRANCH  26  27
ENDBRANCH  24  26
ENDBRANCH  17  20
ENDBRANCH  16  17
ENDBRANCH   1  16
TORSDOF 8
ENDMDL
MODEL 7
REMARK VINA RESULT:    -6.032      3.337      8.066
REMARK INTER + INTRA:         -10.033
REMARK INTER:                  -8.731
REMARK INTRA:                  -1.303
REMARK UNBOUND:                -1.180
REMARK  Name = 
REMARK  11 active torsions:
REMARK  status: ('A' for Active; 'I' for Inactive)
REMARK    1  A    between atoms: C_1  and  O_2
REMARK    2  A    between atoms: O_2  and  C_3
REMARK    3  A    between atoms: C_5  and  N_6
REMARK    4  A    between atoms: N_6  and  C_7
REMARK    5  A    between atoms: C_7  and  C_8
REMARK    6  A    between atoms: C_8  and  C_9
REMARK    7  A    between atoms: C_8  and  C_10
REMARK    8  A    between atoms: C_8  and  C_11
REMARK    9  A    between atoms: C_15  and  O_16
REMARK   10  A    between atoms: O_16  and  C_17
REMARK   11  A    between atoms: C_24  and  C_25
REMARK                            x       y       z     vdW  Elec       q    Type
REMARK                         _______ _______ _______ _____ _____    ______ ____
ROOT
ATOM      1  N   UNL     1      47.534   7.343  13.285  0.00  0.00    +0.000 N 
ATOM      2  H   UNL     1      47.415   8.131  12.653  0.00  0.00    +0.000 HD
ENDROOT
BRANCH   1   5
ATOM      3  C   UNL     1      44.654   5.452  11.791  0.00  0.00    +0.000 A 
ATOM      4  C   UNL     1      45.509   6.510  12.147  0.00  0.00    +0.000 A 
ATOM      5  C   UNL     1      46.610   6.328  12.996  0.00  0.00    +0.000 A 
ATOM      6  C   UNL     1      46.868   5.033  13.456  0.00  0.00    +0.000 A 
ATOM      7  C   UNL     1      46.027   3.968  13.120  0.00  0.00    +0.000 A 
ATOM      8  C   UNL     1      44.920   4.161  12.282  0.00  0.00    +0.000 A 
BRANCH   8   9
ATOM      9  C   UNL     1      44.127   2.939  11.933  0.00  0.00    +0.000 C 
ATOM     10  N   UNL     1      44.198   2.461  10.657  0.00  0.00    +0.000 N 
ATOM     11  O   UNL     1      43.442   2.355  12.767  0.00  0.00    +0.000 OA
ATOM     12  H   UNL     1      44.733   2.941   9.947  0.00  0.00    +0.000 HD
ATOM     13  H   UNL     1      43.687   1.624  10.421  0.00  0.00    +0.000 HD
ENDBRANCH   8   9
BRANCH   3  15
ATOM     14  C   UNL     1      42.301   5.847  11.690  0.00  0.00    +0.000 C 
ATOM     15  O   UNL     1      43.535   5.637  11.013  0.00  0.00    +0.000 OA
ENDBRANCH   3  15
ENDBRANCH   1   5
BRANCH   1  16
ATOM     16  C   UNL     1      48.944   6.984  13.501  0.00  0.00    +0.000 C 
BRANCH  16  17
ATOM     17  C   UNL     1      49.649   7.875  14.577  0.00  0.00    +0.000 C 
ATOM     18  C   UNL     1      50.894   8.578  13.993  0.00  0.00    +0.000 C 
ATOM     19  C   UNL     1      48.656   8.982  15.016  0.00  0.00    +0.000 C 
BRANCH  17  20
ATOM     20  C   UNL     1      50.107   6.975  15.752  0.00  0.00    +0.000 A 
ATOM     21  C   UNL     1      51.458   6.836  16.110  0.00  0.00    +0.000 A 
ATOM     22  C   UNL     1      51.845   6.013  17.171  0.00  0.00    +0.000 A 
ATOM     23  C   UNL     1      50.893   5.308  17.904  0.00  0.00    +0.000 A 
ATOM     24  C   UNL     1      49.548   5.423  17.576  0.00  0.00    +0.000 A 
ATOM     25  C   UNL     1      49.162   6.250  16.512  0.00  0.00    +0.000 A 
BRANCH  24  26
ATOM     26  O   UNL     1      48.532   4.812  18.270  0.00  0.00    +0.000 OA
BRANCH  26  27
ATOM     27  C   UNL     1      48.156   3.471  17.889  0.00  0.00    +0.000 C 
ATOM     28  C   UNL     1      49.248   2.664  17.169  0.00  0.00    +0.000 C 
ATOM     29  C   UNL     1      48.148   2.339  16.166  0.00  0.00    +0.000 C 
ATOM     30  O   UNL     1      47.300   3.375  16.712  0.00  0.00    +0.000 OA
ENDBRANCH  26  27
ENDBRANCH  24  26
ENDBRANCH  17  20
ENDBRANCH  16  17
ENDBRANCH   1  16
TORSDOF 8
ENDMDL
MODEL 8
REMARK VINA RESULT:    -5.954      3.179      8.159
REMARK INTER + INTRA:          -9.919
REMARK INTER:                  -8.338
REMARK INTRA:                  -1.582
REMARK UNBOUND:                -1.180
REMARK  Name = 
REMARK  11 active torsions:
REMARK  status: ('A' for Active; 'I' for Inactive)
REMARK    1  A    between atoms: C_1  and  O_2
REMARK    2  A    between atoms: O_2  and  C_3
REMARK    3  A    between atoms: C_5  and  N_6
REMARK    4  A    between atoms: N_6  and  C_7
REMARK    5  A    between atoms: C_7  and  C_8
REMARK    6  A    between atoms: C_8  and  C_9
REMARK    7  A    between atoms: C_8  and  C_10
REMARK    8  A    between atoms: C_8  and  C_11
REMARK    9  A    between atoms: C_15  and  O_16
REMARK   10  A    between atoms: O_16  and  C_17
REMARK   11  A    between atoms: C_24  and  C_25
REMARK                            x       y       z     vdW  Elec       q    Type
REMARK                         _______ _______ _______ _____ _____    ______ ____
ROOT
ATOM      1  N   UNL     1      47.396   3.420  15.409  0.00  0.00    +0.000 N 
ATOM      2  H   UNL     1      46.889   2.564  15.615  0.00  0.00    +0.000 HD
ENDROOT
BRANCH   1   5
ATOM      3  C   UNL     1      45.564   3.970  12.177  0.00  0.00    +0.000 A 
ATOM      4  C   UNL     1      46.101   3.333  13.310  0.00  0.00    +0.000 A 
ATOM      5  C   UNL     1      46.931   4.002  14.220  0.00  0.00    +0.000 A 
ATOM      6  C   UNL     1      47.186   5.359  13.992  0.00  0.00    +0.000 A 
ATOM      7  C   UNL     1      46.668   6.010  12.868  0.00  0.00    +0.000 A 
ATOM      8  C   UNL     1      45.849   5.329  11.955  0.00  0.00    +0.000 A 
BRANCH   8   9
ATOM      9  C   UNL     1      45.295   6.140  10.824  0.00  0.00    +0.000 C 
ATOM     10  N   UNL     1      45.381   5.634   9.560  0.00  0.00    +0.000 N 
ATOM     11  O   UNL     1      44.755   7.226  11.013  0.00  0.00    +0.000 OA
ATOM     12  H   UNL     1      45.846   4.756   9.377  0.00  0.00    +0.000 HD
ATOM     13  H   UNL     1      44.988   6.163   8.796  0.00  0.00    +0.000 HD
ENDBRANCH   8   9
BRANCH   3  15
ATOM     14  C   UNL     1      43.479   2.945  11.624  0.00  0.00    +0.000 C 
ATOM     15  O   UNL     1      44.804   3.302  11.246  0.00  0.00    +0.000 OA
ENDBRANCH   3  15
ENDBRANCH   1   5
BRANCH   1  16
ATOM     16  C   UNL     1      47.594   4.272  16.592  0.00  0.00    +0.000 C 
BRANCH  16  17
ATOM     17  C   UNL     1      48.878   3.909  17.406  0.00  0.00    +0.000 C 
ATOM     18  C   UNL     1      48.615   3.977  18.926  0.00  0.00    +0.000 C 
ATOM     19  C   UNL     1      49.269   2.447  17.069  0.00  0.00    +0.000 C 
BRANCH  17  20
ATOM     20  C   UNL     1      49.995   4.927  17.062  0.00  0.00    +0.000 A 
ATOM     21  C   UNL     1      51.335   4.725  17.428  0.00  0.00    +0.000 A 
ATOM     22  C   UNL     1      52.323   5.663  17.111  0.00  0.00    +0.000 A 
ATOM     23  C   UNL     1      51.997   6.826  16.416  0.00  0.00    +0.000 A 
ATOM     24  C   UNL     1      50.680   7.055  16.038  0.00  0.00    +0.000 A 
ATOM     25  C   UNL     1      49.692   6.115  16.358  0.00  0.00    +0.000 A 
BRANCH  24  26
ATOM     26  O   UNL     1      50.269   8.143  15.307  0.00  0.00    +0.000 OA
BRANCH  26  27
ATOM     27  C   UNL     1      50.569   8.171  13.895  0.00  0.00    +0.000 C 
ATOM     28  C   UNL     1      50.947   9.551  13.333  0.00  0.00    +0.000 C 
ATOM     29  C   UNL     1      49.937   9.225  12.240  0.00  0.00    +0.000 C 
ATOM     30  O   UNL     1      49.411   8.121  13.011  0.00  0.00    +0.000 OA
ENDBRANCH  26  27
ENDBRANCH  24  26
ENDBRANCH  17  20
ENDBRANCH  16  17
ENDBRANCH   1  16
TORSDOF 8
ENDMDL
MODEL 9
REMARK VINA RESULT:    -5.714      3.647      8.163
REMARK INTER + INTRA:          -9.567
REMARK INTER:                  -7.666
REMARK INTRA:                  -1.901
REMARK UNBOUND:                -1.180
REMARK  Name = 
REMARK  11 active torsions:
REMARK  status: ('A' for Active; 'I' for Inactive)
REMARK    1  A    between atoms: C_1  and  O_2
REMARK    2  A    between atoms: O_2  and  C_3
REMARK    3  A    between atoms: C_5  and  N_6
REMARK    4  A    between atoms: N_6  and  C_7
REMARK    5  A    between atoms: C_7  and  C_8
REMARK    6  A    between atoms: C_8  and  C_9
REMARK    7  A    between atoms: C_8  and  C_10
REMARK    8  A    between atoms: C_8  and  C_11
REMARK    9  A    between atoms: C_15  and  O_16
REMARK   10  A    between atoms: O_16  and  C_17
REMARK   11  A    between atoms: C_24  and  C_25
REMARK                            x       y       z     vdW  Elec       q    Type
REMARK                         _______ _______ _______ _____ _____    ______ ____
ROOT
ATOM      1  N   UNL     1      49.831   8.133  13.628  0.00  0.00    +0.000 N 
ATOM      2  H   UNL     1      50.514   8.137  12.875  0.00  0.00    +0.000 HD
ENDROOT
BRANCH   1   5
ATOM      3  C   UNL     1      46.840   5.865  13.519  0.00  0.00    +0.000 A 
ATOM      4  C   UNL     1      48.084   6.409  13.884  0.00  0.00    +0.000 A 
ATOM      5  C   UNL     1      48.642   7.510  13.219  0.00  0.00    +0.000 A 
ATOM      6  C   UNL     1      47.899   8.092  12.187  0.00  0.00    +0.000 A 
ATOM      7  C   UNL     1      46.663   7.562  11.802  0.00  0.00    +0.000 A 
ATOM      8  C   UNL     1      46.117   6.453  12.464  0.00  0.00    +0.000 A 
BRANCH   8   9
ATOM      9  C   UNL     1      44.759   6.011  12.014  0.00  0.00    +0.000 C 
ATOM     10  N   UNL     1      43.731   6.057  12.910  0.00  0.00    +0.000 N 
ATOM     11  O   UNL     1      44.551   5.634  10.865  0.00  0.00    +0.000 OA
ATOM     12  H   UNL     1      43.884   6.337  13.869  0.00  0.00    +0.000 HD
ATOM     13  H   UNL     1      42.808   5.784  12.608  0.00  0.00    +0.000 HD
ENDBRANCH   8   9
BRANCH   3  15
ATOM     14  C   UNL     1      46.777   3.482  13.658  0.00  0.00    +0.000 C 
ATOM     15  O   UNL     1      46.317   4.746  14.123  0.00  0.00    +0.000 OA
ENDBRANCH   3  15
ENDBRANCH   1   5
BRANCH   1  16
ATOM     16  C   UNL     1      50.411   7.778  14.932  0.00  0.00    +0.000 C 
BRANCH  16  17
ATOM     17  C   UNL     1      50.231   8.895  16.012  0.00  0.00    +0.000 C 
ATOM     18  C   UNL     1      51.568   9.216  16.713  0.00  0.00    +0.000 C 
ATOM     19  C   UNL     1      49.761  10.188  15.298  0.00  0.00    +0.000 C 
BRANCH  17  20
ATOM     20  C   UNL     1      49.228   8.400  17.085  0.00  0.00    +0.000 A 
ATOM     21  C   UNL     1      48.422   9.280  17.825  0.00  0.00    +0.000 A 
ATOM     22  C   UNL     1      47.530   8.807  18.791  0.00  0.00    +0.000 A 
ATOM     23  C   UNL     1      47.417   7.441  19.042  0.00  0.00    +0.000 A 
ATOM     24  C   UNL     1      48.199   6.543  18.327  0.00  0.00    +0.000 A 
ATOM     25  C   UNL     1      49.093   7.019  17.359  0.00  0.00    +0.000 A 
BRANCH  24  26
ATOM     26  O   UNL     1      48.124   5.179  18.464  0.00  0.00    +0.000 OA
BRANCH  26  27
ATOM     27  C   UNL     1      48.084   4.373  17.266  0.00  0.00    +0.000 C 
ATOM     28  C   UNL     1      47.396   3.007  17.419  0.00  0.00    +0.000 C 
ATOM     29  C   UNL     1      48.633   2.464  16.715  0.00  0.00    +0.000 C 
ATOM     30  O   UNL     1      49.336   3.710  16.920  0.00  0.00    +0.000 OA
ENDBRANCH  26  27
ENDBRANCH  24  26
ENDBRANCH  17  20
ENDBRANCH  16  17
ENDBRANCH   1  16
TORSDOF 8
ENDMDL
