MODEL 1
REMARK VINA RESULT:    -7.044      0.000      0.000
REMARK INTER + INTRA:          -8.640
REMARK INTER:                  -8.280
REMARK INTRA:                  -0.360
REMARK UNBOUND:                -0.360
REMARK  Name = 
REMARK  4 active torsions:
REMARK  status: ('A' for Active; 'I' for Inactive)
REMARK    1  A    between atoms: C_1  and  O_2
REMARK    2  A    between atoms: O_2  and  C_3
REMARK    3  A    between atoms: N_9  and  C_10
REMARK    4  A    between atoms: C_10  and  C_11
REMARK                            x       y       z     vdW  Elec       q    Type
REMARK                         _______ _______ _______ _____ _____    ______ ____
ROOT
ATOM      1  C   UNL     1      45.628   3.866   8.308  0.00  0.00    +0.000 A 
ATOM      2  C   UNL     1      45.133   2.569   8.385  0.00  0.00    +0.000 A 
ATOM      3  C   UNL     1      44.370   2.163   9.488  0.00  0.00    +0.000 A 
ATOM      4  C   UNL     1      44.094   3.081  10.519  0.00  0.00    +0.000 A 
ATOM      5  C   UNL     1      43.369   2.990  11.741  0.00  0.00    +0.000 A 
ATOM      6  C   UNL     1      43.405   4.224  12.337  0.00  0.00    +0.000 A 
ATOM      7  N   UNL     1      44.110   5.078  11.525  0.00  0.00    +0.000 N 
ATOM      8  C   UNL     1      44.587   4.386  10.424  0.00  0.00    +0.000 A 
ATOM      9  C   UNL     1      45.388   4.785   9.335  0.00  0.00    +0.000 A 
ENDROOT
BRANCH   1  11
ATOM     10  C   UNL     1      46.738   3.370   6.289  0.00  0.00    +0.000 C 
ATOM     11  O   UNL     1      46.387   4.344   7.271  0.00  0.00    +0.000 OA
ENDBRANCH   1  11
BRANCH   7  12
ATOM     12  C   UNL     1      44.217   6.517  11.757  0.00  0.00    +0.000 C 
BRANCH  12  13
ATOM     13  C   UNL     1      45.523   6.879  12.416  0.00  0.00    +0.000 A 
ATOM     14  C   UNL     1      46.407   5.848  12.786  0.00  0.00    +0.000 A 
ATOM     15  C   UNL     1      47.579   6.118  13.491  0.00  0.00    +0.000 A 
ATOM     16  C   UNL     1      47.903   7.428  13.826  0.00  0.00    +0.000 A 
ATOM     17  C   UNL     1      47.068   8.469  13.425  0.00  0.00    +0.000 A 
ATOM     18  C   UNL     1      45.889   8.201  12.718  0.00  0.00    +0.000 A 
ATOM     19 CL   UNL     1      44.933   9.560  12.242  0.00  0.00    +0.000 Cl
ENDBRANCH  12  13
ENDBRANCH   7  12
TORSDOF 3
ENDMDL
MODEL 2
REMARK VINA RESULT:    -7.025      2.713      6.041
REMARK INTER + INTRA:          -8.617
REMARK INTER:                  -7.977
REMARK INTRA:                  -0.640
REMARK UNBOUND:                -0.360
REMARK  Name = 
REMARK  4 active torsions:
REMARK  status: ('A' for Active; 'I' for Inactive)
REMARK    1  A    between atoms: C_1  and  O_2
REMARK    2  A    between atoms: O_2  and  C_3
REMARK    3  A    between atoms: N_9  and  C_10
REMARK    4  A    between atoms: C_10  and  C_11
REMARK                            x       y       z     vdW  Elec       q    Type
REMARK                         _______ _______ _______ _____ _____    ______ ____
ROOT
ATOM      1  C   UNL     1      47.203   4.756  14.289  0.00  0.00    +0.000 A 
ATOM      2  C   UNL     1      47.903   5.903  14.648  0.00  0.00    +0.000 A 
ATOM      3  C   UNL     1      47.637   7.126  14.018  0.00  0.00    +0.000 A 
ATOM      4  C   UNL     1      46.645   7.194  13.021  0.00  0.00    +0.000 A 
ATOM      5  C   UNL     1      46.145   8.252  12.210  0.00  0.00    +0.000 A 
ATOM      6  C   UNL     1      45.144   7.738  11.429  0.00  0.00    +0.000 A 
ATOM      7  N   UNL     1      44.994   6.407  11.736  0.00  0.00    +0.000 N 
ATOM      8  C   UNL     1      45.941   6.036  12.677  0.00  0.00    +0.000 A 
ATOM      9  C   UNL     1      46.233   4.798  13.282  0.00  0.00    +0.000 A 
ENDROOT
BRANCH   1  11
ATOM     10  C   UNL     1      47.559   3.524  16.266  0.00  0.00    +0.000 C 
ATOM     11  O   UNL     1      47.404   3.520  14.847  0.00  0.00    +0.000 OA
ENDBRANCH   1  11
BRANCH   7  12
ATOM     12  C   UNL     1      43.913   5.571  11.218  0.00  0.00    +0.000 C 
BRANCH  12  13
ATOM     13  C   UNL     1      44.429   4.506  10.286  0.00  0.00    +0.000 A 
ATOM     14  C   UNL     1      45.217   4.891   9.185  0.00  0.00    +0.000 A 
ATOM     15  C   UNL     1      45.634   3.961   8.233  0.00  0.00    +0.000 A 
ATOM     16  C   UNL     1      45.288   2.621   8.372  0.00  0.00    +0.000 A 
ATOM     17  C   UNL     1      44.554   2.210   9.482  0.00  0.00    +0.000 A 
ATOM     18  C   UNL     1      44.131   3.143  10.438  0.00  0.00    +0.000 A 
ATOM     19 CL   UNL     1      43.248   2.532  11.793  0.00  0.00    +0.000 Cl
ENDBRANCH  12  13
ENDBRANCH   7  12
TORSDOF 3
ENDMDL
MODEL 3
REMARK VINA RESULT:    -6.903      2.774      5.627
REMARK INTER + INTRA:          -8.473
REMARK INTER:                  -8.157
REMARK INTRA:                  -0.317
REMARK UNBOUND:                -0.360
REMARK  Name = 
REMARK  4 active torsions:
REMARK  status: ('A' for Active; 'I' for Inactive)
REMARK    1  A    between atoms: C_1  and  O_2
REMARK    2  A    between atoms: O_2  and  C_3
REMARK    3  A    between atoms: N_9  and  C_10
REMARK    4  A    between atoms: C_10  and  C_11
REMARK                            x       y       z     vdW  Elec       q    Type
REMARK                         _______ _______ _______ _____ _____    ______ ____
ROOT
ATOM      1  C   UNL     1      46.816   6.445  12.020  0.00  0.00    +0.000 A 
ATOM      2  C   UNL     1      46.678   5.916  13.299  0.00  0.00    +0.000 A 
ATOM      3  C   UNL     1      45.766   4.882  13.547  0.00  0.00    +0.000 A 
ATOM      4  C   UNL     1      44.993   4.367  12.489  0.00  0.00    +0.000 A 
ATOM      5  C   UNL     1      44.004   3.346  12.407  0.00  0.00    +0.000 A 
ATOM      6  C   UNL     1      43.611   3.254  11.098  0.00  0.00    +0.000 A 
ATOM      7  N   UNL     1      44.328   4.167  10.363  0.00  0.00    +0.000 N 
ATOM      8  C   UNL     1      45.149   4.899  11.205  0.00  0.00    +0.000 A 
ATOM      9  C   UNL     1      46.037   5.966  10.961  0.00  0.00    +0.000 A 
ENDROOT
BRANCH   1  11
ATOM     10  C   UNL     1      49.013   7.286  12.160  0.00  0.00    +0.000 C 
ATOM     11  O   UNL     1      47.677   7.460  11.691  0.00  0.00    +0.000 OA
ENDBRANCH   1  11
BRANCH   7  12
ATOM     12  C   UNL     1      44.293   4.243   8.904  0.00  0.00    +0.000 C 
BRANCH  12  13
ATOM     13  C   UNL     1      45.474   3.545   8.282  0.00  0.00    +0.000 A 
ATOM     14  C   UNL     1      46.457   4.317   7.635  0.00  0.00    +0.000 A 
ATOM     15  C   UNL     1      47.515   3.717   6.953  0.00  0.00    +0.000 A 
ATOM     16  C   UNL     1      47.624   2.332   6.918  0.00  0.00    +0.000 A 
ATOM     17  C   UNL     1      46.691   1.549   7.596  0.00  0.00    +0.000 A 
ATOM     18  C   UNL     1      45.625   2.149   8.280  0.00  0.00    +0.000 A 
ATOM     19 CL   UNL     1      44.535   1.097   9.112  0.00  0.00    +0.000 Cl
ENDBRANCH  12  13
ENDBRANCH   7  12
TORSDOF 3
ENDMDL
MODEL 4
REMARK VINA RESULT:    -6.690      3.527      6.373
REMARK INTER + INTRA:          -8.224
REMARK INTER:                  -8.081
REMARK INTRA:                  -0.143
REMARK UNBOUND:                -0.360
REMARK  Name = 
REMARK  4 active torsions:
REMARK  status: ('A' for Active; 'I' for Inactive)
REMARK    1  A    between atoms: C_1  and  O_2
REMARK    2  A    between atoms: O_2  and  C_3
REMARK    3  A    between atoms: N_9  and  C_10
REMARK    4  A    between atoms: C_10  and  C_11
REMARK                            x       y       z     vdW  Elec       q    Type
REMARK                         _______ _______ _______ _____ _____    ______ ____
ROOT
ATOM      1  C   UNL     1      46.408   3.819  13.494  0.00  0.00    +0.000 A 
ATOM      2  C   UNL     1      45.660   4.919  13.901  0.00  0.00    +0.000 A 
ATOM      3  C   UNL     1      44.677   5.461  13.062  0.00  0.00    +0.000 A 
ATOM      4  C   UNL     1      44.439   4.878  11.803  0.00  0.00    +0.000 A 
ATOM      5  C   UNL     1      43.538   5.177  10.742  0.00  0.00    +0.000 A 
ATOM      6  C   UNL     1      43.728   4.240   9.760  0.00  0.00    +0.000 A 
ATOM      7  N   UNL     1      44.702   3.365  10.177  0.00  0.00    +0.000 N 
ATOM      8  C   UNL     1      45.190   3.765  11.410  0.00  0.00    +0.000 A 
ATOM      9  C   UNL     1      46.206   3.244  12.236  0.00  0.00    +0.000 A 
ENDROOT
BRANCH   1  11
ATOM     10  C   UNL     1      47.412   3.627  15.617  0.00  0.00    +0.000 C 
ATOM     11  O   UNL     1      47.393   3.232  14.247  0.00  0.00    +0.000 OA
ENDBRANCH   1  11
BRANCH   7  12
ATOM     12  C   UNL     1      45.056   2.142   9.460  0.00  0.00    +0.000 C 
BRANCH  12  13
ATOM     13  C   UNL     1      45.922   2.430   8.261  0.00  0.00    +0.000 A 
ATOM     14  C   UNL     1      46.078   3.764   7.841  0.00  0.00    +0.000 A 
ATOM     15  C   UNL     1      46.782   4.078   6.679  0.00  0.00    +0.000 A 
ATOM     16  C   UNL     1      47.361   3.066   5.921  0.00  0.00    +0.000 A 
ATOM     17  C   UNL     1      47.263   1.743   6.348  0.00  0.00    +0.000 A 
ATOM     18  C   UNL     1      46.554   1.424   7.513  0.00  0.00    +0.000 A 
ATOM     19 CL   UNL     1      46.510  -0.241   7.974  0.00  0.00    +0.000 Cl
ENDBRANCH  12  13
ENDBRANCH   7  12
TORSDOF 3
ENDMDL
MODEL 5
REMARK VINA RESULT:    -6.594      2.578      5.847
REMARK INTER + INTRA:          -8.110
REMARK INTER:                  -7.454
REMARK INTRA:                  -0.656
REMARK UNBOUND:                -0.360
REMARK  Name = 
REMARK  4 active torsions:
REMARK  status: ('A' for Active; 'I' for Inactive)
REMARK    1  A    between atoms: C_1  and  O_2
REMARK    2  A    between atoms: O_2  and  C_3
REMARK    3  A    between atoms: N_9  and  C_10
REMARK    4  A    between atoms: C_10  and  C_11
REMARK                            x       y       z     vdW  Elec       q    Type
REMARK                         _______ _______ _______ _____ _____    ______ ____
ROOT
ATOM      1  C   UNL     1      47.932   8.367  12.394  0.00  0.00    +0.000 A 
ATOM      2  C   UNL     1      48.783   7.855  13.368  0.00  0.00    +0.000 A 
ATOM      3  C   UNL     1      48.492   6.638  13.999  0.00  0.00    +0.000 A 
ATOM      4  C   UNL     1      47.334   5.925  13.634  0.00  0.00    +0.000 A 
ATOM      5  C   UNL     1      46.767   4.694  14.069  0.00  0.00    +0.000 A 
ATOM      6  C   UNL     1      45.635   4.474  13.329  0.00  0.00    +0.000 A 
ATOM      7  N   UNL     1      45.487   5.514  12.442  0.00  0.00    +0.000 N 
ATOM      8  C   UNL     1      46.493   6.445  12.645  0.00  0.00    +0.000 A 
ATOM      9  C   UNL     1      46.763   7.687  12.037  0.00  0.00    +0.000 A 
ENDROOT
BRANCH   1  11
ATOM     10  C   UNL     1      47.049  10.472  11.808  0.00  0.00    +0.000 C 
ATOM     11  O   UNL     1      48.136   9.551  11.733  0.00  0.00    +0.000 OA
ENDBRANCH   1  11
BRANCH   7  12
ATOM     12  C   UNL     1      44.482   5.541  11.382  0.00  0.00    +0.000 C 
BRANCH  12  13
ATOM     13  C   UNL     1      44.842   4.614  10.250  0.00  0.00    +0.000 A 
ATOM     14  C   UNL     1      45.692   5.083   9.232  0.00  0.00    +0.000 A 
ATOM     15  C   UNL     1      45.975   4.304   8.109  0.00  0.00    +0.000 A 
ATOM     16  C   UNL     1      45.427   3.032   7.989  0.00  0.00    +0.000 A 
ATOM     17  C   UNL     1      44.624   2.528   9.011  0.00  0.00    +0.000 A 
ATOM     18  C   UNL     1      44.337   3.308  10.139  0.00  0.00    +0.000 A 
ATOM     19 CL   UNL     1      43.354   2.586  11.363  0.00  0.00    +0.000 Cl
ENDBRANCH  12  13
ENDBRANCH   7  12
TORSDOF 3
ENDMDL
MODEL 6
REMARK VINA RESULT:    -6.508      2.887      6.030
REMARK INTER + INTRA:          -8.009
REMARK INTER:                  -7.416
REMARK INTRA:                  -0.594
REMARK UNBOUND:                -0.360
REMARK  Name = 
REMARK  4 active torsions:
REMARK  status: ('A' for Active; 'I' for Inactive)
REMARK    1  A    between atoms: C_1  and  O_2
REMARK    2  A    between atoms: O_2  and  C_3
REMARK    3  A    between atoms: N_9  and  C_10
REMARK    4  A    between atoms: C_10  and  C_11
REMARK                            x       y       z     vdW  Elec       q    Type
REMARK                         _______ _______ _______ _____ _____    ______ ____
ROOT
ATOM      1  C   UNL     1      44.829   9.980  11.269  0.00  0.00    +0.000 A 
ATOM      2  C   UNL     1      46.005  10.228  11.969  0.00  0.00    +0.000 A 
ATOM      3  C   UNL     1      46.696   9.181  12.594  0.00  0.00    +0.000 A 
ATOM      4  C   UNL     1      46.199   7.867  12.502  0.00  0.00    +0.000 A 
ATOM      5  C   UNL     1      46.648   6.614  13.008  0.00  0.00    +0.000 A 
ATOM      6  C   UNL     1      45.774   5.653  12.571  0.00  0.00    +0.000 A 
ATOM      7  N   UNL     1      44.811   6.260  11.802  0.00  0.00    +0.000 N 
ATOM      8  C   UNL     1      45.022   7.629  11.786  0.00  0.00    +0.000 A 
ATOM      9  C   UNL     1      44.305   8.686  11.190  0.00  0.00    +0.000 A 
ENDROOT
BRANCH   1  11
ATOM     10  C   UNL     1      43.124  10.443   9.710  0.00  0.00    +0.000 C 
ATOM     11  O   UNL     1      44.088  10.944  10.636  0.00  0.00    +0.000 OA
ENDBRANCH   1  11
BRANCH   7  12
ATOM     12  C   UNL     1      43.804   5.529  11.035  0.00  0.00    +0.000 C 
BRANCH  12  13
ATOM     13  C   UNL     1      44.428   4.463  10.172  0.00  0.00    +0.000 A 
ATOM     14  C   UNL     1      45.252   4.853   9.100  0.00  0.00    +0.000 A 
ATOM     15  C   UNL     1      45.771   3.915   8.208  0.00  0.00    +0.000 A 
ATOM     16  C   UNL     1      45.491   2.564   8.378  0.00  0.00    +0.000 A 
ATOM     17  C   UNL     1      44.719   2.151   9.463  0.00  0.00    +0.000 A 
ATOM     18  C   UNL     1      44.195   3.091  10.360  0.00  0.00    +0.000 A 
ATOM     19 CL   UNL     1      43.273   2.480  11.688  0.00  0.00    +0.000 Cl
ENDBRANCH  12  13
ENDBRANCH   7  12
TORSDOF 3
ENDMDL
MODEL 7
REMARK VINA RESULT:    -5.961      2.680      6.205
REMARK INTER + INTRA:          -7.367
REMARK INTER:                  -7.030
REMARK INTRA:                  -0.337
REMARK UNBOUND:                -0.360
REMARK  Name = 
REMARK  4 active torsions:
REMARK  status: ('A' for Active; 'I' for Inactive)
REMARK    1  A    between atoms: C_1  and  O_2
REMARK    2  A    between atoms: O_2  and  C_3
REMARK    3  A    between atoms: N_9  and  C_10
REMARK    4  A    between atoms: C_10  and  C_11
REMARK                            x       y       z     vdW  Elec       q    Type
REMARK                         _______ _______ _______ _____ _____    ______ ____
ROOT
ATOM      1  C   UNL     1      48.313   7.419  13.384  0.00  0.00    +0.000 A 
ATOM      2  C   UNL     1      48.253   8.802  13.242  0.00  0.00    +0.000 A 
ATOM      3  C   UNL     1      47.147   9.407  12.629  0.00  0.00    +0.000 A 
ATOM      4  C   UNL     1      46.085   8.607  12.166  0.00  0.00    +0.000 A 
ATOM      5  C   UNL     1      44.852   8.900  11.517  0.00  0.00    +0.000 A 
ATOM      6  C   UNL     1      44.190   7.715  11.329  0.00  0.00    +0.000 A 
ATOM      7  N   UNL     1      44.959   6.702  11.849  0.00  0.00    +0.000 N 
ATOM      8  C   UNL     1      46.152   7.220  12.325  0.00  0.00    +0.000 A 
ATOM      9  C   UNL     1      47.281   6.606  12.905  0.00  0.00    +0.000 A 
ENDROOT
BRANCH   1  11
ATOM     10  C   UNL     1      49.907   7.376  15.119  0.00  0.00    +0.000 C 
ATOM     11  O   UNL     1      49.358   6.746  13.962  0.00  0.00    +0.000 OA
ENDBRANCH   1  11
BRANCH   7  12
ATOM     12  C   UNL     1      44.503   5.319  11.975  0.00  0.00    +0.000 C 
BRANCH  12  13
ATOM     13  C   UNL     1      44.753   4.533  10.714  0.00  0.00    +0.000 A 
ATOM     14  C   UNL     1      45.516   5.121   9.688  0.00  0.00    +0.000 A 
ATOM     15  C   UNL     1      45.692   4.482   8.460  0.00  0.00    +0.000 A 
ATOM     16  C   UNL     1      45.122   3.233   8.238  0.00  0.00    +0.000 A 
ATOM     17  C   UNL     1      44.406   2.611   9.259  0.00  0.00    +0.000 A 
ATOM     18  C   UNL     1      44.227   3.251  10.492  0.00  0.00    +0.000 A 
ATOM     19 CL   UNL     1      43.346   2.387  11.704  0.00  0.00    +0.000 Cl
ENDBRANCH  12  13
ENDBRANCH   7  12
TORSDOF 3
ENDMDL
MODEL 8
REMARK VINA RESULT:    -5.866      3.068      4.599
REMARK INTER + INTRA:          -7.255
REMARK INTER:                  -6.573
REMARK INTRA:                  -0.682
REMARK UNBOUND:                -0.360
REMARK  Name = 
REMARK  4 active torsions:
REMARK  status: ('A' for Active; 'I' for Inactive)
REMARK    1  A    between atoms: C_1  and  O_2
REMARK    2  A    between atoms: O_2  and  C_3
REMARK    3  A    between atoms: N_9  and  C_10
REMARK    4  A    between atoms: C_10  and  C_11
REMARK                            x       y       z     vdW  Elec       q    Type
REMARK                         _______ _______ _______ _____ _____    ______ ____
ROOT
ATOM      1  C   UNL     1      46.781   3.838  13.778  0.00  0.00    +0.000 A 
ATOM      2  C   UNL     1      45.936   3.275  12.828  0.00  0.00    +0.000 A 
ATOM      3  C   UNL     1      45.185   4.090  11.970  0.00  0.00    +0.000 A 
ATOM      4  C   UNL     1      45.298   5.490  12.066  0.00  0.00    +0.000 A 
ATOM      5  C   UNL     1      44.692   6.570  11.364  0.00  0.00    +0.000 A 
ATOM      6  C   UNL     1      45.211   7.735  11.866  0.00  0.00    +0.000 A 
ATOM      7  N   UNL     1      46.125   7.417  12.841  0.00  0.00    +0.000 N 
ATOM      8  C   UNL     1      46.160   6.044  13.017  0.00  0.00    +0.000 A 
ATOM      9  C   UNL     1      46.886   5.227  13.907  0.00  0.00    +0.000 A 
ENDROOT
BRANCH   1  11
ATOM     10  C   UNL     1      47.547   3.618  15.995  0.00  0.00    +0.000 C 
ATOM     11  O   UNL     1      47.544   3.116  14.660  0.00  0.00    +0.000 OA
ENDBRANCH   1  11
BRANCH   7  12
ATOM     12  C   UNL     1      46.997   8.397  13.486  0.00  0.00    +0.000 C 
BRANCH  12  13
ATOM     13  C   UNL     1      48.164   8.768  12.608  0.00  0.00    +0.000 A 
ATOM     14  C   UNL     1      49.247   7.876  12.505  0.00  0.00    +0.000 A 
ATOM     15  C   UNL     1      50.397   8.213  11.790  0.00  0.00    +0.000 A 
ATOM     16  C   UNL     1      50.480   9.443  11.148  0.00  0.00    +0.000 A 
ATOM     17  C   UNL     1      49.398  10.320  11.194  0.00  0.00    +0.000 A 
ATOM     18  C   UNL     1      48.243   9.985  11.913  0.00  0.00    +0.000 A 
ATOM     19 CL   UNL     1      46.946  11.126  11.890  0.00  0.00    +0.000 Cl
ENDBRANCH  12  13
ENDBRANCH   7  12
TORSDOF 3
ENDMDL
MODEL 9
REMARK VINA RESULT:    -5.458      2.939      6.083
REMARK INTER + INTRA:          -6.776
REMARK INTER:                  -6.263
REMARK INTRA:                  -0.512
REMARK UNBOUND:                -0.360
REMARK  Name = 
REMARK  4 active torsions:
REMARK  status: ('A' for Active; 'I' for Inactive)
REMARK    1  A    between atoms: C_1  and  O_2
REMARK    2  A    between atoms: O_2  and  C_3
REMARK    3  A    between atoms: N_9  and  C_10
REMARK    4  A    between atoms: C_10  and  C_11
REMARK                            x       y       z     vdW  Elec       q    Type
REMARK                         _______ _______ _______ _____ _____    ______ ____
ROOT
ATOM      1  C   UNL     1      49.636   8.458  11.734  0.00  0.00    +0.000 A 
ATOM      2  C   UNL     1      49.521   9.836  11.586  0.00  0.00    +0.000 A 
ATOM      3  C   UNL     1      48.271  10.461  11.687  0.00  0.00    +0.000 A 
ATOM      4  C   UNL     1      47.126   9.686  11.953  0.00  0.00    +0.000 A 
ATOM      5  C   UNL     1      45.747  10.003  12.113  0.00  0.00    +0.000 A 
ATOM      6  C   UNL     1      45.084   8.837  12.394  0.00  0.00    +0.000 A 
ATOM      7  N   UNL     1      46.000   7.814  12.429  0.00  0.00    +0.000 N 
ATOM      8  C   UNL     1      47.256   8.303  12.112  0.00  0.00    +0.000 A 
ATOM      9  C   UNL     1      48.506   7.668  11.971  0.00  0.00    +0.000 A 
ENDROOT
BRANCH   1  11
ATOM     10  C   UNL     1      51.927   8.536  11.186  0.00  0.00    +0.000 C 
ATOM     11  O   UNL     1      50.816   7.765  11.643  0.00  0.00    +0.000 OA
ENDBRANCH   1  11
BRANCH   7  12
ATOM     12  C   UNL     1      45.682   6.453  12.859  0.00  0.00    +0.000 C 
BRANCH  12  13
ATOM     13  C   UNL     1      45.152   5.620  11.722  0.00  0.00    +0.000 A 
ATOM     14  C   UNL     1      45.874   5.581  10.514  0.00  0.00    +0.000 A 
ATOM     15  C   UNL     1      45.378   4.911   9.396  0.00  0.00    +0.000 A 
ATOM     16  C   UNL     1      44.157   4.248   9.467  0.00  0.00    +0.000 A 
ATOM     17  C   UNL     1      43.451   4.230  10.668  0.00  0.00    +0.000 A 
ATOM     18  C   UNL     1      43.946   4.905  11.792  0.00  0.00    +0.000 A 
ATOM     19 CL   UNL     1      43.012   4.802  13.243  0.00  0.00    +0.000 Cl
ENDBRANCH  12  13
ENDBRANCH   7  12
TORSDOF 3
ENDMDL
