MODEL 1
REMARK VINA RESULT:    -8.237      0.000      0.000
REMARK INTER + INTRA:         -12.500
REMARK INTER:                 -11.367
REMARK INTRA:                  -1.133
REMARK UNBOUND:                -1.133
REMARK  Name = 
REMARK  8 active torsions:
REMARK  status: ('A' for Active; 'I' for Inactive)
REMARK    1  A    between atoms: C_1  and  C_2
REMARK    2  A    between atoms: C_2  and  C_3
REMARK    3  A    between atoms: C_7  and  C_8
REMARK    4  A    between atoms: C_8  and  C_9
REMARK    5  A    between atoms: C_9  and  N_10
REMARK    6  A    between atoms: N_10  and  C_11
REMARK    7  A    between atoms: C_14  and  C_15
REMARK    8  A    between atoms: C_23  and  O_24
REMARK                            x       y       z     vdW  Elec       q    Type
REMARK                         _______ _______ _______ _____ _____    ______ ____
ROOT
ATOM      1  C   UNL     1      47.133   6.261  13.066  0.00  0.00    +0.000 A 
ATOM      2  C   UNL     1      47.611   5.089  13.678  0.00  0.00    +0.000 A 
ATOM      3  C   UNL     1      46.815   3.960  13.808  0.00  0.00    +0.000 A 
ATOM      4  C   UNL     1      45.502   3.972  13.340  0.00  0.00    +0.000 A 
ATOM      5  C   UNL     1      44.980   5.124  12.734  0.00  0.00    +0.000 A 
ATOM      6  C   UNL     1      45.827   6.230  12.566  0.00  0.00    +0.000 A 
ENDROOT
BRANCH   1   8
ATOM      7  C   UNL     1      47.033   8.694  13.507  0.00  0.00    +0.000 C 
ATOM      8  C   UNL     1      47.980   7.547  13.074  0.00  0.00    +0.000 C 
ATOM      9  C   UNL     1      49.152   7.405  14.086  0.00  0.00    +0.000 C 
ATOM     10  C   UNL     1      50.124   8.590  14.076  0.00  0.00    +0.000 C 
ATOM     11  C   UNL     1      50.657   8.906  12.681  0.00  0.00    +0.000 C 
ATOM     12  C   UNL     1      49.527   9.080  11.671  0.00  0.00    +0.000 C 
ATOM     13  C   UNL     1      48.569   7.890  11.673  0.00  0.00    +0.000 C 
BRANCH  11  14
ATOM     14  O   UNL     1      51.542   7.874  12.250  0.00  0.00    +0.000 OA
ATOM     15  H   UNL     1      52.443   8.082  12.549  0.00  0.00    +0.000 HD
ENDBRANCH  11  14
ENDBRANCH   1   8
BRANCH   5  16
ATOM     16  C   UNL     1      43.519   5.228  12.333  0.00  0.00    +0.000 C 
BRANCH  16  17
ATOM     17  C   UNL     1      43.173   4.417  11.076  0.00  0.00    +0.000 C 
BRANCH  17  18
ATOM     18  N   UNL     1      43.817   4.941   9.875  0.00  0.00    +0.000 N 
ATOM     19  H   UNL     1      44.322   5.807  10.045  0.00  0.00    +0.000 HD
BRANCH  18  20
ATOM     20  C   UNL     1      44.585   3.996   9.168  0.00  0.00    +0.000 A 
ATOM     21  C   UNL     1      45.558   4.372   8.235  0.00  0.00    +0.000 A 
ATOM     22  C   UNL     1      46.361   3.418   7.616  0.00  0.00    +0.000 A 
ATOM     23  C   UNL     1      46.190   2.092   7.976  0.00  0.00    +0.000 A 
ATOM     24  N   UNL     1      45.265   1.665   8.877  0.00  0.00    +0.000 NA
ATOM     25  C   UNL     1      44.504   2.631   9.453  0.00  0.00    +0.000 A 
BRANCH  23  26
ATOM     26  C   UNL     1      47.091   1.058   7.370  0.00  0.00    +0.000 C 
ATOM     27  N   UNL     1      46.815  -0.236   7.734  0.00  0.00    +0.000 N 
ATOM     28  O   UNL     1      48.007   1.333   6.622  0.00  0.00    +0.000 OA
ATOM     29  H   UNL     1      46.067  -0.425   8.389  0.00  0.00    +0.000 HD
ATOM     30  H   UNL     1      47.419  -0.976   7.408  0.00  0.00    +0.000 HD
ENDBRANCH  23  26
ENDBRANCH  18  20
ENDBRANCH  17  18
ENDBRANCH  16  17
ENDBRANCH   5  16
TORSDOF 7
ENDMDL
MODEL 2
REMARK VINA RESULT:    -8.051      1.093      1.334
REMARK INTER + INTRA:         -12.243
REMARK INTER:                 -11.106
REMARK INTRA:                  -1.138
REMARK UNBOUND:                -1.133
REMARK  Name = 
REMARK  8 active torsions:
REMARK  status: ('A' for Active; 'I' for Inactive)
REMARK    1  A    between atoms: C_1  and  C_2
REMARK    2  A    between atoms: C_2  and  C_3
REMARK    3  A    between atoms: C_7  and  C_8
REMARK    4  A    between atoms: C_8  and  C_9
REMARK    5  A    between atoms: C_9  and  N_10
REMARK    6  A    between atoms: N_10  and  C_11
REMARK    7  A    between atoms: C_14  and  C_15
REMARK    8  A    between atoms: C_23  and  O_24
REMARK                            x       y       z     vdW  Elec       q    Type
REMARK                         _______ _______ _______ _____ _____    ______ ____
ROOT
ATOM      1  C   UNL     1      46.952   6.688  12.890  0.00  0.00    +0.000 A 
ATOM      2  C   UNL     1      47.530   5.641  13.629  0.00  0.00    +0.000 A 
ATOM      3  C   UNL     1      46.833   4.470  13.897  0.00  0.00    +0.000 A 
ATOM      4  C   UNL     1      45.524   4.316  13.445  0.00  0.00    +0.000 A 
ATOM      5  C   UNL     1      44.905   5.341  12.715  0.00  0.00    +0.000 A 
ATOM      6  C   UNL     1      45.653   6.488  12.411  0.00  0.00    +0.000 A 
ENDROOT
BRANCH   1   8
ATOM      7  C   UNL     1      46.642   9.045  12.199  0.00  0.00    +0.000 C 
ATOM      8  C   UNL     1      47.686   8.034  12.739  0.00  0.00    +0.000 C 
ATOM      9  C   UNL     1      48.224   8.502  14.121  0.00  0.00    +0.000 C 
ATOM     10  C   UNL     1      49.076   9.776  14.052  0.00  0.00    +0.000 C 
ATOM     11  C   UNL     1      50.214   9.671  13.041  0.00  0.00    +0.000 C 
ATOM     12  C   UNL     1      49.712   9.240  11.667  0.00  0.00    +0.000 C 
ATOM     13  C   UNL     1      48.876   7.964  11.737  0.00  0.00    +0.000 C 
BRANCH  11  14
ATOM     14  O   UNL     1      51.202   8.754  13.508  0.00  0.00    +0.000 OA
ATOM     15  H   UNL     1      51.229   7.985  12.915  0.00  0.00    +0.000 HD
ENDBRANCH  11  14
ENDBRANCH   1   8
BRANCH   5  16
ATOM     16  C   UNL     1      43.440   5.273  12.320  0.00  0.00    +0.000 C 
BRANCH  16  17
ATOM     17  C   UNL     1      43.166   4.310  11.157  0.00  0.00    +0.000 C 
BRANCH  17  18
ATOM     18  N   UNL     1      43.704   4.794   9.888  0.00  0.00    +0.000 N 
ATOM     19  H   UNL     1      44.040   5.753   9.944  0.00  0.00    +0.000 HD
BRANCH  18  20
ATOM     20  C   UNL     1      44.635   3.929   9.283  0.00  0.00    +0.000 A 
ATOM     21  C   UNL     1      44.567   2.538   9.428  0.00  0.00    +0.000 A 
ATOM     22  C   UNL     1      45.450   1.705   8.748  0.00  0.00    +0.000 A 
ATOM     23  C   UNL     1      46.374   2.291   7.900  0.00  0.00    +0.000 A 
ATOM     24  N   UNL     1      46.488   3.633   7.714  0.00  0.00    +0.000 NA
ATOM     25  C   UNL     1      45.606   4.406   8.399  0.00  0.00    +0.000 A 
BRANCH  23  26
ATOM     26  C   UNL     1      47.289   1.405   7.107  0.00  0.00    +0.000 C 
ATOM     27  N   UNL     1      48.383   2.035   6.571  0.00  0.00    +0.000 N 
ATOM     28  O   UNL     1      47.081   0.221   6.935  0.00  0.00    +0.000 OA
ATOM     29  H   UNL     1      48.506   3.031   6.703  0.00  0.00    +0.000 HD
ATOM     30  H   UNL     1      49.009   1.510   5.978  0.00  0.00    +0.000 HD
ENDBRANCH  23  26
ENDBRANCH  18  20
ENDBRANCH  17  18
ENDBRANCH  16  17
ENDBRANCH   5  16
TORSDOF 7
ENDMDL
MODEL 3
REMARK VINA RESULT:    -7.668      1.456      2.267
REMARK INTER + INTRA:         -11.715
REMARK INTER:                 -10.829
REMARK INTRA:                  -0.886
REMARK UNBOUND:                -1.133
REMARK  Name = 
REMARK  8 active torsions:
REMARK  status: ('A' for Active; 'I' for Inactive)
REMARK    1  A    between atoms: C_1  and  C_2
REMARK    2  A    between atoms: C_2  and  C_3
REMARK    3  A    between atoms: C_7  and  C_8
REMARK    4  A    between atoms: C_8  and  C_9
REMARK    5  A    between atoms: C_9  and  N_10
REMARK    6  A    between atoms: N_10  and  C_11
REMARK    7  A    between atoms: C_14  and  C_15
REMARK    8  A    between atoms: C_23  and  O_24
REMARK                            x       y       z     vdW  Elec       q    Type
REMARK                         _______ _______ _______ _____ _____    ______ ____
ROOT
ATOM      1  C   UNL     1      47.301   8.562  12.118  0.00  0.00    +0.000 A 
ATOM      2  C   UNL     1      46.244   9.475  11.961  0.00  0.00    +0.000 A 
ATOM      3  C   UNL     1      44.940   9.049  11.748  0.00  0.00    +0.000 A 
ATOM      4  C   UNL     1      44.653   7.687  11.669  0.00  0.00    +0.000 A 
ATOM      5  C   UNL     1      45.679   6.741  11.808  0.00  0.00    +0.000 A 
ATOM      6  C   UNL     1      46.977   7.201  12.080  0.00  0.00    +0.000 A 
ENDROOT
BRANCH   1   8
ATOM      7  C   UNL     1      48.843  10.314  11.296  0.00  0.00    +0.000 C 
ATOM      8  C   UNL     1      48.757   9.058  12.199  0.00  0.00    +0.000 C 
ATOM      9  C   UNL     1      49.112   9.424  13.667  0.00  0.00    +0.000 C 
ATOM     10  C   UNL     1      50.581   9.814  13.868  0.00  0.00    +0.000 C 
ATOM     11  C   UNL     1      51.550   8.766  13.329  0.00  0.00    +0.000 C 
ATOM     12  C   UNL     1      51.243   8.406  11.879  0.00  0.00    +0.000 C 
ATOM     13  C   UNL     1      49.783   8.003  11.685  0.00  0.00    +0.000 C 
BRANCH  11  14
ATOM     14  O   UNL     1      51.506   7.594  14.141  0.00  0.00    +0.000 OA
ATOM     15  H   UNL     1      50.616   7.502  14.521  0.00  0.00    +0.000 HD
ENDBRANCH  11  14
ENDBRANCH   1   8
BRANCH   5  16
ATOM     16  C   UNL     1      45.437   5.257  11.596  0.00  0.00    +0.000 C 
BRANCH  16  17
ATOM     17  C   UNL     1      43.972   4.916  11.290  0.00  0.00    +0.000 C 
BRANCH  17  18
ATOM     18  N   UNL     1      43.702   4.832   9.857  0.00  0.00    +0.000 N 
ATOM     19  H   UNL     1      43.655   5.745   9.412  0.00  0.00    +0.000 HD
BRANCH  18  20
ATOM     20  C   UNL     1      44.530   3.932   9.161  0.00  0.00    +0.000 A 
ATOM     21  C   UNL     1      45.531   4.364   8.282  0.00  0.00    +0.000 A 
ATOM     22  C   UNL     1      46.390   3.454   7.675  0.00  0.00    +0.000 A 
ATOM     23  C   UNL     1      46.247   2.113   7.992  0.00  0.00    +0.000 A 
ATOM     24  N   UNL     1      45.298   1.633   8.839  0.00  0.00    +0.000 NA
ATOM     25  C   UNL     1      44.482   2.558   9.406  0.00  0.00    +0.000 A 
BRANCH  23  26
ATOM     26  C   UNL     1      47.208   1.125   7.400  0.00  0.00    +0.000 C 
ATOM     27  N   UNL     1      48.229   1.677   6.669  0.00  0.00    +0.000 N 
ATOM     28  O   UNL     1      47.094  -0.075   7.540  0.00  0.00    +0.000 OA
ATOM     29  H   UNL     1      48.271   2.680   6.542  0.00  0.00    +0.000 HD
ATOM     30  H   UNL     1      48.878   1.066   6.195  0.00  0.00    +0.000 HD
ENDBRANCH  23  26
ENDBRANCH  18  20
ENDBRANCH  17  18
ENDBRANCH  16  17
ENDBRANCH   5  16
TORSDOF 7
ENDMDL
MODEL 4
REMARK VINA RESULT:    -7.600      1.171      2.130
REMARK INTER + INTRA:         -11.621
REMARK INTER:                 -10.727
REMARK INTRA:                  -0.894
REMARK UNBOUND:                -1.133
REMARK  Name = 
REMARK  8 active torsions:
REMARK  status: ('A' for Active; 'I' for Inactive)
REMARK    1  A    between atoms: C_1  and  C_2
REMARK    2  A    between atoms: C_2  and  C_3
REMARK    3  A    between atoms: C_7  and  C_8
REMARK    4  A    between atoms: C_8  and  C_9
REMARK    5  A    between atoms: C_9  and  N_10
REMARK    6  A    between atoms: N_10  and  C_11
REMARK    7  A    between atoms: C_14  and  C_15
REMARK    8  A    between atoms: C_23  and  O_24
REMARK                            x       y       z     vdW  Elec       q    Type
REMARK                         _______ _______ _______ _____ _____    ______ ____
ROOT
ATOM      1  C   UNL     1      47.612   7.881  12.606  0.00  0.00    +0.000 A 
ATOM      2  C   UNL     1      46.658   8.912  12.569  0.00  0.00    +0.000 A 
ATOM      3  C   UNL     1      45.311   8.649  12.361  0.00  0.00    +0.000 A 
ATOM      4  C   UNL     1      44.875   7.339  12.166  0.00  0.00    +0.000 A 
ATOM      5  C   UNL     1      45.795   6.282  12.182  0.00  0.00    +0.000 A 
ATOM      6  C   UNL     1      47.141   6.572  12.452  0.00  0.00    +0.000 A 
ENDROOT
BRANCH   1   8
ATOM      7  C   UNL     1      49.672   7.436  13.905  0.00  0.00    +0.000 C 
ATOM      8  C   UNL     1      49.115   8.209  12.683  0.00  0.00    +0.000 C 
ATOM      9  C   UNL     1      49.827   7.744  11.381  0.00  0.00    +0.000 C 
ATOM     10  C   UNL     1      51.307   8.138  11.312  0.00  0.00    +0.000 C 
ATOM     11  C   UNL     1      51.533   9.629  11.541  0.00  0.00    +0.000 C 
ATOM     12  C   UNL     1      50.869  10.110  12.828  0.00  0.00    +0.000 C 
ATOM     13  C   UNL     1      49.391   9.729  12.887  0.00  0.00    +0.000 C 
BRANCH  11  14
ATOM     14  O   UNL     1      51.040  10.376  10.431  0.00  0.00    +0.000 OA
ATOM     15  H   UNL     1      50.563   9.779   9.831  0.00  0.00    +0.000 HD
ENDBRANCH  11  14
ENDBRANCH   1   8
BRANCH   5  16
ATOM     16  C   UNL     1      45.388   4.859  11.841  0.00  0.00    +0.000 C 
BRANCH  16  17
ATOM     17  C   UNL     1      43.941   4.742  11.340  0.00  0.00    +0.000 C 
BRANCH  17  18
ATOM     18  N   UNL     1      43.838   4.868   9.889  0.00  0.00    +0.000 N 
ATOM     19  H   UNL     1      43.977   5.822   9.566  0.00  0.00    +0.000 HD
BRANCH  18  20
ATOM     20  C   UNL     1      44.606   3.934   9.168  0.00  0.00    +0.000 A 
ATOM     21  C   UNL     1      45.591   4.325   8.252  0.00  0.00    +0.000 A 
ATOM     22  C   UNL     1      46.393   3.380   7.619  0.00  0.00    +0.000 A 
ATOM     23  C   UNL     1      46.209   2.047   7.947  0.00  0.00    +0.000 A 
ATOM     24  N   UNL     1      45.273   1.606   8.830  0.00  0.00    +0.000 NA
ATOM     25  C   UNL     1      44.514   2.564   9.421  0.00  0.00    +0.000 A 
BRANCH  23  26
ATOM     26  C   UNL     1      47.110   1.021   7.326  0.00  0.00    +0.000 C 
ATOM     27  N   UNL     1      46.872  -0.272   7.719  0.00  0.00    +0.000 N 
ATOM     28  O   UNL     1      47.993   1.301   6.543  0.00  0.00    +0.000 OA
ATOM     29  H   UNL     1      46.151  -0.465   8.402  0.00  0.00    +0.000 HD
ATOM     30  H   UNL     1      47.478  -1.006   7.384  0.00  0.00    +0.000 HD
ENDBRANCH  23  26
ENDBRANCH  18  20
ENDBRANCH  17  18
ENDBRANCH  16  17
ENDBRANCH   5  16
TORSDOF 7
ENDMDL
MODEL 5
REMARK VINA RESULT:    -7.517      1.609      2.436
REMARK INTER + INTRA:         -11.507
REMARK INTER:                 -10.908
REMARK INTRA:                  -0.599
REMARK UNBOUND:                -1.133
REMARK  Name = 
REMARK  8 active torsions:
REMARK  status: ('A' for Active; 'I' for Inactive)
REMARK    1  A    between atoms: C_1  and  C_2
REMARK    2  A    between atoms: C_2  and  C_3
REMARK    3  A    between atoms: C_7  and  C_8
REMARK    4  A    between atoms: C_8  and  C_9
REMARK    5  A    between atoms: C_9  and  N_10
REMARK    6  A    between atoms: N_10  and  C_11
REMARK    7  A    between atoms: C_14  and  C_15
REMARK    8  A    between atoms: C_23  and  O_24
REMARK                            x       y       z     vdW  Elec       q    Type
REMARK                         _______ _______ _______ _____ _____    ______ ____
ROOT
ATOM      1  C   UNL     1      45.912   6.970  12.643  0.00  0.00    +0.000 A 
ATOM      2  C   UNL     1      45.210   7.828  11.778  0.00  0.00    +0.000 A 
ATOM      3  C   UNL     1      43.965   7.487  11.268  0.00  0.00    +0.000 A 
ATOM      4  C   UNL     1      43.386   6.262  11.595  0.00  0.00    +0.000 A 
ATOM      5  C   UNL     1      44.057   5.370  12.444  0.00  0.00    +0.000 A 
ATOM      6  C   UNL     1      45.287   5.767  12.990  0.00  0.00    +0.000 A 
ENDROOT
BRANCH   1   8
ATOM      7  C   UNL     1      47.823   6.131  13.973  0.00  0.00    +0.000 C 
ATOM      8  C   UNL     1      47.353   7.301  13.071  0.00  0.00    +0.000 C 
ATOM      9  C   UNL     1      48.266   7.414  11.817  0.00  0.00    +0.000 C 
ATOM     10  C   UNL     1      49.698   7.861  12.134  0.00  0.00    +0.000 C 
ATOM     11  C   UNL     1      49.747   9.150  12.950  0.00  0.00    +0.000 C 
ATOM     12  C   UNL     1      48.883   9.058  14.204  0.00  0.00    +0.000 C 
ATOM     13  C   UNL     1      47.453   8.627  13.882  0.00  0.00    +0.000 C 
BRANCH  11  14
ATOM     14  O   UNL     1      49.330  10.254  12.149  0.00  0.00    +0.000 OA
ATOM     15  H   UNL     1      50.114  10.704  11.794  0.00  0.00    +0.000 HD
ENDBRANCH  11  14
ENDBRANCH   1   8
BRANCH   5  16
ATOM     16  C   UNL     1      43.528   3.973  12.719  0.00  0.00    +0.000 C 
BRANCH  16  17
ATOM     17  C   UNL     1      43.690   3.015  11.531  0.00  0.00    +0.000 C 
BRANCH  17  18
ATOM     18  N   UNL     1      43.662   3.705  10.244  0.00  0.00    +0.000 N 
ATOM     19  H   UNL     1      43.559   4.712  10.341  0.00  0.00    +0.000 HD
BRANCH  18  20
ATOM     20  C   UNL     1      44.707   3.349   9.370  0.00  0.00    +0.000 A 
ATOM     21  C   UNL     1      45.141   2.026   9.225  0.00  0.00    +0.000 A 
ATOM     22  C   UNL     1      46.117   1.693   8.291  0.00  0.00    +0.000 A 
ATOM     23  C   UNL     1      46.620   2.703   7.488  0.00  0.00    +0.000 A 
ATOM     24  N   UNL     1      46.237   4.004   7.579  0.00  0.00    +0.000 NA
ATOM     25  C   UNL     1      45.284   4.282   8.506  0.00  0.00    +0.000 A 
BRANCH  23  26
ATOM     26  C   UNL     1      47.623   2.351   6.429  0.00  0.00    +0.000 C 
ATOM     27  N   UNL     1      47.567   3.127   5.299  0.00  0.00    +0.000 N 
ATOM     28  O   UNL     1      48.421   1.444   6.548  0.00  0.00    +0.000 OA
ATOM     29  H   UNL     1      46.865   3.850   5.220  0.00  0.00    +0.000 HD
ATOM     30  H   UNL     1      48.176   2.907   4.524  0.00  0.00    +0.000 HD
ENDBRANCH  23  26
ENDBRANCH  18  20
ENDBRANCH  17  18
ENDBRANCH  16  17
ENDBRANCH   5  16
TORSDOF 7
ENDMDL
MODEL 6
REMARK VINA RESULT:    -7.516      2.840      3.876
REMARK INTER + INTRA:         -11.505
REMARK INTER:                 -10.567
REMARK INTRA:                  -0.938
REMARK UNBOUND:                -1.133
REMARK  Name = 
REMARK  8 active torsions:
REMARK  status: ('A' for Active; 'I' for Inactive)
REMARK    1  A    between atoms: C_1  and  C_2
REMARK    2  A    between atoms: C_2  and  C_3
REMARK    3  A    between atoms: C_7  and  C_8
REMARK    4  A    between atoms: C_8  and  C_9
REMARK    5  A    between atoms: C_9  and  N_10
REMARK    6  A    between atoms: N_10  and  C_11
REMARK    7  A    between atoms: C_14  and  C_15
REMARK    8  A    between atoms: C_23  and  O_24
REMARK                            x       y       z     vdW  Elec       q    Type
REMARK                         _______ _______ _______ _____ _____    ______ ____
ROOT
ATOM      1  C   UNL     1      47.673   5.171  15.260  0.00  0.00    +0.000 A 
ATOM      2  C   UNL     1      48.211   6.291  14.604  0.00  0.00    +0.000 A 
ATOM      3  C   UNL     1      47.820   6.638  13.318  0.00  0.00    +0.000 A 
ATOM      4  C   UNL     1      46.885   5.860  12.637  0.00  0.00    +0.000 A 
ATOM      5  C   UNL     1      46.332   4.726  13.249  0.00  0.00    +0.000 A 
ATOM      6  C   UNL     1      46.704   4.434  14.571  0.00  0.00    +0.000 A 
ENDROOT
BRANCH   1   8
ATOM      7  C   UNL     1      47.057   4.788  17.627  0.00  0.00    +0.000 C 
ATOM      8  C   UNL     1      48.234   4.719  16.621  0.00  0.00    +0.000 C 
ATOM      9  C   UNL     1      48.770   3.263  16.518  0.00  0.00    +0.000 C 
ATOM     10  C   UNL     1      49.460   2.767  17.793  0.00  0.00    +0.000 C 
ATOM     11  C   UNL     1      50.560   3.708  18.274  0.00  0.00    +0.000 C 
ATOM     12  C   UNL     1      50.057   5.141  18.413  0.00  0.00    +0.000 C 
ATOM     13  C   UNL     1      49.383   5.638  17.136  0.00  0.00    +0.000 C 
BRANCH  11  14
ATOM     14  O   UNL     1      51.668   3.665  17.377  0.00  0.00    +0.000 OA
ATOM     15  H   UNL     1      52.257   2.935  17.632  0.00  0.00    +0.000 HD
ENDBRANCH  11  14
ENDBRANCH   1   8
BRANCH   5  16
ATOM     16  C   UNL     1      45.415   3.776  12.500  0.00  0.00    +0.000 C 
BRANCH  16  17
ATOM     17  C   UNL     1      44.397   4.493  11.601  0.00  0.00    +0.000 C 
BRANCH  17  18
ATOM     18  N   UNL     1      43.829   3.613  10.583  0.00  0.00    +0.000 N 
ATOM     19  H   UNL     1      42.904   3.909  10.280  0.00  0.00    +0.000 HD
BRANCH  18  20
ATOM     20  C   UNL     1      44.691   3.338   9.505  0.00  0.00    +0.000 A 
ATOM     21  C   UNL     1      45.282   4.353   8.743  0.00  0.00    +0.000 A 
ATOM     22  C   UNL     1      46.197   4.052   7.739  0.00  0.00    +0.000 A 
ATOM     23  C   UNL     1      46.529   2.723   7.539  0.00  0.00    +0.000 A 
ATOM     24  N   UNL     1      45.992   1.694   8.248  0.00  0.00    +0.000 NA
ATOM     25  C   UNL     1      45.104   2.036   9.216  0.00  0.00    +0.000 A 
BRANCH  23  26
ATOM     26  C   UNL     1      47.564   2.385   6.508  0.00  0.00    +0.000 C 
ATOM     27  N   UNL     1      47.432   3.051   5.316  0.00  0.00    +0.000 N 
ATOM     28  O   UNL     1      48.449   1.576   6.697  0.00  0.00    +0.000 OA
ATOM     29  H   UNL     1      46.660   3.691   5.180  0.00  0.00    +0.000 HD
ATOM     30  H   UNL     1      48.061   2.829   4.558  0.00  0.00    +0.000 HD
ENDBRANCH  23  26
ENDBRANCH  18  20
ENDBRANCH  17  18
ENDBRANCH  16  17
ENDBRANCH   5  16
TORSDOF 7
ENDMDL
MODEL 7
REMARK VINA RESULT:    -7.361      1.688      2.603
REMARK INTER + INTRA:         -11.291
REMARK INTER:                 -10.503
REMARK INTRA:                  -0.788
REMARK UNBOUND:                -1.133
REMARK  Name = 
REMARK  8 active torsions:
REMARK  status: ('A' for Active; 'I' for Inactive)
REMARK    1  A    between atoms: C_1  and  C_2
REMARK    2  A    between atoms: C_2  and  C_3
REMARK    3  A    between atoms: C_7  and  C_8
REMARK    4  A    between atoms: C_8  and  C_9
REMARK    5  A    between atoms: C_9  and  N_10
REMARK    6  A    between atoms: N_10  and  C_11
REMARK    7  A    between atoms: C_14  and  C_15
REMARK    8  A    between atoms: C_23  and  O_24
REMARK                            x       y       z     vdW  Elec       q    Type
REMARK                         _______ _______ _______ _____ _____    ______ ____
ROOT
ATOM      1  C   UNL     1      47.291   7.649  13.439  0.00  0.00    +0.000 A 
ATOM      2  C   UNL     1      46.515   8.753  13.045  0.00  0.00    +0.000 A 
ATOM      3  C   UNL     1      45.330   8.593  12.340  0.00  0.00    +0.000 A 
ATOM      4  C   UNL     1      44.889   7.317  11.991  0.00  0.00    +0.000 A 
ATOM      5  C   UNL     1      45.640   6.190  12.352  0.00  0.00    +0.000 A 
ATOM      6  C   UNL     1      46.803   6.379  13.114  0.00  0.00    +0.000 A 
ENDROOT
BRANCH   1   8
ATOM      7  C   UNL     1      49.713   7.750  12.936  0.00  0.00    +0.000 C 
ATOM      8  C   UNL     1      48.675   7.858  14.082  0.00  0.00    +0.000 C 
ATOM      9  C   UNL     1      48.746   9.264  14.743  0.00  0.00    +0.000 C 
ATOM     10  C   UNL     1      50.045   9.517  15.516  0.00  0.00    +0.000 C 
ATOM     11  C   UNL     1      50.345   8.429  16.542  0.00  0.00    +0.000 C 
ATOM     12  C   UNL     1      50.310   7.038  15.916  0.00  0.00    +0.000 C 
ATOM     13  C   UNL     1      49.008   6.783  15.159  0.00  0.00    +0.000 C 
BRANCH  11  14
ATOM     14  O   UNL     1      49.414   8.501  17.620  0.00  0.00    +0.000 OA
ATOM     15  H   UNL     1      48.724   9.150  17.402  0.00  0.00    +0.000 HD
ENDBRANCH  11  14
ENDBRANCH   1   8
BRANCH   5  16
ATOM     16  C   UNL     1      45.271   4.795  11.879  0.00  0.00    +0.000 C 
BRANCH  16  17
ATOM     17  C   UNL     1      43.826   4.684  11.373  0.00  0.00    +0.000 C 
BRANCH  17  18
ATOM     18  N   UNL     1      43.726   4.830   9.923  0.00  0.00    +0.000 N 
ATOM     19  H   UNL     1      43.831   5.795   9.617  0.00  0.00    +0.000 HD
BRANCH  18  20
ATOM     20  C   UNL     1      44.532   3.938   9.192  0.00  0.00    +0.000 A 
ATOM     21  C   UNL     1      45.504   4.380   8.286  0.00  0.00    +0.000 A 
ATOM     22  C   UNL     1      46.344   3.477   7.642  0.00  0.00    +0.000 A 
ATOM     23  C   UNL     1      46.212   2.133   7.950  0.00  0.00    +0.000 A 
ATOM     24  N   UNL     1      45.290   1.643   8.822  0.00  0.00    +0.000 NA
ATOM     25  C   UNL     1      44.492   2.561   9.424  0.00  0.00    +0.000 A 
BRANCH  23  26
ATOM     26  C   UNL     1      47.153   1.152   7.318  0.00  0.00    +0.000 C 
ATOM     27  N   UNL     1      48.267   1.707   6.741  0.00  0.00    +0.000 N 
ATOM     28  O   UNL     1      46.951  -0.045   7.301  0.00  0.00    +0.000 OA
ATOM     29  H   UNL     1      48.385   2.712   6.741  0.00  0.00    +0.000 HD
ATOM     30  H   UNL     1      48.913   1.109   6.248  0.00  0.00    +0.000 HD
ENDBRANCH  23  26
ENDBRANCH  18  20
ENDBRANCH  17  18
ENDBRANCH  16  17
ENDBRANCH   5  16
TORSDOF 7
ENDMDL
MODEL 8
REMARK VINA RESULT:    -7.211      4.607      7.950
REMARK INTER + INTRA:         -11.084
REMARK INTER:                 -10.206
REMARK INTRA:                  -0.878
REMARK UNBOUND:                -1.133
REMARK  Name = 
REMARK  8 active torsions:
REMARK  status: ('A' for Active; 'I' for Inactive)
REMARK    1  A    between atoms: C_1  and  C_2
REMARK    2  A    between atoms: C_2  and  C_3
REMARK    3  A    between atoms: C_7  and  C_8
REMARK    4  A    between atoms: C_8  and  C_9
REMARK    5  A    between atoms: C_9  and  N_10
REMARK    6  A    between atoms: N_10  and  C_11
REMARK    7  A    between atoms: C_14  and  C_15
REMARK    8  A    between atoms: C_23  and  O_24
REMARK                            x       y       z     vdW  Elec       q    Type
REMARK                         _______ _______ _______ _____ _____    ______ ____
ROOT
ATOM      1  C   UNL     1      45.854   5.779  11.645  0.00  0.00    +0.000 A 
ATOM      2  C   UNL     1      45.914   7.160  11.391  0.00  0.00    +0.000 A 
ATOM      3  C   UNL     1      46.629   8.020  12.212  0.00  0.00    +0.000 A 
ATOM      4  C   UNL     1      47.298   7.525  13.331  0.00  0.00    +0.000 A 
ATOM      5  C   UNL     1      47.254   6.156  13.629  0.00  0.00    +0.000 A 
ATOM      6  C   UNL     1      46.571   5.303  12.748  0.00  0.00    +0.000 A 
ENDROOT
BRANCH   1   8
ATOM      7  C   UNL     1      43.500   5.451  10.953  0.00  0.00    +0.000 C 
ATOM      8  C   UNL     1      44.930   4.870  10.812  0.00  0.00    +0.000 C 
ATOM      9  C   UNL     1      45.374   4.887   9.322  0.00  0.00    +0.000 C 
ATOM     10  C   UNL     1      44.589   3.916   8.433  0.00  0.00    +0.000 C 
ATOM     11  C   UNL     1      44.586   2.489   8.975  0.00  0.00    +0.000 C 
ATOM     12  C   UNL     1      44.127   2.438  10.429  0.00  0.00    +0.000 C 
ATOM     13  C   UNL     1      44.921   3.396  11.314  0.00  0.00    +0.000 C 
BRANCH  11  14
ATOM     14  O   UNL     1      45.887   1.917   8.854  0.00  0.00    +0.000 OA
ATOM     15  H   UNL     1      46.512   2.603   8.566  0.00  0.00    +0.000 HD
ENDBRANCH  11  14
ENDBRANCH   1   8
BRANCH   5  16
ATOM     16  C   UNL     1      47.852   5.593  14.907  0.00  0.00    +0.000 C 
BRANCH  16  17
ATOM     17  C   UNL     1      47.077   4.393  15.467  0.00  0.00    +0.000 C 
BRANCH  17  18
ATOM     18  N   UNL     1      47.450   4.075  16.843  0.00  0.00    +0.000 N 
ATOM     19  H   UNL     1      46.733   3.544  17.332  0.00  0.00    +0.000 HD
BRANCH  18  20
ATOM     20  C   UNL     1      48.732   3.510  16.982  0.00  0.00    +0.000 A 
ATOM     21  C   UNL     1      49.765   4.161  17.668  0.00  0.00    +0.000 A 
ATOM     22  C   UNL     1      50.995   3.540  17.863  0.00  0.00    +0.000 A 
ATOM     23  C   UNL     1      51.154   2.249  17.388  0.00  0.00    +0.000 A 
ATOM     24  N   UNL     1      50.189   1.564  16.718  0.00  0.00    +0.000 NA
ATOM     25  C   UNL     1      49.007   2.210  16.550  0.00  0.00    +0.000 A 
BRANCH  23  26
ATOM     26  C   UNL     1      52.449   1.539  17.648  0.00  0.00    +0.000 C 
ATOM     27  N   UNL     1      52.325   0.216  17.992  0.00  0.00    +0.000 N 
ATOM     28  O   UNL     1      53.531   2.085  17.575  0.00  0.00    +0.000 OA
ATOM     29  H   UNL     1      51.406  -0.197  18.080  0.00  0.00    +0.000 HD
ATOM     30  H   UNL     1      53.153  -0.306  18.237  0.00  0.00    +0.000 HD
ENDBRANCH  23  26
ENDBRANCH  18  20
ENDBRANCH  17  18
ENDBRANCH  16  17
ENDBRANCH   5  16
TORSDOF 7
ENDMDL
MODEL 9
REMARK VINA RESULT:    -7.163      4.489      7.635
REMARK INTER + INTRA:         -11.018
REMARK INTER:                  -9.344
REMARK INTRA:                  -1.674
REMARK UNBOUND:                -1.133
REMARK  Name = 
REMARK  8 active torsions:
REMARK  status: ('A' for Active; 'I' for Inactive)
REMARK    1  A    between atoms: C_1  and  C_2
REMARK    2  A    between atoms: C_2  and  C_3
REMARK    3  A    between atoms: C_7  and  C_8
REMARK    4  A    between atoms: C_8  and  C_9
REMARK    5  A    between atoms: C_9  and  N_10
REMARK    6  A    between atoms: N_10  and  C_11
REMARK    7  A    between atoms: C_14  and  C_15
REMARK    8  A    between atoms: C_23  and  O_24
REMARK                            x       y       z     vdW  Elec       q    Type
REMARK                         _______ _______ _______ _____ _____    ______ ____
ROOT
ATOM      1  C   UNL     1      45.842   7.098  11.628  0.00  0.00    +0.000 A 
ATOM      2  C   UNL     1      45.008   8.192  11.917  0.00  0.00    +0.000 A 
ATOM      3  C   UNL     1      45.528   9.420  12.304  0.00  0.00    +0.000 A 
ATOM      4  C   UNL     1      46.906   9.588  12.430  0.00  0.00    +0.000 A 
ATOM      5  C   UNL     1      47.774   8.519  12.164  0.00  0.00    +0.000 A 
ATOM      6  C   UNL     1      47.222   7.308  11.719  0.00  0.00    +0.000 A 
ENDROOT
BRANCH   1   8
ATOM      7  C   UNL     1      45.623   5.342   9.897  0.00  0.00    +0.000 C 
ATOM      8  C   UNL     1      45.239   5.708  11.353  0.00  0.00    +0.000 C 
ATOM      9  C   UNL     1      45.832   4.666  12.344  0.00  0.00    +0.000 C 
ATOM     10  C   UNL     1      45.200   3.274  12.227  0.00  0.00    +0.000 C 
ATOM     11  C   UNL     1      43.679   3.305  12.331  0.00  0.00    +0.000 C 
ATOM     12  C   UNL     1      43.065   4.298  11.349  0.00  0.00    +0.000 C 
ATOM     13  C   UNL     1      43.686   5.688  11.478  0.00  0.00    +0.000 C 
BRANCH  11  14
ATOM     14  O   UNL     1      43.284   3.630  13.663  0.00  0.00    +0.000 OA
ATOM     15  H   UNL     1      42.323   3.513  13.748  0.00  0.00    +0.000 HD
ENDBRANCH  11  14
ENDBRANCH   1   8
BRANCH   5  16
ATOM     16  C   UNL     1      49.268   8.616  12.417  0.00  0.00    +0.000 C 
BRANCH  16  17
ATOM     17  C   UNL     1      49.821   7.456  13.256  0.00  0.00    +0.000 C 
BRANCH  17  18
ATOM     18  N   UNL     1      49.784   7.732  14.690  0.00  0.00    +0.000 N 
ATOM     19  H   UNL     1      49.436   8.664  14.902  0.00  0.00    +0.000 HD
BRANCH  18  20
ATOM     20  C   UNL     1      49.157   6.733  15.458  0.00  0.00    +0.000 A 
ATOM     21  C   UNL     1      48.098   5.963  14.962  0.00  0.00    +0.000 A 
ATOM     22  C   UNL     1      47.556   4.925  15.715  0.00  0.00    +0.000 A 
ATOM     23  C   UNL     1      48.118   4.656  16.952  0.00  0.00    +0.000 A 
ATOM     24  N   UNL     1      49.148   5.366  17.486  0.00  0.00    +0.000 NA
ATOM     25  C   UNL     1      49.643   6.369  16.717  0.00  0.00    +0.000 A 
BRANCH  23  26
ATOM     26  C   UNL     1      47.592   3.498  17.747  0.00  0.00    +0.000 C 
ATOM     27  N   UNL     1      48.327   3.179  18.860  0.00  0.00    +0.000 N 
ATOM     28  O   UNL     1      46.598   2.876  17.433  0.00  0.00    +0.000 OA
ATOM     29  H   UNL     1      49.171   3.697  19.071  0.00  0.00    +0.000 HD
ATOM     30  H   UNL     1      48.061   2.375  19.409  0.00  0.00    +0.000 HD
ENDBRANCH  23  26
ENDBRANCH  18  20
ENDBRANCH  17  18
ENDBRANCH  16  17
ENDBRANCH   5  16
TORSDOF 7
ENDMDL
