MODEL 1
REMARK VINA RESULT:    -8.380      0.000      0.000
REMARK INTER + INTRA:         -11.712
REMARK INTER:                 -10.830
REMARK INTRA:                  -0.883
REMARK UNBOUND:                -0.883
REMARK  Name = 
REMARK  6 active torsions:
REMARK  status: ('A' for Active; 'I' for Inactive)
REMARK    1  A    between atoms: C_1  and  C_2
REMARK    2  A    between atoms: C_4  and  C_5
REMARK    3  A    between atoms: N_12  and  C_13
REMARK    4  A    between atoms: C_13  and  C_14
REMARK    5  A    between atoms: C_17  and  C_18
REMARK    6  A    between atoms: C_18  and  C_19
REMARK                            x       y       z     vdW  Elec       q    Type
REMARK                         _______ _______ _______ _____ _____    ______ ____
ROOT
ATOM      1  C   UNL     1      46.158   3.675  13.074  0.00  0.00    +0.000 C 
ATOM      2  C   UNL     1      46.486   5.135  13.209  0.00  0.00    +0.000 A 
ATOM      3  C   UNL     1      47.505   5.490  14.129  0.00  0.00    +0.000 A 
ATOM      4  C   UNL     1      47.911   6.811  14.358  0.00  0.00    +0.000 A 
ATOM      5  C   UNL     1      47.292   7.839  13.651  0.00  0.00    +0.000 A 
ATOM      6  C   UNL     1      46.258   7.531  12.737  0.00  0.00    +0.000 A 
ATOM      7  C   UNL     1      45.440   8.304  11.890  0.00  0.00    +0.000 A 
ATOM      8  N   UNL     1      44.562   7.572  11.214  0.00  0.00    +0.000 NA
ATOM      9  N   UNL     1      44.808   6.300  11.617  0.00  0.00    +0.000 N 
ATOM     10  C   UNL     1      45.852   6.204  12.530  0.00  0.00    +0.000 A 
ENDROOT
BRANCH   4  11
ATOM     11  C   UNL     1      48.998   7.036  15.362  0.00  0.00    +0.000 C 
ATOM     12  N   UNL     1      48.659   7.423  16.628  0.00  0.00    +0.000 N 
ATOM     13  O   UNL     1      50.180   6.876  15.072  0.00  0.00    +0.000 OA
ATOM     14  H   UNL     1      47.727   7.599  16.961  0.00  0.00    +0.000 HD
ATOM     15  H   UNL     1      49.425   7.564  17.275  0.00  0.00    +0.000 HD
ENDBRANCH   4  11
BRANCH   9  16
ATOM     16  C   UNL     1      43.905   5.264  11.107  0.00  0.00    +0.000 C 
BRANCH  16  17
ATOM     17  C   UNL     1      44.495   4.425   9.993  0.00  0.00    +0.000 A 
ATOM     18  C   UNL     1      45.420   4.933   9.069  0.00  0.00    +0.000 A 
ATOM     19  C   UNL     1      46.099   4.079   8.195  0.00  0.00    +0.000 A 
ATOM     20  C   UNL     1      45.839   2.705   8.212  0.00  0.00    +0.000 A 
ATOM     21  C   UNL     1      44.783   2.236   8.994  0.00  0.00    +0.000 A 
ATOM     22  F   UNL     1      44.455   0.938   8.967  0.00  0.00    +0.000 F 
ATOM     23  C   UNL     1      44.104   3.083   9.866  0.00  0.00    +0.000 A 
BRANCH  20  24
ATOM     24  C   UNL     1      46.772   1.741   7.525  0.00  0.00    +0.000 C 
BRANCH  24  25
ATOM     25  C   UNL     1      47.408   2.281   6.247  0.00  0.00    +0.000 C 
ATOM     26  N   UNL     1      48.761   2.456   6.212  0.00  0.00    +0.000 N 
ATOM     27  O   UNL     1      46.733   2.630   5.281  0.00  0.00    +0.000 OA
ATOM     28  H   UNL     1      49.389   2.066   6.901  0.00  0.00    +0.000 HD
ATOM     29  H   UNL     1      49.153   2.789   5.341  0.00  0.00    +0.000 HD
ENDBRANCH  24  25
ENDBRANCH  20  24
ENDBRANCH  16  17
ENDBRANCH   9  16
TORSDOF 5
ENDMDL
MODEL 2
REMARK VINA RESULT:    -8.284      1.635      2.405
REMARK INTER + INTRA:         -11.588
REMARK INTER:                 -10.959
REMARK INTRA:                  -0.629
REMARK UNBOUND:                -0.883
REMARK  Name = 
REMARK  6 active torsions:
REMARK  status: ('A' for Active; 'I' for Inactive)
REMARK    1  A    between atoms: C_1  and  C_2
REMARK    2  A    between atoms: C_4  and  C_5
REMARK    3  A    between atoms: N_12  and  C_13
REMARK    4  A    between atoms: C_13  and  C_14
REMARK    5  A    between atoms: C_17  and  C_18
REMARK    6  A    between atoms: C_18  and  C_19
REMARK                            x       y       z     vdW  Elec       q    Type
REMARK                         _______ _______ _______ _____ _____    ______ ____
ROOT
ATOM      1  C   UNL     1      44.178   7.089  11.602  0.00  0.00    +0.000 C 
ATOM      2  C   UNL     1      45.415   6.763  12.390  0.00  0.00    +0.000 A 
ATOM      3  C   UNL     1      46.259   7.845  12.751  0.00  0.00    +0.000 A 
ATOM      4  C   UNL     1      47.444   7.687  13.482  0.00  0.00    +0.000 A 
ATOM      5  C   UNL     1      47.823   6.408  13.883  0.00  0.00    +0.000 A 
ATOM      6  C   UNL     1      47.020   5.300  13.529  0.00  0.00    +0.000 A 
ATOM      7  C   UNL     1      47.112   3.913  13.758  0.00  0.00    +0.000 A 
ATOM      8  N   UNL     1      46.120   3.231  13.197  0.00  0.00    +0.000 NA
ATOM      9  N   UNL     1      45.362   4.182  12.595  0.00  0.00    +0.000 N 
ATOM     10  C   UNL     1      45.845   5.472  12.783  0.00  0.00    +0.000 A 
ENDROOT
BRANCH   4  11
ATOM     11  C   UNL     1      48.236   8.918  13.787  0.00  0.00    +0.000 C 
ATOM     12  N   UNL     1      48.044   9.549  14.985  0.00  0.00    +0.000 N 
ATOM     13  O   UNL     1      49.053   9.368  12.989  0.00  0.00    +0.000 OA
ATOM     14  H   UNL     1      47.389   9.274  15.697  0.00  0.00    +0.000 HD
ATOM     15  H   UNL     1      48.601  10.378  15.151  0.00  0.00    +0.000 HD
ENDBRANCH   4  11
BRANCH   9  16
ATOM     16  C   UNL     1      44.230   3.707  11.794  0.00  0.00    +0.000 C 
BRANCH  16  17
ATOM     17  C   UNL     1      44.563   3.464  10.337  0.00  0.00    +0.000 A 
ATOM     18  C   UNL     1      44.768   4.508   9.422  0.00  0.00    +0.000 A 
ATOM     19  C   UNL     1      45.280   4.250   8.147  0.00  0.00    +0.000 A 
ATOM     20  C   UNL     1      45.566   2.937   7.758  0.00  0.00    +0.000 A 
ATOM     21  C   UNL     1      45.179   1.894   8.597  0.00  0.00    +0.000 A 
ATOM     22  F   UNL     1      45.362   0.623   8.216  0.00  0.00    +0.000 F 
ATOM     23  C   UNL     1      44.668   2.145   9.869  0.00  0.00    +0.000 A 
BRANCH  20  24
ATOM     24  C   UNL     1      46.408   2.668   6.537  0.00  0.00    +0.000 C 
BRANCH  24  25
ATOM     25  C   UNL     1      47.804   2.130   6.839  0.00  0.00    +0.000 C 
ATOM     26  N   UNL     1      48.884   2.907   6.534  0.00  0.00    +0.000 N 
ATOM     27  O   UNL     1      47.986   0.995   7.275  0.00  0.00    +0.000 OA
ATOM     28  H   UNL     1      48.816   3.890   6.310  0.00  0.00    +0.000 HD
ATOM     29  H   UNL     1      49.793   2.533   6.773  0.00  0.00    +0.000 HD
ENDBRANCH  24  25
ENDBRANCH  20  24
ENDBRANCH  16  17
ENDBRANCH   9  16
TORSDOF 5
ENDMDL
MODEL 3
REMARK VINA RESULT:    -6.345      4.233      6.687
REMARK INTER + INTRA:          -9.083
REMARK INTER:                  -8.171
REMARK INTRA:                  -0.912
REMARK UNBOUND:                -0.883
REMARK  Name = 
REMARK  6 active torsions:
REMARK  status: ('A' for Active; 'I' for Inactive)
REMARK    1  A    between atoms: C_1  and  C_2
REMARK    2  A    between atoms: C_4  and  C_5
REMARK    3  A    between atoms: N_12  and  C_13
REMARK    4  A    between atoms: C_13  and  C_14
REMARK    5  A    between atoms: C_17  and  C_18
REMARK    6  A    between atoms: C_18  and  C_19
REMARK                            x       y       z     vdW  Elec       q    Type
REMARK                         _______ _______ _______ _____ _____    ______ ____
ROOT
ATOM      1  C   UNL     1      47.062   5.052  14.166  0.00  0.00    +0.000 C 
ATOM      2  C   UNL     1      46.010   5.265  13.114  0.00  0.00    +0.000 A 
ATOM      3  C   UNL     1      45.400   4.110  12.562  0.00  0.00    +0.000 A 
ATOM      4  C   UNL     1      44.409   4.160  11.573  0.00  0.00    +0.000 A 
ATOM      5  C   UNL     1      43.989   5.402  11.103  0.00  0.00    +0.000 A 
ATOM      6  C   UNL     1      44.584   6.578  11.613  0.00  0.00    +0.000 A 
ATOM      7  C   UNL     1      44.407   7.953  11.360  0.00  0.00    +0.000 A 
ATOM      8  N   UNL     1      45.227   8.718  12.071  0.00  0.00    +0.000 NA
ATOM      9  N   UNL     1      45.950   7.836  12.806  0.00  0.00    +0.000 N 
ATOM     10  C   UNL     1      45.587   6.511  12.591  0.00  0.00    +0.000 A 
ENDROOT
BRANCH   4  11
ATOM     11  C   UNL     1      43.857   2.860  11.081  0.00  0.00    +0.000 C 
ATOM     12  N   UNL     1      44.432   2.268   9.991  0.00  0.00    +0.000 N 
ATOM     13  O   UNL     1      42.907   2.316  11.636  0.00  0.00    +0.000 OA
ATOM     14  H   UNL     1      45.199   2.637   9.455  0.00  0.00    +0.000 HD
ATOM     15  H   UNL     1      44.028   1.389   9.692  0.00  0.00    +0.000 HD
ENDBRANCH   4  11
BRANCH   9  16
ATOM     16  C   UNL     1      47.029   8.396  13.626  0.00  0.00    +0.000 C 
BRANCH  16  17
ATOM     17  C   UNL     1      48.415   8.179  13.057  0.00  0.00    +0.000 A 
ATOM     18  C   UNL     1      48.640   7.855  11.711  0.00  0.00    +0.000 A 
ATOM     19  C   UNL     1      49.932   7.874  11.178  0.00  0.00    +0.000 A 
ATOM     20  C   UNL     1      51.024   8.188  11.994  0.00  0.00    +0.000 A 
ATOM     21  C   UNL     1      50.814   8.317  13.366  0.00  0.00    +0.000 A 
ATOM     22  F   UNL     1      51.852   8.534  14.184  0.00  0.00    +0.000 F 
ATOM     23  C   UNL     1      49.529   8.300  13.902  0.00  0.00    +0.000 A 
BRANCH  20  24
ATOM     24  C   UNL     1      52.360   8.529  11.385  0.00  0.00    +0.000 C 
BRANCH  24  25
ATOM     25  C   UNL     1      52.778   7.622  10.231  0.00  0.00    +0.000 C 
ATOM     26  N   UNL     1      53.156   6.340  10.510  0.00  0.00    +0.000 N 
ATOM     27  O   UNL     1      52.856   8.032   9.075  0.00  0.00    +0.000 OA
ATOM     28  H   UNL     1      52.987   5.893  11.399  0.00  0.00    +0.000 HD
ATOM     29  H   UNL     1      53.401   5.758   9.720  0.00  0.00    +0.000 HD
ENDBRANCH  24  25
ENDBRANCH  20  24
ENDBRANCH  16  17
ENDBRANCH   9  16
TORSDOF 5
ENDMDL
MODEL 4
REMARK VINA RESULT:    -6.006      4.775      7.621
REMARK INTER + INTRA:          -8.645
REMARK INTER:                  -7.851
REMARK INTRA:                  -0.794
REMARK UNBOUND:                -0.883
REMARK  Name = 
REMARK  6 active torsions:
REMARK  status: ('A' for Active; 'I' for Inactive)
REMARK    1  A    between atoms: C_1  and  C_2
REMARK    2  A    between atoms: C_4  and  C_5
REMARK    3  A    between atoms: N_12  and  C_13
REMARK    4  A    between atoms: C_13  and  C_14
REMARK    5  A    between atoms: C_17  and  C_18
REMARK    6  A    between atoms: C_18  and  C_19
REMARK                            x       y       z     vdW  Elec       q    Type
REMARK                         _______ _______ _______ _____ _____    ______ ____
ROOT
ATOM      1  C   UNL     1      48.793   2.103  16.653  0.00  0.00    +0.000 C 
ATOM      2  C   UNL     1      50.130   2.600  17.127  0.00  0.00    +0.000 A 
ATOM      3  C   UNL     1      51.140   1.631  17.354  0.00  0.00    +0.000 A 
ATOM      4  C   UNL     1      52.429   1.951  17.798  0.00  0.00    +0.000 A 
ATOM      5  C   UNL     1      52.750   3.287  18.031  0.00  0.00    +0.000 A 
ATOM      6  C   UNL     1      51.767   4.283  17.836  0.00  0.00    +0.000 A 
ATOM      7  C   UNL     1      51.752   5.684  17.981  0.00  0.00    +0.000 A 
ATOM      8  N   UNL     1      50.568   6.219  17.707  0.00  0.00    +0.000 NA
ATOM      9  N   UNL     1      49.793   5.157  17.372  0.00  0.00    +0.000 N 
ATOM     10  C   UNL     1      50.475   3.945  17.405  0.00  0.00    +0.000 A 
ENDROOT
BRANCH   4  11
ATOM     11  C   UNL     1      53.392   0.823  17.997  0.00  0.00    +0.000 C 
ATOM     12  N   UNL     1      53.516  -0.121  17.017  0.00  0.00    +0.000 N 
ATOM     13  O   UNL     1      54.069   0.732  19.017  0.00  0.00    +0.000 OA
ATOM     14  H   UNL     1      52.997  -0.149  16.156  0.00  0.00    +0.000 HD
ATOM     15  H   UNL     1      54.179  -0.867  17.192  0.00  0.00    +0.000 HD
ENDBRANCH   4  11
BRANCH   9  16
ATOM     16  C   UNL     1      48.377   5.433  17.114  0.00  0.00    +0.000 C 
BRANCH  16  17
ATOM     17  C   UNL     1      48.030   5.567  15.647  0.00  0.00    +0.000 A 
ATOM     18  C   UNL     1      47.130   4.707  14.999  0.00  0.00    +0.000 A 
ATOM     19  C   UNL     1      46.675   4.991  13.708  0.00  0.00    +0.000 A 
ATOM     20  C   UNL     1      47.138   6.125  13.033  0.00  0.00    +0.000 A 
ATOM     21  C   UNL     1      48.173   6.864  13.605  0.00  0.00    +0.000 A 
ATOM     22  F   UNL     1      48.696   7.906  12.945  0.00  0.00    +0.000 F 
ATOM     23  C   UNL     1      48.630   6.586  14.891  0.00  0.00    +0.000 A 
BRANCH  20  24
ATOM     24  C   UNL     1      46.432   6.622  11.798  0.00  0.00    +0.000 C 
BRANCH  24  25
ATOM     25  C   UNL     1      45.224   7.512  12.076  0.00  0.00    +0.000 C 
ATOM     26  N   UNL     1      44.059   7.264  11.409  0.00  0.00    +0.000 N 
ATOM     27  O   UNL     1      45.291   8.487  12.823  0.00  0.00    +0.000 OA
ATOM     28  H   UNL     1      43.885   6.411  10.896  0.00  0.00    +0.000 HD
ATOM     29  H   UNL     1      43.271   7.855  11.638  0.00  0.00    +0.000 HD
ENDBRANCH  24  25
ENDBRANCH  20  24
ENDBRANCH  16  17
ENDBRANCH   9  16
TORSDOF 5
ENDMDL
MODEL 5
REMARK VINA RESULT:    -5.853      4.550      8.201
REMARK INTER + INTRA:          -8.446
REMARK INTER:                  -7.402
REMARK INTRA:                  -1.044
REMARK UNBOUND:                -0.883
REMARK  Name = 
REMARK  6 active torsions:
REMARK  status: ('A' for Active; 'I' for Inactive)
REMARK    1  A    between atoms: C_1  and  C_2
REMARK    2  A    between atoms: C_4  and  C_5
REMARK    3  A    between atoms: N_12  and  C_13
REMARK    4  A    between atoms: C_13  and  C_14
REMARK    5  A    between atoms: C_17  and  C_18
REMARK    6  A    between atoms: C_18  and  C_19
REMARK                            x       y       z     vdW  Elec       q    Type
REMARK                         _______ _______ _______ _____ _____    ______ ____
ROOT
ATOM      1  C   UNL     1      47.644   5.338  13.519  0.00  0.00    +0.000 C 
ATOM      2  C   UNL     1      46.674   6.303  12.896  0.00  0.00    +0.000 A 
ATOM      3  C   UNL     1      45.454   5.771  12.406  0.00  0.00    +0.000 A 
ATOM      4  C   UNL     1      44.462   6.553  11.800  0.00  0.00    +0.000 A 
ATOM      5  C   UNL     1      44.670   7.924  11.668  0.00  0.00    +0.000 A 
ATOM      6  C   UNL     1      45.880   8.491  12.127  0.00  0.00    +0.000 A 
ATOM      7  C   UNL     1      46.402   9.800  12.142  0.00  0.00    +0.000 A 
ATOM      8  N   UNL     1      47.624   9.862  12.658  0.00  0.00    +0.000 NA
ATOM      9  N   UNL     1      47.908   8.578  12.993  0.00  0.00    +0.000 N 
ATOM     10  C   UNL     1      46.871   7.694  12.717  0.00  0.00    +0.000 A 
ENDROOT
BRANCH   4  11
ATOM     11  C   UNL     1      43.226   5.854  11.326  0.00  0.00    +0.000 C 
ATOM     12  N   UNL     1      42.011   6.267  11.798  0.00  0.00    +0.000 N 
ATOM     13  O   UNL     1      43.283   4.927  10.525  0.00  0.00    +0.000 OA
ATOM     14  H   UNL     1      41.857   7.001  12.468  0.00  0.00    +0.000 HD
ATOM     15  H   UNL     1      41.201   5.767  11.452  0.00  0.00    +0.000 HD
ENDBRANCH   4  11
BRANCH   9  16
ATOM     16  C   UNL     1      49.259   8.317  13.502  0.00  0.00    +0.000 C 
BRANCH  16  17
ATOM     17  C   UNL     1      49.313   8.018  14.985  0.00  0.00    +0.000 A 
ATOM     18  C   UNL     1      48.553   8.724  15.929  0.00  0.00    +0.000 A 
ATOM     19  C   UNL     1      48.468   8.283  17.252  0.00  0.00    +0.000 A 
ATOM     20  C   UNL     1      49.169   7.143  17.659  0.00  0.00    +0.000 A 
ATOM     21  C   UNL     1      50.071   6.563  16.768  0.00  0.00    +0.000 A 
ATOM     22  F   UNL     1      50.820   5.521  17.155  0.00  0.00    +0.000 F 
ATOM     23  C   UNL     1      50.159   6.999  15.448  0.00  0.00    +0.000 A 
BRANCH  20  24
ATOM     24  C   UNL     1      48.843   6.470  18.968  0.00  0.00    +0.000 C 
BRANCH  24  25
ATOM     25  C   UNL     1      47.982   5.217  18.836  0.00  0.00    +0.000 C 
ATOM     26  N   UNL     1      46.667   5.358  18.501  0.00  0.00    +0.000 N 
ATOM     27  O   UNL     1      48.418   4.097  19.096  0.00  0.00    +0.000 OA
ATOM     28  H   UNL     1      46.275   6.216  18.139  0.00  0.00    +0.000 HD
ATOM     29  H   UNL     1      46.132   4.507  18.395  0.00  0.00    +0.000 HD
ENDBRANCH  24  25
ENDBRANCH  20  24
ENDBRANCH  16  17
ENDBRANCH   9  16
TORSDOF 5
ENDMDL
MODEL 6
REMARK VINA RESULT:    -5.827      4.115      9.222
REMARK INTER + INTRA:          -8.413
REMARK INTER:                  -8.050
REMARK INTRA:                  -0.363
REMARK UNBOUND:                -0.883
REMARK  Name = 
REMARK  6 active torsions:
REMARK  status: ('A' for Active; 'I' for Inactive)
REMARK    1  A    between atoms: C_1  and  C_2
REMARK    2  A    between atoms: C_4  and  C_5
REMARK    3  A    between atoms: N_12  and  C_13
REMARK    4  A    between atoms: C_13  and  C_14
REMARK    5  A    between atoms: C_17  and  C_18
REMARK    6  A    between atoms: C_18  and  C_19
REMARK                            x       y       z     vdW  Elec       q    Type
REMARK                         _______ _______ _______ _____ _____    ______ ____
ROOT
ATOM      1  C   UNL     1      47.278   7.693  11.724  0.00  0.00    +0.000 C 
ATOM      2  C   UNL     1      46.691   6.376  12.146  0.00  0.00    +0.000 A 
ATOM      3  C   UNL     1      45.683   5.819  11.318  0.00  0.00    +0.000 A 
ATOM      4  C   UNL     1      45.048   4.600  11.592  0.00  0.00    +0.000 A 
ATOM      5  C   UNL     1      45.418   3.888  12.730  0.00  0.00    +0.000 A 
ATOM      6  C   UNL     1      46.405   4.416  13.592  0.00  0.00    +0.000 A 
ATOM      7  C   UNL     1      46.991   3.974  14.795  0.00  0.00    +0.000 A 
ATOM      8  N   UNL     1      47.880   4.832  15.281  0.00  0.00    +0.000 NA
ATOM      9  N   UNL     1      47.883   5.851  14.385  0.00  0.00    +0.000 N 
ATOM     10  C   UNL     1      47.021   5.645  13.314  0.00  0.00    +0.000 A 
ENDROOT
BRANCH   4  11
ATOM     11  C   UNL     1      44.000   4.137  10.630  0.00  0.00    +0.000 C 
ATOM     12  N   UNL     1      43.959   4.686   9.379  0.00  0.00    +0.000 N 
ATOM     13  O   UNL     1      43.182   3.275  10.941  0.00  0.00    +0.000 OA
ATOM     14  H   UNL     1      44.568   5.408   9.033  0.00  0.00    +0.000 HD
ATOM     15  H   UNL     1      43.234   4.344   8.761  0.00  0.00    +0.000 HD
ENDBRANCH   4  11
BRANCH   9  16
ATOM     16  C   UNL     1      48.710   7.015  14.719  0.00  0.00    +0.000 C 
BRANCH  16  17
ATOM     17  C   UNL     1      49.071   7.116  16.185  0.00  0.00    +0.000 A 
ATOM     18  C   UNL     1      48.416   7.986  17.070  0.00  0.00    +0.000 A 
ATOM     19  C   UNL     1      48.629   7.898  18.448  0.00  0.00    +0.000 A 
ATOM     20  C   UNL     1      49.528   6.956  18.961  0.00  0.00    +0.000 A 
ATOM     21  C   UNL     1      50.316   6.232  18.067  0.00  0.00    +0.000 A 
ATOM     22  F   UNL     1      51.244   5.384  18.528  0.00  0.00    +0.000 F 
ATOM     23  C   UNL     1      50.107   6.316  16.693  0.00  0.00    +0.000 A 
BRANCH  20  24
ATOM     24  C   UNL     1      49.532   6.625  20.431  0.00  0.00    +0.000 C 
BRANCH  24  25
ATOM     25  C   UNL     1      48.537   5.541  20.836  0.00  0.00    +0.000 C 
ATOM     26  N   UNL     1      48.932   4.235  20.780  0.00  0.00    +0.000 N 
ATOM     27  O   UNL     1      47.374   5.802  21.138  0.00  0.00    +0.000 OA
ATOM     28  H   UNL     1      49.897   3.951  20.681  0.00  0.00    +0.000 HD
ATOM     29  H   UNL     1      48.259   3.544  21.082  0.00  0.00    +0.000 HD
ENDBRANCH  24  25
ENDBRANCH  20  24
ENDBRANCH  16  17
ENDBRANCH   9  16
TORSDOF 5
ENDMDL
MODEL 7
REMARK VINA RESULT:    -5.802      1.944      2.842
REMARK INTER + INTRA:          -8.380
REMARK INTER:                  -7.836
REMARK INTRA:                  -0.545
REMARK UNBOUND:                -0.883
REMARK  Name = 
REMARK  6 active torsions:
REMARK  status: ('A' for Active; 'I' for Inactive)
REMARK    1  A    between atoms: C_1  and  C_2
REMARK    2  A    between atoms: C_4  and  C_5
REMARK    3  A    between atoms: N_12  and  C_13
REMARK    4  A    between atoms: C_13  and  C_14
REMARK    5  A    between atoms: C_17  and  C_18
REMARK    6  A    between atoms: C_18  and  C_19
REMARK                            x       y       z     vdW  Elec       q    Type
REMARK                         _______ _______ _______ _____ _____    ______ ____
ROOT
ATOM      1  C   UNL     1      46.240   9.773  11.934  0.00  0.00    +0.000 C 
ATOM      2  C   UNL     1      47.204   8.962  12.754  0.00  0.00    +0.000 A 
ATOM      3  C   UNL     1      48.369   9.619  13.225  0.00  0.00    +0.000 A 
ATOM      4  C   UNL     1      49.352   8.985  13.996  0.00  0.00    +0.000 A 
ATOM      5  C   UNL     1      49.188   7.642  14.327  0.00  0.00    +0.000 A 
ATOM      6  C   UNL     1      48.049   6.945  13.863  0.00  0.00    +0.000 A 
ATOM      7  C   UNL     1      47.590   5.620  14.001  0.00  0.00    +0.000 A 
ATOM      8  N   UNL     1      46.454   5.398  13.352  0.00  0.00    +0.000 NA
ATOM      9  N   UNL     1      46.158   6.593  12.782  0.00  0.00    +0.000 N 
ATOM     10  C   UNL     1      47.082   7.589  13.078  0.00  0.00    +0.000 A 
ENDROOT
BRANCH   4  11
ATOM     11  C   UNL     1      50.531   9.803  14.420  0.00  0.00    +0.000 C 
ATOM     12  N   UNL     1      50.778  10.987  13.784  0.00  0.00    +0.000 N 
ATOM     13  O   UNL     1      51.274   9.434  15.325  0.00  0.00    +0.000 OA
ATOM     14  H   UNL     1      50.245  11.370  13.022  0.00  0.00    +0.000 HD
ATOM     15  H   UNL     1      51.586  11.509  14.102  0.00  0.00    +0.000 HD
ENDBRANCH   4  11
BRANCH   9  16
ATOM     16  C   UNL     1      44.987   6.626  11.899  0.00  0.00    +0.000 C 
BRANCH  16  17
ATOM     17  C   UNL     1      45.011   5.583  10.801  0.00  0.00    +0.000 A 
ATOM     18  C   UNL     1      45.771   5.731   9.632  0.00  0.00    +0.000 A 
ATOM     19  C   UNL     1      45.935   4.662   8.747  0.00  0.00    +0.000 A 
ATOM     20  C   UNL     1      45.314   3.435   9.004  0.00  0.00    +0.000 A 
ATOM     21  C   UNL     1      44.408   3.356  10.061  0.00  0.00    +0.000 A 
ATOM     22  F   UNL     1      43.734   2.220  10.282  0.00  0.00    +0.000 F 
ATOM     23  C   UNL     1      44.241   4.419  10.946  0.00  0.00    +0.000 A 
BRANCH  20  24
ATOM     24  C   UNL     1      45.730   2.195   8.256  0.00  0.00    +0.000 C 
BRANCH  24  25
ATOM     25  C   UNL     1      46.778   2.434   7.172  0.00  0.00    +0.000 C 
ATOM     26  N   UNL     1      46.372   2.934   5.968  0.00  0.00    +0.000 N 
ATOM     27  O   UNL     1      47.956   2.120   7.323  0.00  0.00    +0.000 OA
ATOM     28  H   UNL     1      45.461   3.344   5.816  0.00  0.00    +0.000 HD
ATOM     29  H   UNL     1      47.094   3.107   5.282  0.00  0.00    +0.000 HD
ENDBRANCH  24  25
ENDBRANCH  20  24
ENDBRANCH  16  17
ENDBRANCH   9  16
TORSDOF 5
ENDMDL
MODEL 8
REMARK VINA RESULT:    -5.783      3.274      4.971
REMARK INTER + INTRA:          -8.356
REMARK INTER:                  -7.419
REMARK INTRA:                  -0.937
REMARK UNBOUND:                -0.883
REMARK  Name = 
REMARK  6 active torsions:
REMARK  status: ('A' for Active; 'I' for Inactive)
REMARK    1  A    between atoms: C_1  and  C_2
REMARK    2  A    between atoms: C_4  and  C_5
REMARK    3  A    between atoms: N_12  and  C_13
REMARK    4  A    between atoms: C_13  and  C_14
REMARK    5  A    between atoms: C_17  and  C_18
REMARK    6  A    between atoms: C_18  and  C_19
REMARK                            x       y       z     vdW  Elec       q    Type
REMARK                         _______ _______ _______ _____ _____    ______ ____
ROOT
ATOM      1  C   UNL     1      48.264   4.399  16.489  0.00  0.00    +0.000 C 
ATOM      2  C   UNL     1      48.381   5.828  16.940  0.00  0.00    +0.000 A 
ATOM      3  C   UNL     1      48.268   6.082  18.331  0.00  0.00    +0.000 A 
ATOM      4  C   UNL     1      48.354   7.364  18.890  0.00  0.00    +0.000 A 
ATOM      5  C   UNL     1      48.564   8.453  18.048  0.00  0.00    +0.000 A 
ATOM      6  C   UNL     1      48.664   8.247  16.654  0.00  0.00    +0.000 A 
ATOM      7  C   UNL     1      48.862   9.101  15.551  0.00  0.00    +0.000 A 
ATOM      8  N   UNL     1      48.858   8.455  14.391  0.00  0.00    +0.000 NA
ATOM      9  N   UNL     1      48.661   7.157  14.734  0.00  0.00    +0.000 N 
ATOM     10  C   UNL     1      48.560   6.959  16.107  0.00  0.00    +0.000 A 
ENDROOT
BRANCH   4  11
ATOM     11  C   UNL     1      48.212   7.481  20.375  0.00  0.00    +0.000 C 
ATOM     12  N   UNL     1      48.626   8.628  20.991  0.00  0.00    +0.000 N 
ATOM     13  O   UNL     1      47.731   6.572  21.045  0.00  0.00    +0.000 OA
ATOM     14  H   UNL     1      49.049   9.421  20.538  0.00  0.00    +0.000 HD
ATOM     15  H   UNL     1      48.512   8.665  21.996  0.00  0.00    +0.000 HD
ENDBRANCH   4  11
BRANCH   9  16
ATOM     16  C   UNL     1      48.505   6.203  13.632  0.00  0.00    +0.000 C 
BRANCH  16  17
ATOM     17  C   UNL     1      47.109   6.155  13.048  0.00  0.00    +0.000 A 
ATOM     18  C   UNL     1      46.717   6.938  11.952  0.00  0.00    +0.000 A 
ATOM     19  C   UNL     1      45.495   6.712  11.313  0.00  0.00    +0.000 A 
ATOM     20  C   UNL     1      44.631   5.716  11.780  0.00  0.00    +0.000 A 
ATOM     21  C   UNL     1      44.939   5.077  12.981  0.00  0.00    +0.000 A 
ATOM     22  F   UNL     1      44.091   4.179  13.498  0.00  0.00    +0.000 F 
ATOM     23  C   UNL     1      46.156   5.299  13.622  0.00  0.00    +0.000 A 
BRANCH  20  24
ATOM     24  C   UNL     1      43.482   5.240  10.930  0.00  0.00    +0.000 C 
BRANCH  24  25
ATOM     25  C   UNL     1      43.818   4.068  10.012  0.00  0.00    +0.000 C 
ATOM     26  N   UNL     1      44.162   4.329   8.717  0.00  0.00    +0.000 N 
ATOM     27  O   UNL     1      43.716   2.900  10.381  0.00  0.00    +0.000 OA
ATOM     28  H   UNL     1      44.403   5.251   8.382  0.00  0.00    +0.000 HD
ATOM     29  H   UNL     1      44.406   3.533   8.143  0.00  0.00    +0.000 HD
ENDBRANCH  24  25
ENDBRANCH  20  24
ENDBRANCH  16  17
ENDBRANCH   9  16
TORSDOF 5
ENDMDL
MODEL 9
REMARK VINA RESULT:    -5.723      2.898      3.710
REMARK INTER + INTRA:          -8.278
REMARK INTER:                  -7.529
REMARK INTRA:                  -0.749
REMARK UNBOUND:                -0.883
REMARK  Name = 
REMARK  6 active torsions:
REMARK  status: ('A' for Active; 'I' for Inactive)
REMARK    1  A    between atoms: C_1  and  C_2
REMARK    2  A    between atoms: C_4  and  C_5
REMARK    3  A    between atoms: N_12  and  C_13
REMARK    4  A    between atoms: C_13  and  C_14
REMARK    5  A    between atoms: C_17  and  C_18
REMARK    6  A    between atoms: C_18  and  C_19
REMARK                            x       y       z     vdW  Elec       q    Type
REMARK                         _______ _______ _______ _____ _____    ______ ____
ROOT
ATOM      1  C   UNL     1      48.105   6.353  13.813  0.00  0.00    +0.000 C 
ATOM      2  C   UNL     1      48.623   7.622  13.197  0.00  0.00    +0.000 A 
ATOM      3  C   UNL     1      50.021   7.852  13.263  0.00  0.00    +0.000 A 
ATOM      4  C   UNL     1      50.640   8.992  12.733  0.00  0.00    +0.000 A 
ATOM      5  C   UNL     1      49.854   9.956  12.105  0.00  0.00    +0.000 A 
ATOM      6  C   UNL     1      48.454   9.774  12.034  0.00  0.00    +0.000 A 
ATOM      7  C   UNL     1      47.396  10.532  11.494  0.00  0.00    +0.000 A 
ATOM      8  N   UNL     1      46.208   9.972  11.690  0.00  0.00    +0.000 NA
ATOM      9  N   UNL     1      46.488   8.828  12.364  0.00  0.00    +0.000 N 
ATOM     10  C   UNL     1      47.847   8.635  12.583  0.00  0.00    +0.000 A 
ENDROOT
BRANCH   4  11
ATOM     11  C   UNL     1      52.125   9.103  12.879  0.00  0.00    +0.000 C 
ATOM     12  N   UNL     1      52.850   7.975  13.144  0.00  0.00    +0.000 N 
ATOM     13  O   UNL     1      52.701  10.181  12.762  0.00  0.00    +0.000 OA
ATOM     14  H   UNL     1      52.475   7.051  13.276  0.00  0.00    +0.000 HD
ATOM     15  H   UNL     1      53.851   8.095  13.235  0.00  0.00    +0.000 HD
ENDBRANCH   4  11
BRANCH   9  16
ATOM     16  C   UNL     1      45.339   8.036  12.817  0.00  0.00    +0.000 C 
BRANCH  16  17
ATOM     17  C   UNL     1      45.004   6.864  11.919  0.00  0.00    +0.000 A 
ATOM     18  C   UNL     1      45.901   6.357  10.966  0.00  0.00    +0.000 A 
ATOM     19  C   UNL     1      45.641   5.151  10.311  0.00  0.00    +0.000 A 
ATOM     20  C   UNL     1      44.462   4.446  10.578  0.00  0.00    +0.000 A 
ATOM     21  C   UNL     1      43.491   5.050  11.376  0.00  0.00    +0.000 A 
ATOM     22  F   UNL     1      42.318   4.439  11.582  0.00  0.00    +0.000 F 
ATOM     23  C   UNL     1      43.746   6.253  12.032  0.00  0.00    +0.000 A 
BRANCH  20  24
ATOM     24  C   UNL     1      44.312   3.012  10.141  0.00  0.00    +0.000 C 
BRANCH  24  25
ATOM     25  C   UNL     1      44.907   2.705   8.769  0.00  0.00    +0.000 C 
ATOM     26  N   UNL     1      44.431   3.382   7.683  0.00  0.00    +0.000 N 
ATOM     27  O   UNL     1      45.742   1.819   8.604  0.00  0.00    +0.000 OA
ATOM     28  H   UNL     1      43.857   4.210   7.753  0.00  0.00    +0.000 HD
ATOM     29  H   UNL     1      44.866   3.175   6.793  0.00  0.00    +0.000 HD
ENDBRANCH  24  25
ENDBRANCH  20  24
ENDBRANCH  16  17
ENDBRANCH   9  16
TORSDOF 5
ENDMDL
