MODEL 1
REMARK VINA RESULT:    -6.825      0.000      0.000
REMARK INTER + INTRA:         -10.513
REMARK INTER:                  -9.619
REMARK INTRA:                  -0.894
REMARK UNBOUND:                -0.894
REMARK  Name = 
REMARK  7 active torsions:
REMARK  status: ('A' for Active; 'I' for Inactive)
REMARK    1  A    between atoms: C_2  and  C_3
REMARK    2  A    between atoms: C_7  and  S_8
REMARK    3  A    between atoms: S_8  and  C_9
REMARK    4  A    between atoms: C_9  and  C_10
REMARK    5  A    between atoms: C_10  and  C_11
REMARK    6  A    between atoms: C_15  and  O_16
REMARK    7  A    between atoms: O_16  and  C_17
REMARK                            x       y       z     vdW  Elec       q    Type
REMARK                         _______ _______ _______ _____ _____    ______ ____
ROOT
ATOM      1  C   UNL     1      44.565   7.013  11.436  0.00  0.00    +0.000 C 
ENDROOT
BRANCH   1   2
ATOM      2  C   UNL     1      44.309   5.520  11.469  0.00  0.00    +0.000 A 
ATOM      3  C   UNL     1      43.730   4.946  12.603  0.00  0.00    +0.000 A 
ATOM      4  C   UNL     1      43.395   3.590  12.617  0.00  0.00    +0.000 A 
ATOM      5  C   UNL     1      43.636   2.788  11.494  0.00  0.00    +0.000 A 
ATOM      6  C   UNL     1      44.234   3.341  10.366  0.00  0.00    +0.000 A 
ATOM      7  C   UNL     1      44.569   4.703  10.357  0.00  0.00    +0.000 A 
BRANCH   6   8
ATOM      8  O   UNL     1      44.490   2.678   9.188  0.00  0.00    +0.000 OA
BRANCH   8   9
ATOM      9  C   UNL     1      45.803   2.749   8.590  0.00  0.00    +0.000 C 
ATOM     10  C   UNL     1      45.902   3.339   7.162  0.00  0.00    +0.000 C 
ATOM     11  C   UNL     1      46.856   2.193   6.788  0.00  0.00    +0.000 C 
ATOM     12  C   UNL     1      46.311   1.407   7.990  0.00  0.00    +0.000 C 
ENDBRANCH   8   9
ENDBRANCH   6   8
ENDBRANCH   1   2
BRANCH   1  13
ATOM     13  C   UNL     1      45.602   7.487  12.452  0.00  0.00    +0.000 C 
BRANCH  13  14
ATOM     14  S   UNL     1      47.198   6.648  12.132  0.00  0.00    +0.000 S 
BRANCH  14  19
ATOM     15  C   UNL     1      47.709   4.917  15.820  0.00  0.00    +0.000 A 
ATOM     16  C   UNL     1      48.806   5.648  16.255  0.00  0.00    +0.000 A 
ATOM     17  N   UNL     1      49.390   6.617  15.517  0.00  0.00    +0.000 NA
ATOM     18  C   UNL     1      48.853   6.861  14.296  0.00  0.00    +0.000 A 
ATOM     19  C   UNL     1      47.755   6.184  13.759  0.00  0.00    +0.000 A 
ATOM     20  C   UNL     1      47.183   5.191  14.558  0.00  0.00    +0.000 A 
BRANCH  15  22
ATOM     21  N   UNL     1      46.682   3.086  17.334  0.00  0.00    +0.000 NA
ATOM     22  C   UNL     1      47.139   3.909  16.653  0.00  0.00    +0.000 C 
ENDBRANCH  15  22
ENDBRANCH  14  19
ENDBRANCH  13  14
ENDBRANCH   1  13
TORSDOF 7
ENDMDL
MODEL 2
REMARK VINA RESULT:    -6.501      1.455      1.775
REMARK INTER + INTRA:         -10.055
REMARK INTER:                  -9.334
REMARK INTRA:                  -0.721
REMARK UNBOUND:                -0.894
REMARK  Name = 
REMARK  7 active torsions:
REMARK  status: ('A' for Active; 'I' for Inactive)
REMARK    1  A    between atoms: C_2  and  C_3
REMARK    2  A    between atoms: C_7  and  S_8
REMARK    3  A    between atoms: S_8  and  C_9
REMARK    4  A    between atoms: C_9  and  C_10
REMARK    5  A    between atoms: C_10  and  C_11
REMARK    6  A    between atoms: C_15  and  O_16
REMARK    7  A    between atoms: O_16  and  C_17
REMARK                            x       y       z     vdW  Elec       q    Type
REMARK                         _______ _______ _______ _____ _____    ______ ____
ROOT
ATOM      1  C   UNL     1      45.458   6.944  11.315  0.00  0.00    +0.000 C 
ENDROOT
BRANCH   1   2
ATOM      2  C   UNL     1      45.056   5.551  10.877  0.00  0.00    +0.000 A 
ATOM      3  C   UNL     1      44.333   4.736  11.751  0.00  0.00    +0.000 A 
ATOM      4  C   UNL     1      43.867   3.487  11.333  0.00  0.00    +0.000 A 
ATOM      5  C   UNL     1      44.118   3.037  10.031  0.00  0.00    +0.000 A 
ATOM      6  C   UNL     1      44.856   3.829   9.155  0.00  0.00    +0.000 A 
ATOM      7  C   UNL     1      45.322   5.081   9.580  0.00  0.00    +0.000 A 
BRANCH   6   8
ATOM      8  O   UNL     1      45.139   3.524   7.844  0.00  0.00    +0.000 OA
BRANCH   8   9
ATOM      9  C   UNL     1      46.499   3.245   7.445  0.00  0.00    +0.000 C 
ATOM     10  C   UNL     1      46.800   3.207   5.927  0.00  0.00    +0.000 C 
ATOM     11  C   UNL     1      47.632   1.934   6.157  0.00  0.00    +0.000 C 
ATOM     12  C   UNL     1      46.886   1.739   7.485  0.00  0.00    +0.000 C 
ENDBRANCH   8   9
ENDBRANCH   6   8
ENDBRANCH   1   2
BRANCH   1  13
ATOM     13  C   UNL     1      45.631   7.094  12.826  0.00  0.00    +0.000 C 
BRANCH  13  14
ATOM     14  S   UNL     1      47.414   7.053  13.242  0.00  0.00    +0.000 S 
BRANCH  14  19
ATOM     15  C   UNL     1      47.992   4.562  16.454  0.00  0.00    +0.000 A 
ATOM     16  C   UNL     1      47.688   3.351  15.849  0.00  0.00    +0.000 A 
ATOM     17  N   UNL     1      47.328   3.239  14.552  0.00  0.00    +0.000 NA
ATOM     18  C   UNL     1      47.269   4.390  13.835  0.00  0.00    +0.000 A 
ATOM     19  C   UNL     1      47.550   5.660  14.344  0.00  0.00    +0.000 A 
ATOM     20  C   UNL     1      47.920   5.726  15.690  0.00  0.00    +0.000 A 
BRANCH  15  22
ATOM     21  N   UNL     1      48.682   4.635  18.948  0.00  0.00    +0.000 NA
ATOM     22  C   UNL     1      48.370   4.606  17.829  0.00  0.00    +0.000 C 
ENDBRANCH  15  22
ENDBRANCH  14  19
ENDBRANCH  13  14
ENDBRANCH   1  13
TORSDOF 7
ENDMDL
MODEL 3
REMARK VINA RESULT:    -6.094      3.093      4.581
REMARK INTER + INTRA:          -9.482
REMARK INTER:                  -8.629
REMARK INTRA:                  -0.854
REMARK UNBOUND:                -0.894
REMARK  Name = 
REMARK  7 active torsions:
REMARK  status: ('A' for Active; 'I' for Inactive)
REMARK    1  A    between atoms: C_2  and  C_3
REMARK    2  A    between atoms: C_7  and  S_8
REMARK    3  A    between atoms: S_8  and  C_9
REMARK    4  A    between atoms: C_9  and  C_10
REMARK    5  A    between atoms: C_10  and  C_11
REMARK    6  A    between atoms: C_15  and  O_16
REMARK    7  A    between atoms: O_16  and  C_17
REMARK                            x       y       z     vdW  Elec       q    Type
REMARK                         _______ _______ _______ _____ _____    ______ ____
ROOT
ATOM      1  C   UNL     1      46.677   5.260  13.413  0.00  0.00    +0.000 C 
ENDROOT
BRANCH   1   2
ATOM      2  C   UNL     1      45.375   4.826  12.772  0.00  0.00    +0.000 A 
ATOM      3  C   UNL     1      44.213   5.565  13.004  0.00  0.00    +0.000 A 
ATOM      4  C   UNL     1      43.024   5.241  12.345  0.00  0.00    +0.000 A 
ATOM      5  C   UNL     1      42.983   4.170  11.443  0.00  0.00    +0.000 A 
ATOM      6  C   UNL     1      44.127   3.410  11.219  0.00  0.00    +0.000 A 
ATOM      7  C   UNL     1      45.318   3.739  11.883  0.00  0.00    +0.000 A 
BRANCH   6   8
ATOM      8  O   UNL     1      44.233   2.361  10.335  0.00  0.00    +0.000 OA
BRANCH   8   9
ATOM      9  C   UNL     1      44.490   2.619   8.937  0.00  0.00    +0.000 C 
ATOM     10  C   UNL     1      45.845   2.138   8.364  0.00  0.00    +0.000 C 
ATOM     11  C   UNL     1      45.982   3.489   7.641  0.00  0.00    +0.000 C 
ATOM     12  C   UNL     1      44.958   4.070   8.626  0.00  0.00    +0.000 C 
ENDBRANCH   8   9
ENDBRANCH   6   8
ENDBRANCH   1   2
BRANCH   1  13
ATOM     13  C   UNL     1      47.413   6.355  12.644  0.00  0.00    +0.000 C 
BRANCH  13  14
ATOM     14  S   UNL     1      47.474   7.878  13.660  0.00  0.00    +0.000 S 
BRANCH  14  19
ATOM     15  C   UNL     1      44.749   9.972  11.413  0.00  0.00    +0.000 A 
ATOM     16  C   UNL     1      45.523  11.083  11.110  0.00  0.00    +0.000 A 
ATOM     17  N   UNL     1      46.796  11.238  11.532  0.00  0.00    +0.000 NA
ATOM     18  C   UNL     1      47.312  10.236  12.289  0.00  0.00    +0.000 A 
ATOM     19  C   UNL     1      46.622   9.079  12.656  0.00  0.00    +0.000 A 
ATOM     20  C   UNL     1      45.309   8.962  12.195  0.00  0.00    +0.000 A 
BRANCH  15  22
ATOM     21  N   UNL     1      42.319   9.800  10.537  0.00  0.00    +0.000 NA
ATOM     22  C   UNL     1      43.410   9.873  10.930  0.00  0.00    +0.000 C 
ENDBRANCH  15  22
ENDBRANCH  14  19
ENDBRANCH  13  14
ENDBRANCH   1  13
TORSDOF 7
ENDMDL
MODEL 4
REMARK VINA RESULT:    -6.001      2.672      3.353
REMARK INTER + INTRA:          -9.352
REMARK INTER:                  -8.940
REMARK INTRA:                  -0.411
REMARK UNBOUND:                -0.894
REMARK  Name = 
REMARK  7 active torsions:
REMARK  status: ('A' for Active; 'I' for Inactive)
REMARK    1  A    between atoms: C_2  and  C_3
REMARK    2  A    between atoms: C_7  and  S_8
REMARK    3  A    between atoms: S_8  and  C_9
REMARK    4  A    between atoms: C_9  and  C_10
REMARK    5  A    between atoms: C_10  and  C_11
REMARK    6  A    between atoms: C_15  and  O_16
REMARK    7  A    between atoms: O_16  and  C_17
REMARK                            x       y       z     vdW  Elec       q    Type
REMARK                         _______ _______ _______ _____ _____    ______ ____
ROOT
ATOM      1  C   UNL     1      46.778   4.898  13.857  0.00  0.00    +0.000 C 
ENDROOT
BRANCH   1   2
ATOM      2  C   UNL     1      45.523   4.708  13.031  0.00  0.00    +0.000 A 
ATOM      3  C   UNL     1      44.509   5.667  13.088  0.00  0.00    +0.000 A 
ATOM      4  C   UNL     1      43.388   5.562  12.261  0.00  0.00    +0.000 A 
ATOM      5  C   UNL     1      43.266   4.493  11.364  0.00  0.00    +0.000 A 
ATOM      6  C   UNL     1      44.257   3.518  11.312  0.00  0.00    +0.000 A 
ATOM      7  C   UNL     1      45.380   3.627  12.145  0.00  0.00    +0.000 A 
BRANCH   6   8
ATOM      8  O   UNL     1      44.280   2.442  10.454  0.00  0.00    +0.000 OA
BRANCH   8   9
ATOM      9  C   UNL     1      44.508   2.650   9.043  0.00  0.00    +0.000 C 
ATOM     10  C   UNL     1      45.734   1.948   8.411  0.00  0.00    +0.000 C 
ATOM     11  C   UNL     1      46.059   3.254   7.667  0.00  0.00    +0.000 C 
ATOM     12  C   UNL     1      45.195   4.001   8.694  0.00  0.00    +0.000 C 
ENDBRANCH   8   9
ENDBRANCH   6   8
ENDBRANCH   1   2
BRANCH   1  13
ATOM     13  C   UNL     1      47.193   3.661  14.649  0.00  0.00    +0.000 C 
BRANCH  13  14
ATOM     14  S   UNL     1      47.118   4.031  16.442  0.00  0.00    +0.000 S 
BRANCH  14  19
ATOM     15  C   UNL     1      50.880   2.821  17.558  0.00  0.00    +0.000 A 
ATOM     16  C   UNL     1      51.462   4.066  17.750  0.00  0.00    +0.000 A 
ATOM     17  N   UNL     1      50.801   5.230  17.569  0.00  0.00    +0.000 NA
ATOM     18  C   UNL     1      49.505   5.140  17.179  0.00  0.00    +0.000 A 
ATOM     19  C   UNL     1      48.823   3.942  16.954  0.00  0.00    +0.000 A 
ATOM     20  C   UNL     1      49.546   2.764  17.155  0.00  0.00    +0.000 A 
BRANCH  15  22
ATOM     21  N   UNL     1      52.253   0.660  17.938  0.00  0.00    +0.000 NA
ATOM     22  C   UNL     1      51.637   1.631  17.772  0.00  0.00    +0.000 C 
ENDBRANCH  15  22
ENDBRANCH  14  19
ENDBRANCH  13  14
ENDBRANCH   1  13
TORSDOF 7
ENDMDL
MODEL 5
REMARK VINA RESULT:    -5.716      2.924      4.032
REMARK INTER + INTRA:          -8.949
REMARK INTER:                  -8.431
REMARK INTRA:                  -0.518
REMARK UNBOUND:                -0.894
REMARK  Name = 
REMARK  7 active torsions:
REMARK  status: ('A' for Active; 'I' for Inactive)
REMARK    1  A    between atoms: C_2  and  C_3
REMARK    2  A    between atoms: C_7  and  S_8
REMARK    3  A    between atoms: S_8  and  C_9
REMARK    4  A    between atoms: C_9  and  C_10
REMARK    5  A    between atoms: C_10  and  C_11
REMARK    6  A    between atoms: C_15  and  O_16
REMARK    7  A    between atoms: O_16  and  C_17
REMARK                            x       y       z     vdW  Elec       q    Type
REMARK                         _______ _______ _______ _____ _____    ______ ____
ROOT
ATOM      1  C   UNL     1      45.363   6.838  11.970  0.00  0.00    +0.000 C 
ENDROOT
BRANCH   1   2
ATOM      2  C   UNL     1      45.072   5.623  11.113  0.00  0.00    +0.000 A 
ATOM      3  C   UNL     1      44.155   4.669  11.560  0.00  0.00    +0.000 A 
ATOM      4  C   UNL     1      43.799   3.593  10.743  0.00  0.00    +0.000 A 
ATOM      5  C   UNL     1      44.357   3.457   9.466  0.00  0.00    +0.000 A 
ATOM      6  C   UNL     1      45.289   4.388   9.016  0.00  0.00    +0.000 A 
ATOM      7  C   UNL     1      45.644   5.466   9.840  0.00  0.00    +0.000 A 
BRANCH   6   8
ATOM      8  O   UNL     1      45.882   4.393   7.774  0.00  0.00    +0.000 OA
BRANCH   8   9
ATOM      9  C   UNL     1      45.966   3.170   7.010  0.00  0.00    +0.000 C 
ATOM     10  C   UNL     1      46.818   2.021   7.601  0.00  0.00    +0.000 C 
ATOM     11  C   UNL     1      47.423   1.794   6.206  0.00  0.00    +0.000 C 
ATOM     12  C   UNL     1      46.981   3.217   5.832  0.00  0.00    +0.000 C 
ENDBRANCH   8   9
ENDBRANCH   6   8
ENDBRANCH   1   2
BRANCH   1  13
ATOM     13  C   UNL     1      46.789   6.888  12.513  0.00  0.00    +0.000 C 
BRANCH  13  14
ATOM     14  S   UNL     1      47.312   8.635  12.692  0.00  0.00    +0.000 S 
BRANCH  14  19
ATOM     15  C   UNL     1      51.154   7.989  11.397  0.00  0.00    +0.000 A 
ATOM     16  C   UNL     1      51.842   8.563  12.456  0.00  0.00    +0.000 A 
ATOM     17  N   UNL     1      51.229   9.122  13.522  0.00  0.00    +0.000 NA
ATOM     18  C   UNL     1      49.872   9.105  13.523  0.00  0.00    +0.000 A 
ATOM     19  C   UNL     1      49.082   8.558  12.509  0.00  0.00    +0.000 A 
ATOM     20  C   UNL     1      49.760   7.990  11.427  0.00  0.00    +0.000 A 
BRANCH  15  22
ATOM     21  N   UNL     1      52.451   6.938   9.418  0.00  0.00    +0.000 NA
ATOM     22  C   UNL     1      51.866   7.412  10.303  0.00  0.00    +0.000 C 
ENDBRANCH  15  22
ENDBRANCH  14  19
ENDBRANCH  13  14
ENDBRANCH   1  13
TORSDOF 7
ENDMDL
MODEL 6
REMARK VINA RESULT:    -5.515      3.664      7.839
REMARK INTER + INTRA:          -8.666
REMARK INTER:                  -8.309
REMARK INTRA:                  -0.357
REMARK UNBOUND:                -0.894
REMARK  Name = 
REMARK  7 active torsions:
REMARK  status: ('A' for Active; 'I' for Inactive)
REMARK    1  A    between atoms: C_2  and  C_3
REMARK    2  A    between atoms: C_7  and  S_8
REMARK    3  A    between atoms: S_8  and  C_9
REMARK    4  A    between atoms: C_9  and  C_10
REMARK    5  A    between atoms: C_10  and  C_11
REMARK    6  A    between atoms: C_15  and  O_16
REMARK    7  A    between atoms: O_16  and  C_17
REMARK                            x       y       z     vdW  Elec       q    Type
REMARK                         _______ _______ _______ _____ _____    ______ ____
ROOT
ATOM      1  C   UNL     1      47.522   6.629  12.696  0.00  0.00    +0.000 C 
ENDROOT
BRANCH   1   2
ATOM      2  C   UNL     1      48.367   6.568  13.952  0.00  0.00    +0.000 A 
ATOM      3  C   UNL     1      49.575   7.266  14.004  0.00  0.00    +0.000 A 
ATOM      4  C   UNL     1      50.321   7.304  15.185  0.00  0.00    +0.000 A 
ATOM      5  C   UNL     1      49.867   6.641  16.332  0.00  0.00    +0.000 A 
ATOM      6  C   UNL     1      48.676   5.922  16.288  0.00  0.00    +0.000 A 
ATOM      7  C   UNL     1      47.931   5.887  15.101  0.00  0.00    +0.000 A 
BRANCH   6   8
ATOM      8  O   UNL     1      48.100   5.261  17.349  0.00  0.00    +0.000 OA
BRANCH   8   9
ATOM      9  C   UNL     1      48.702   4.052  17.859  0.00  0.00    +0.000 C 
ATOM     10  C   UNL     1      50.199   3.816  17.542  0.00  0.00    +0.000 C 
ATOM     11  C   UNL     1      49.865   2.354  17.204  0.00  0.00    +0.000 C 
ATOM     12  C   UNL     1      48.400   2.778  17.019  0.00  0.00    +0.000 C 
ENDBRANCH   8   9
ENDBRANCH   6   8
ENDBRANCH   1   2
BRANCH   1  13
ATOM     13  C   UNL     1      46.142   5.992  12.844  0.00  0.00    +0.000 C 
BRANCH  13  14
ATOM     14  S   UNL     1      45.079   6.509  11.445  0.00  0.00    +0.000 S 
BRANCH  14  19
ATOM     15  C   UNL     1      45.400   3.600   8.565  0.00  0.00    +0.000 A 
ATOM     16  C   UNL     1      44.564   2.645   9.124  0.00  0.00    +0.000 A 
ATOM     17  N   UNL     1      43.917   2.821  10.297  0.00  0.00    +0.000 NA
ATOM     18  C   UNL     1      44.119   4.003  10.932  0.00  0.00    +0.000 A 
ATOM     19  C   UNL     1      44.941   5.030  10.462  0.00  0.00    +0.000 A 
ATOM     20  C   UNL     1      45.588   4.804   9.245  0.00  0.00    +0.000 A 
BRANCH  15  22
ATOM     21  N   UNL     1      46.585   3.142   6.310  0.00  0.00    +0.000 NA
ATOM     22  C   UNL     1      46.050   3.349   7.320  0.00  0.00    +0.000 C 
ENDBRANCH  15  22
ENDBRANCH  14  19
ENDBRANCH  13  14
ENDBRANCH   1  13
TORSDOF 7
ENDMDL
MODEL 7
REMARK VINA RESULT:    -5.404      1.934      2.925
REMARK INTER + INTRA:          -8.510
REMARK INTER:                  -8.154
REMARK INTRA:                  -0.356
REMARK UNBOUND:                -0.894
REMARK  Name = 
REMARK  7 active torsions:
REMARK  status: ('A' for Active; 'I' for Inactive)
REMARK    1  A    between atoms: C_2  and  C_3
REMARK    2  A    between atoms: C_7  and  S_8
REMARK    3  A    between atoms: S_8  and  C_9
REMARK    4  A    between atoms: C_9  and  C_10
REMARK    5  A    between atoms: C_10  and  C_11
REMARK    6  A    between atoms: C_15  and  O_16
REMARK    7  A    between atoms: O_16  and  C_17
REMARK                            x       y       z     vdW  Elec       q    Type
REMARK                         _______ _______ _______ _____ _____    ______ ____
ROOT
ATOM      1  C   UNL     1      45.783   4.815  13.892  0.00  0.00    +0.000 C 
ENDROOT
BRANCH   1   2
ATOM      2  C   UNL     1      44.978   4.737  12.611  0.00  0.00    +0.000 A 
ATOM      3  C   UNL     1      43.583   4.763  12.672  0.00  0.00    +0.000 A 
ATOM      4  C   UNL     1      42.824   4.792  11.500  0.00  0.00    +0.000 A 
ATOM      5  C   UNL     1      43.452   4.796  10.248  0.00  0.00    +0.000 A 
ATOM      6  C   UNL     1      44.841   4.749  10.172  0.00  0.00    +0.000 A 
ATOM      7  C   UNL     1      45.599   4.719  11.351  0.00  0.00    +0.000 A 
BRANCH   6   8
ATOM      8  O   UNL     1      45.582   4.787   9.013  0.00  0.00    +0.000 OA
BRANCH   8   9
ATOM      9  C   UNL     1      45.496   3.700   8.065  0.00  0.00    +0.000 C 
ATOM     10  C   UNL     1      45.690   2.265   8.611  0.00  0.00    +0.000 C 
ATOM     11  C   UNL     1      46.594   1.962   7.404  0.00  0.00    +0.000 C 
ATOM     12  C   UNL     1      46.785   3.475   7.225  0.00  0.00    +0.000 C 
ENDBRANCH   8   9
ENDBRANCH   6   8
ENDBRANCH   1   2
BRANCH   1  13
ATOM     13  C   UNL     1      47.290   4.934  13.673  0.00  0.00    +0.000 C 
BRANCH  13  14
ATOM     14  S   UNL     1      47.986   6.135  14.868  0.00  0.00    +0.000 S 
BRANCH  14  19
ATOM     15  C   UNL     1      49.519   4.494  18.306  0.00  0.00    +0.000 A 
ATOM     16  C   UNL     1      48.610   3.459  18.478  0.00  0.00    +0.000 A 
ATOM     17  N   UNL     1      47.581   3.227  17.635  0.00  0.00    +0.000 NA
ATOM     18  C   UNL     1      47.460   4.068  16.577  0.00  0.00    +0.000 A 
ATOM     19  C   UNL     1      48.313   5.141  16.310  0.00  0.00    +0.000 A 
ATOM     20  C   UNL     1      49.364   5.342  17.209  0.00  0.00    +0.000 A 
BRANCH  15  22
ATOM     21  N   UNL     1      51.459   4.834  19.986  0.00  0.00    +0.000 NA
ATOM     22  C   UNL     1      50.585   4.679  19.235  0.00  0.00    +0.000 C 
ENDBRANCH  15  22
ENDBRANCH  14  19
ENDBRANCH  13  14
ENDBRANCH   1  13
TORSDOF 7
ENDMDL
MODEL 8
REMARK VINA RESULT:    -5.361      2.191      3.859
REMARK INTER + INTRA:          -8.449
REMARK INTER:                  -7.842
REMARK INTRA:                  -0.607
REMARK UNBOUND:                -0.894
REMARK  Name = 
REMARK  7 active torsions:
REMARK  status: ('A' for Active; 'I' for Inactive)
REMARK    1  A    between atoms: C_2  and  C_3
REMARK    2  A    between atoms: C_7  and  S_8
REMARK    3  A    between atoms: S_8  and  C_9
REMARK    4  A    between atoms: C_9  and  C_10
REMARK    5  A    between atoms: C_10  and  C_11
REMARK    6  A    between atoms: C_15  and  O_16
REMARK    7  A    between atoms: O_16  and  C_17
REMARK                            x       y       z     vdW  Elec       q    Type
REMARK                         _______ _______ _______ _____ _____    ______ ____
ROOT
ATOM      1  C   UNL     1      47.919   6.194  14.216  0.00  0.00    +0.000 C 
ENDROOT
BRANCH   1   2
ATOM      2  C   UNL     1      46.816   6.794  13.369  0.00  0.00    +0.000 A 
ATOM      3  C   UNL     1      46.654   8.181  13.331  0.00  0.00    +0.000 A 
ATOM      4  C   UNL     1      45.708   8.760  12.482  0.00  0.00    +0.000 A 
ATOM      5  C   UNL     1      44.909   7.957  11.657  0.00  0.00    +0.000 A 
ATOM      6  C   UNL     1      45.044   6.573  11.701  0.00  0.00    +0.000 A 
ATOM      7  C   UNL     1      45.994   5.996  12.556  0.00  0.00    +0.000 A 
BRANCH   6   8
ATOM      8  O   UNL     1      44.353   5.675  10.920  0.00  0.00    +0.000 OA
BRANCH   8   9
ATOM      9  C   UNL     1      45.067   4.654  10.190  0.00  0.00    +0.000 C 
ATOM     10  C   UNL     1      45.852   5.099   8.932  0.00  0.00    +0.000 C 
ATOM     11  C   UNL     1      45.294   3.873   8.189  0.00  0.00    +0.000 C 
ATOM     12  C   UNL     1      44.178   3.800   9.241  0.00  0.00    +0.000 C 
ENDBRANCH   8   9
ENDBRANCH   6   8
ENDBRANCH   1   2
BRANCH   1  13
ATOM     13  C   UNL     1      48.864   7.227  14.826  0.00  0.00    +0.000 C 
BRANCH  13  14
ATOM     14  S   UNL     1      48.770   7.134  16.653  0.00  0.00    +0.000 S 
BRANCH  14  19
ATOM     15  C   UNL     1      49.241   3.091  17.195  0.00  0.00    +0.000 A 
ATOM     16  C   UNL     1      47.928   2.756  17.494  0.00  0.00    +0.000 A 
ATOM     17  N   UNL     1      46.924   3.658  17.540  0.00  0.00    +0.000 NA
ATOM     18  C   UNL     1      47.252   4.948  17.275  0.00  0.00    +0.000 A 
ATOM     19  C   UNL     1      48.539   5.395  16.967  0.00  0.00    +0.000 A 
ATOM     20  C   UNL     1      49.545   4.426  16.930  0.00  0.00    +0.000 A 
BRANCH  15  22
ATOM     21  N   UNL     1      51.078   1.268  17.137  0.00  0.00    +0.000 NA
ATOM     22  C   UNL     1      50.251   2.084  17.160  0.00  0.00    +0.000 C 
ENDBRANCH  15  22
ENDBRANCH  14  19
ENDBRANCH  13  14
ENDBRANCH   1  13
TORSDOF 7
ENDMDL
MODEL 9
REMARK VINA RESULT:    -5.323      2.437      3.919
REMARK INTER + INTRA:          -8.396
REMARK INTER:                  -7.397
REMARK INTRA:                  -0.999
REMARK UNBOUND:                -0.894
REMARK  Name = 
REMARK  7 active torsions:
REMARK  status: ('A' for Active; 'I' for Inactive)
REMARK    1  A    between atoms: C_2  and  C_3
REMARK    2  A    between atoms: C_7  and  S_8
REMARK    3  A    between atoms: S_8  and  C_9
REMARK    4  A    between atoms: C_9  and  C_10
REMARK    5  A    between atoms: C_10  and  C_11
REMARK    6  A    between atoms: C_15  and  O_16
REMARK    7  A    between atoms: O_16  and  C_17
REMARK                            x       y       z     vdW  Elec       q    Type
REMARK                         _______ _______ _______ _____ _____    ______ ____
ROOT
ATOM      1  C   UNL     1      49.154   7.240  13.194  0.00  0.00    +0.000 C 
ENDROOT
BRANCH   1   2
ATOM      2  C   UNL     1      47.651   7.230  12.999  0.00  0.00    +0.000 A 
ATOM      3  C   UNL     1      47.014   8.371  12.506  0.00  0.00    +0.000 A 
ATOM      4  C   UNL     1      45.645   8.351  12.226  0.00  0.00    +0.000 A 
ATOM      5  C   UNL     1      44.895   7.187  12.436  0.00  0.00    +0.000 A 
ATOM      6  C   UNL     1      45.513   6.050  12.949  0.00  0.00    +0.000 A 
ATOM      7  C   UNL     1      46.886   6.075  13.228  0.00  0.00    +0.000 A 
BRANCH   6   8
ATOM      8  O   UNL     1      44.903   4.835  13.165  0.00  0.00    +0.000 OA
BRANCH   8   9
ATOM      9  C   UNL     1      45.073   3.763  12.213  0.00  0.00    +0.000 C 
ATOM     10  C   UNL     1      44.980   4.125  10.711  0.00  0.00    +0.000 C 
ATOM     11  C   UNL     1      44.107   2.878  10.496  0.00  0.00    +0.000 C 
ATOM     12  C   UNL     1      43.808   2.883  12.002  0.00  0.00    +0.000 C 
ENDBRANCH   8   9
ENDBRANCH   6   8
ENDBRANCH   1   2
BRANCH   1  13
ATOM     13  C   UNL     1      49.640   8.263  14.219  0.00  0.00    +0.000 C 
BRANCH  13  14
ATOM     14  S   UNL     1      50.692   7.425  15.462  0.00  0.00    +0.000 S 
BRANCH  14  19
ATOM     15  C   UNL     1      47.937   5.213  17.554  0.00  0.00    +0.000 A 
ATOM     16  C   UNL     1      47.738   6.070  18.627  0.00  0.00    +0.000 A 
ATOM     17  N   UNL     1      48.371   7.255  18.758  0.00  0.00    +0.000 NA
ATOM     18  C   UNL     1      49.239   7.594  17.770  0.00  0.00    +0.000 A 
ATOM     19  C   UNL     1      49.516   6.807  16.650  0.00  0.00    +0.000 A 
ATOM     20  C   UNL     1      48.837   5.590  16.558  0.00  0.00    +0.000 A 
BRANCH  15  22
ATOM     21  N   UNL     1      46.650   2.970  17.423  0.00  0.00    +0.000 NA
ATOM     22  C   UNL     1      47.230   3.976  17.479  0.00  0.00    +0.000 C 
ENDBRANCH  15  22
ENDBRANCH  14  19
ENDBRANCH  13  14
ENDBRANCH   1  13
TORSDOF 7
ENDMDL
