MODEL 1
REMARK VINA RESULT:    -7.962      0.000      0.000
REMARK INTER + INTRA:         -13.146
REMARK INTER:                 -12.151
REMARK INTRA:                  -0.995
REMARK UNBOUND:                -0.995
REMARK  Name = 
REMARK  11 active torsions:
REMARK  status: ('A' for Active; 'I' for Inactive)
REMARK    1  A    between atoms: C_1  and  C_2
REMARK    2  A    between atoms: C_2  and  O_3
REMARK    3  A    between atoms: O_3  and  C_4
REMARK    4  A    between atoms: C_4  and  C_5
REMARK    5  A    between atoms: C_4  and  C_20
REMARK    6  A    between atoms: C_5  and  N_6
REMARK    7  A    between atoms: C_7  and  C_9
REMARK    8  A    between atoms: N_15  and  C_16
REMARK    9  A    between atoms: C_23  and  O_24
REMARK   10  A    between atoms: O_24  and  C_25
REMARK   11  A    between atoms: C_25  and  C_26
REMARK                            x       y       z     vdW  Elec       q    Type
REMARK                         _______ _______ _______ _____ _____    ______ ____
ROOT
ATOM      1  C   UNL     1      47.379   5.794  13.877  0.00  0.00    +0.000 C 
ENDROOT
BRANCH   1   2
ATOM      2  C   UNL     1      46.497   5.251  12.750  0.00  0.00    +0.000 A 
ATOM      3  C   UNL     1      45.930   3.966  12.839  0.00  0.00    +0.000 A 
ATOM      4  C   UNL     1      45.131   3.455  11.810  0.00  0.00    +0.000 A 
ATOM      5  C   UNL     1      44.865   4.223  10.679  0.00  0.00    +0.000 A 
ATOM      6  C   UNL     1      45.431   5.492  10.570  0.00  0.00    +0.000 A 
ATOM      7  C   UNL     1      46.212   6.006  11.602  0.00  0.00    +0.000 A 
BRANCH   5   8
ATOM      8  O   UNL     1      44.044   3.660   9.745  0.00  0.00    +0.000 OA
BRANCH   8   9
ATOM      9  C   UNL     1      44.361   2.303   9.413  0.00  0.00    +0.000 C 
BRANCH   9  10
ATOM     10  C   UNL     1      45.425   2.269   8.346  0.00  0.00    +0.000 A 
ATOM     11  C   UNL     1      45.617   3.380   7.527  0.00  0.00    +0.000 A 
ATOM     12  C   UNL     1      46.638   3.346   6.584  0.00  0.00    +0.000 A 
ATOM     13  C   UNL     1      47.437   2.215   6.493  0.00  0.00    +0.000 A 
ATOM     14  C   UNL     1      47.186   1.157   7.350  0.00  0.00    +0.000 A 
ATOM     15  N   UNL     1      46.207   1.161   8.277  0.00  0.00    +0.000 NA
ENDBRANCH   9  10
ENDBRANCH   8   9
ENDBRANCH   5   8
ENDBRANCH   1   2
BRANCH   1  16
ATOM     16  O   UNL     1      47.233   7.228  13.878  0.00  0.00    +0.000 OA
BRANCH  16  18
ATOM     17  C   UNL     1      49.019   8.066  12.535  0.00  0.00    +0.000 C 
ATOM     18  C   UNL     1      48.454   7.954  13.938  0.00  0.00    +0.000 C 
ENDBRANCH  16  18
ENDBRANCH   1  16
BRANCH   1  19
ATOM     19  C   UNL     1      47.064   5.190  15.275  0.00  0.00    +0.000 C 
BRANCH  19  20
ATOM     20  N   UNL     1      48.194   5.283  16.183  0.00  0.00    +0.000 N 
ATOM     21  C   UNL     1      48.465   4.344  17.139  0.00  0.00    +0.000 C 
ATOM     22  O   UNL     1      47.712   3.396  17.348  0.00  0.00    +0.000 OA
ATOM     23  H   UNL     1      48.909   5.963  15.928  0.00  0.00    +0.000 HD
BRANCH  21  24
ATOM     24  C   UNL     1      49.682   4.554  17.935  0.00  0.00    +0.000 A 
ATOM     25  C   UNL     1      49.798   5.678  18.741  0.00  0.00    +0.000 A 
ATOM     26  S   UNL     1      51.271   5.751  19.599  0.00  0.00    +0.000 S 
ATOM     27  C   UNL     1      51.787   4.263  18.953  0.00  0.00    +0.000 A 
ATOM     28  N   UNL     1      52.973   3.712  19.320  0.00  0.00    +0.000 NA
ATOM     29  C   UNL     1      53.224   2.570  18.776  0.00  0.00    +0.000 A 
ATOM     30  N   UNL     1      52.409   1.912  17.878  0.00  0.00    +0.000 N 
ATOM     31  C   UNL     1      52.793   0.640  17.308  0.00  0.00    +0.000 C 
ATOM     32  C   UNL     1      51.205   2.465  17.457  0.00  0.00    +0.000 A 
ATOM     33  O   UNL     1      50.487   1.922  16.622  0.00  0.00    +0.000 OA
ATOM     34  C   UNL     1      50.867   3.737  18.068  0.00  0.00    +0.000 A 
ENDBRANCH  21  24
ENDBRANCH  19  20
ENDBRANCH   1  19
TORSDOF 9
ENDMDL
MODEL 2
REMARK VINA RESULT:    -7.832      3.011      4.253
REMARK INTER + INTRA:         -12.948
REMARK INTER:                 -11.658
REMARK INTRA:                  -1.291
REMARK UNBOUND:                -0.995
REMARK  Name = 
REMARK  11 active torsions:
REMARK  status: ('A' for Active; 'I' for Inactive)
REMARK    1  A    between atoms: C_1  and  C_2
REMARK    2  A    between atoms: C_2  and  O_3
REMARK    3  A    between atoms: O_3  and  C_4
REMARK    4  A    between atoms: C_4  and  C_5
REMARK    5  A    between atoms: C_4  and  C_20
REMARK    6  A    between atoms: C_5  and  N_6
REMARK    7  A    between atoms: C_7  and  C_9
REMARK    8  A    between atoms: N_15  and  C_16
REMARK    9  A    between atoms: C_23  and  O_24
REMARK   10  A    between atoms: O_24  and  C_25
REMARK   11  A    between atoms: C_25  and  C_26
REMARK                            x       y       z     vdW  Elec       q    Type
REMARK                         _______ _______ _______ _____ _____    ______ ____
ROOT
ATOM      1  C   UNL     1      46.935   5.503  14.129  0.00  0.00    +0.000 C 
ENDROOT
BRANCH   1   2
ATOM      2  C   UNL     1      46.187   4.952  12.912  0.00  0.00    +0.000 A 
ATOM      3  C   UNL     1      46.011   5.742  11.761  0.00  0.00    +0.000 A 
ATOM      4  C   UNL     1      45.319   5.253  10.647  0.00  0.00    +0.000 A 
ATOM      5  C   UNL     1      44.805   3.959  10.652  0.00  0.00    +0.000 A 
ATOM      6  C   UNL     1      44.957   3.170  11.791  0.00  0.00    +0.000 A 
ATOM      7  C   UNL     1      45.661   3.652  12.892  0.00  0.00    +0.000 A 
BRANCH   5   8
ATOM      8  O   UNL     1      44.179   3.553   9.508  0.00  0.00    +0.000 OA
BRANCH   8   9
ATOM      9  C   UNL     1      44.472   2.208   9.113  0.00  0.00    +0.000 C 
BRANCH   9  10
ATOM     10  C   UNL     1      45.589   2.200   8.101  0.00  0.00    +0.000 A 
ATOM     11  C   UNL     1      45.779   3.305   7.275  0.00  0.00    +0.000 A 
ATOM     12  C   UNL     1      46.847   3.298   6.384  0.00  0.00    +0.000 A 
ATOM     13  C   UNL     1      47.692   2.197   6.351  0.00  0.00    +0.000 A 
ATOM     14  C   UNL     1      47.439   1.143   7.212  0.00  0.00    +0.000 A 
ATOM     15  N   UNL     1      46.415   1.122   8.090  0.00  0.00    +0.000 NA
ENDBRANCH   9  10
ENDBRANCH   8   9
ENDBRANCH   5   8
ENDBRANCH   1   2
BRANCH   1  16
ATOM     16  O   UNL     1      47.635   4.397  14.734  0.00  0.00    +0.000 OA
BRANCH  16  18
ATOM     17  C   UNL     1      48.070   2.929  16.565  0.00  0.00    +0.000 C 
ATOM     18  C   UNL     1      47.282   4.133  16.086  0.00  0.00    +0.000 C 
ENDBRANCH  16  18
ENDBRANCH   1  16
BRANCH   1  19
ATOM     19  C   UNL     1      47.903   6.675  13.800  0.00  0.00    +0.000 C 
BRANCH  19  20
ATOM     20  N   UNL     1      48.095   7.566  14.932  0.00  0.00    +0.000 N 
ATOM     21  C   UNL     1      49.172   7.488  15.770  0.00  0.00    +0.000 C 
ATOM     22  O   UNL     1      50.011   6.596  15.667  0.00  0.00    +0.000 OA
ATOM     23  H   UNL     1      47.508   8.399  14.942  0.00  0.00    +0.000 HD
BRANCH  21  24
ATOM     24  C   UNL     1      49.250   8.502  16.830  0.00  0.00    +0.000 A 
ATOM     25  C   UNL     1      49.725   9.774  16.541  0.00  0.00    +0.000 A 
ATOM     26  S   UNL     1      49.735  10.820  17.888  0.00  0.00    +0.000 S 
ATOM     27  C   UNL     1      49.067   9.621  18.896  0.00  0.00    +0.000 A 
ATOM     28  N   UNL     1      48.774   9.881  20.197  0.00  0.00    +0.000 NA
ATOM     29  C   UNL     1      48.247   8.891  20.835  0.00  0.00    +0.000 A 
ATOM     30  N   UNL     1      47.988   7.643  20.308  0.00  0.00    +0.000 N 
ATOM     31  C   UNL     1      47.410   6.592  21.116  0.00  0.00    +0.000 C 
ATOM     32  C   UNL     1      48.307   7.335  18.990  0.00  0.00    +0.000 A 
ATOM     33  O   UNL     1      48.132   6.218  18.513  0.00  0.00    +0.000 OA
ATOM     34  C   UNL     1      48.875   8.430  18.224  0.00  0.00    +0.000 A 
ENDBRANCH  21  24
ENDBRANCH  19  20
ENDBRANCH   1  19
TORSDOF 9
ENDMDL
MODEL 3
REMARK VINA RESULT:    -7.659      2.386      3.251
REMARK INTER + INTRA:         -12.684
REMARK INTER:                 -11.125
REMARK INTRA:                  -1.559
REMARK UNBOUND:                -0.995
REMARK  Name = 
REMARK  11 active torsions:
REMARK  status: ('A' for Active; 'I' for Inactive)
REMARK    1  A    between atoms: C_1  and  C_2
REMARK    2  A    between atoms: C_2  and  O_3
REMARK    3  A    between atoms: O_3  and  C_4
REMARK    4  A    between atoms: C_4  and  C_5
REMARK    5  A    between atoms: C_4  and  C_20
REMARK    6  A    between atoms: C_5  and  N_6
REMARK    7  A    between atoms: C_7  and  C_9
REMARK    8  A    between atoms: N_15  and  C_16
REMARK    9  A    between atoms: C_23  and  O_24
REMARK   10  A    between atoms: O_24  and  C_25
REMARK   11  A    between atoms: C_25  and  C_26
REMARK                            x       y       z     vdW  Elec       q    Type
REMARK                         _______ _______ _______ _____ _____    ______ ____
ROOT
ATOM      1  C   UNL     1      48.206   7.807  13.011  0.00  0.00    +0.000 C 
ENDROOT
BRANCH   1   2
ATOM      2  C   UNL     1      47.149   6.803  12.544  0.00  0.00    +0.000 A 
ATOM      3  C   UNL     1      46.210   7.158  11.557  0.00  0.00    +0.000 A 
ATOM      4  C   UNL     1      45.233   6.252  11.130  0.00  0.00    +0.000 A 
ATOM      5  C   UNL     1      45.184   4.967  11.665  0.00  0.00    +0.000 A 
ATOM      6  C   UNL     1      46.097   4.606  12.654  0.00  0.00    +0.000 A 
ATOM      7  C   UNL     1      47.080   5.502  13.065  0.00  0.00    +0.000 A 
BRANCH   5   8
ATOM      8  O   UNL     1      44.222   4.139  11.161  0.00  0.00    +0.000 OA
BRANCH   8   9
ATOM      9  C   UNL     1      43.952   4.317   9.766  0.00  0.00    +0.000 C 
BRANCH   9  10
ATOM     10  C   UNL     1      44.985   3.589   8.945  0.00  0.00    +0.000 A 
ATOM     11  C   UNL     1      45.151   2.215   9.105  0.00  0.00    +0.000 A 
ATOM     12  C   UNL     1      46.073   1.555   8.301  0.00  0.00    +0.000 A 
ATOM     13  C   UNL     1      46.792   2.280   7.361  0.00  0.00    +0.000 A 
ATOM     14  C   UNL     1      46.561   3.642   7.259  0.00  0.00    +0.000 A 
ATOM     15  N   UNL     1      45.671   4.310   8.021  0.00  0.00    +0.000 NA
ENDBRANCH   9  10
ENDBRANCH   8   9
ENDBRANCH   5   8
ENDBRANCH   1   2
BRANCH   1  16
ATOM     16  O   UNL     1      48.654   8.526  11.845  0.00  0.00    +0.000 OA
BRANCH  16  18
ATOM     17  C   UNL     1      50.796   7.741  11.144  0.00  0.00    +0.000 C 
ATOM     18  C   UNL     1      50.038   8.855  11.839  0.00  0.00    +0.000 C 
ENDBRANCH  16  18
ENDBRANCH   1  16
BRANCH   1  19
ATOM     19  C   UNL     1      47.711   8.777  14.122  0.00  0.00    +0.000 C 
BRANCH  19  20
ATOM     20  N   UNL     1      47.848   8.207  15.451  0.00  0.00    +0.000 N 
ATOM     21  C   UNL     1      48.904   8.479  16.276  0.00  0.00    +0.000 C 
ATOM     22  O   UNL     1      49.857   9.161  15.906  0.00  0.00    +0.000 OA
ATOM     23  H   UNL     1      47.008   7.775  15.834  0.00  0.00    +0.000 HD
BRANCH  21  24
ATOM     24  C   UNL     1      48.862   7.872  17.613  0.00  0.00    +0.000 A 
ATOM     25  C   UNL     1      48.814   8.680  18.741  0.00  0.00    +0.000 A 
ATOM     26  S   UNL     1      48.760   7.805  20.204  0.00  0.00    +0.000 S 
ATOM     27  C   UNL     1      48.758   6.316  19.380  0.00  0.00    +0.000 A 
ATOM     28  N   UNL     1      48.677   5.140  20.055  0.00  0.00    +0.000 NA
ATOM     29  C   UNL     1      48.657   4.092  19.304  0.00  0.00    +0.000 A 
ATOM     30  N   UNL     1      48.723   4.090  17.926  0.00  0.00    +0.000 N 
ATOM     31  C   UNL     1      48.713   2.854  17.175  0.00  0.00    +0.000 C 
ATOM     32  C   UNL     1      48.840   5.274  17.207  0.00  0.00    +0.000 A 
ATOM     33  O   UNL     1      48.951   5.295  15.985  0.00  0.00    +0.000 OA
ATOM     34  C   UNL     1      48.836   6.483  18.011  0.00  0.00    +0.000 A 
ENDBRANCH  21  24
ENDBRANCH  19  20
ENDBRANCH   1  19
TORSDOF 9
ENDMDL
MODEL 4
REMARK VINA RESULT:    -7.243      2.930      9.469
REMARK INTER + INTRA:         -12.049
REMARK INTER:                 -10.864
REMARK INTRA:                  -1.184
REMARK UNBOUND:                -0.995
REMARK  Name = 
REMARK  11 active torsions:
REMARK  status: ('A' for Active; 'I' for Inactive)
REMARK    1  A    between atoms: C_1  and  C_2
REMARK    2  A    between atoms: C_2  and  O_3
REMARK    3  A    between atoms: O_3  and  C_4
REMARK    4  A    between atoms: C_4  and  C_5
REMARK    5  A    between atoms: C_4  and  C_20
REMARK    6  A    between atoms: C_5  and  N_6
REMARK    7  A    between atoms: C_7  and  C_9
REMARK    8  A    between atoms: N_15  and  C_16
REMARK    9  A    between atoms: C_23  and  O_24
REMARK   10  A    between atoms: O_24  and  C_25
REMARK   11  A    between atoms: C_25  and  C_26
REMARK                            x       y       z     vdW  Elec       q    Type
REMARK                         _______ _______ _______ _____ _____    ______ ____
ROOT
ATOM      1  C   UNL     1      48.254   4.450  18.336  0.00  0.00    +0.000 C 
ENDROOT
BRANCH   1   2
ATOM      2  C   UNL     1      49.627   3.807  18.118  0.00  0.00    +0.000 A 
ATOM      3  C   UNL     1      49.742   2.569  17.458  0.00  0.00    +0.000 A 
ATOM      4  C   UNL     1      50.990   1.967  17.264  0.00  0.00    +0.000 A 
ATOM      5  C   UNL     1      52.151   2.597  17.706  0.00  0.00    +0.000 A 
ATOM      6  C   UNL     1      52.052   3.815  18.375  0.00  0.00    +0.000 A 
ATOM      7  C   UNL     1      50.810   4.422  18.553  0.00  0.00    +0.000 A 
BRANCH   5   8
ATOM      8  O   UNL     1      53.326   1.955  17.438  0.00  0.00    +0.000 OA
BRANCH   8   9
ATOM      9  C   UNL     1      53.910   1.285  18.561  0.00  0.00    +0.000 C 
BRANCH   9  10
ATOM     10  C   UNL     1      54.220  -0.146  18.203  0.00  0.00    +0.000 A 
ATOM     11  C   UNL     1      54.724  -0.447  16.940  0.00  0.00    +0.000 A 
ATOM     12  C   UNL     1      55.052  -1.766  16.648  0.00  0.00    +0.000 A 
ATOM     13  C   UNL     1      54.875  -2.738  17.623  0.00  0.00    +0.000 A 
ATOM     14  C   UNL     1      54.377  -2.354  18.857  0.00  0.00    +0.000 A 
ATOM     15  N   UNL     1      54.054  -1.084  19.171  0.00  0.00    +0.000 NA
ENDBRANCH   9  10
ENDBRANCH   8   9
ENDBRANCH   5   8
ENDBRANCH   1   2
BRANCH   1  16
ATOM     16  O   UNL     1      48.425   5.874  18.193  0.00  0.00    +0.000 OA
BRANCH  16  18
ATOM     17  C   UNL     1      47.718   5.891  20.473  0.00  0.00    +0.000 C 
ATOM     18  C   UNL     1      47.744   6.659  19.165  0.00  0.00    +0.000 C 
ENDBRANCH  16  18
ENDBRANCH   1  16
BRANCH   1  19
ATOM     19  C   UNL     1      47.146   3.912  17.387  0.00  0.00    +0.000 C 
BRANCH  19  20
ATOM     20  N   UNL     1      47.034   4.699  16.171  0.00  0.00    +0.000 N 
ATOM     21  C   UNL     1      47.247   4.182  14.923  0.00  0.00    +0.000 C 
ATOM     22  O   UNL     1      47.636   3.028  14.758  0.00  0.00    +0.000 OA
ATOM     23  H   UNL     1      46.565   5.598  16.269  0.00  0.00    +0.000 HD
BRANCH  21  24
ATOM     24  C   UNL     1      47.032   5.094  13.792  0.00  0.00    +0.000 A 
ATOM     25  C   UNL     1      47.667   6.328  13.765  0.00  0.00    +0.000 A 
ATOM     26  S   UNL     1      47.309   7.247  12.374  0.00  0.00    +0.000 S 
ATOM     27  C   UNL     1      46.326   6.011  11.740  0.00  0.00    +0.000 A 
ATOM     28  N   UNL     1      45.734   6.139  10.524  0.00  0.00    +0.000 NA
ATOM     29  C   UNL     1      45.041   5.115  10.155  0.00  0.00    +0.000 A 
ATOM     30  N   UNL     1      44.862   3.961  10.889  0.00  0.00    +0.000 N 
ATOM     31  C   UNL     1      44.047   2.875  10.392  0.00  0.00    +0.000 C 
ATOM     32  C   UNL     1      45.427   3.812  12.150  0.00  0.00    +0.000 A 
ATOM     33  O   UNL     1      45.241   2.816  12.842  0.00  0.00    +0.000 OA
ATOM     34  C   UNL     1      46.241   4.929  12.593  0.00  0.00    +0.000 A 
ENDBRANCH  21  24
ENDBRANCH  19  20
ENDBRANCH   1  19
TORSDOF 9
ENDMDL
MODEL 5
REMARK VINA RESULT:    -7.221      2.262      3.226
REMARK INTER + INTRA:         -12.016
REMARK INTER:                 -10.790
REMARK INTRA:                  -1.226
REMARK UNBOUND:                -0.995
REMARK  Name = 
REMARK  11 active torsions:
REMARK  status: ('A' for Active; 'I' for Inactive)
REMARK    1  A    between atoms: C_1  and  C_2
REMARK    2  A    between atoms: C_2  and  O_3
REMARK    3  A    between atoms: O_3  and  C_4
REMARK    4  A    between atoms: C_4  and  C_5
REMARK    5  A    between atoms: C_4  and  C_20
REMARK    6  A    between atoms: C_5  and  N_6
REMARK    7  A    between atoms: C_7  and  C_9
REMARK    8  A    between atoms: N_15  and  C_16
REMARK    9  A    between atoms: C_23  and  O_24
REMARK   10  A    between atoms: O_24  and  C_25
REMARK   11  A    between atoms: C_25  and  C_26
REMARK                            x       y       z     vdW  Elec       q    Type
REMARK                         _______ _______ _______ _____ _____    ______ ____
ROOT
ATOM      1  C   UNL     1      46.958   6.072  14.041  0.00  0.00    +0.000 C 
ENDROOT
BRANCH   1   2
ATOM      2  C   UNL     1      46.245   5.561  12.786  0.00  0.00    +0.000 A 
ATOM      3  C   UNL     1      45.460   4.395  12.832  0.00  0.00    +0.000 A 
ATOM      4  C   UNL     1      44.813   3.913  11.688  0.00  0.00    +0.000 A 
ATOM      5  C   UNL     1      44.921   4.595  10.480  0.00  0.00    +0.000 A 
ATOM      6  C   UNL     1      45.708   5.743  10.414  0.00  0.00    +0.000 A 
ATOM      7  C   UNL     1      46.337   6.232  11.557  0.00  0.00    +0.000 A 
BRANCH   5   8
ATOM      8  O   UNL     1      44.225   4.074   9.427  0.00  0.00    +0.000 OA
BRANCH   8   9
ATOM      9  C   UNL     1      44.500   2.696   9.154  0.00  0.00    +0.000 C 
BRANCH   9  10
ATOM     10  C   UNL     1      45.613   2.583   8.142  0.00  0.00    +0.000 A 
ATOM     11  C   UNL     1      46.382   1.424   8.090  0.00  0.00    +0.000 A 
ATOM     12  C   UNL     1      47.369   1.320   7.116  0.00  0.00    +0.000 A 
ATOM     13  C   UNL     1      47.551   2.368   6.224  0.00  0.00    +0.000 A 
ATOM     14  C   UNL     1      46.738   3.482   6.339  0.00  0.00    +0.000 A 
ATOM     15  N   UNL     1      45.770   3.611   7.268  0.00  0.00    +0.000 NA
ENDBRANCH   9  10
ENDBRANCH   8   9
ENDBRANCH   5   8
ENDBRANCH   1   2
BRANCH   1  16
ATOM     16  O   UNL     1      47.808   5.007  14.510  0.00  0.00    +0.000 OA
BRANCH  16  18
ATOM     17  C   UNL     1      47.931   3.086  15.921  0.00  0.00    +0.000 C 
ATOM     18  C   UNL     1      47.516   4.541  15.821  0.00  0.00    +0.000 C 
ENDBRANCH  16  18
ENDBRANCH   1  16
BRANCH   1  19
ATOM     19  C   UNL     1      47.762   7.385  13.822  0.00  0.00    +0.000 C 
BRANCH  19  20
ATOM     20  N   UNL     1      49.181   7.212  14.083  0.00  0.00    +0.000 N 
ATOM     21  C   UNL     1      49.854   7.909  15.048  0.00  0.00    +0.000 C 
ATOM     22  O   UNL     1      49.314   8.798  15.702  0.00  0.00    +0.000 OA
ATOM     23  H   UNL     1      49.607   6.383  13.672  0.00  0.00    +0.000 HD
BRANCH  21  24
ATOM     24  C   UNL     1      51.273   7.572  15.228  0.00  0.00    +0.000 A 
ATOM     25  C   UNL     1      52.237   8.185  14.440  0.00  0.00    +0.000 A 
ATOM     26  S   UNL     1      53.827   7.680  14.795  0.00  0.00    +0.000 S 
ATOM     27  C   UNL     1      53.285   6.655  16.040  0.00  0.00    +0.000 A 
ATOM     28  N   UNL     1      54.162   5.944  16.796  0.00  0.00    +0.000 NA
ATOM     29  C   UNL     1      53.616   5.232  17.722  0.00  0.00    +0.000 A 
ATOM     30  N   UNL     1      52.262   5.141  17.972  0.00  0.00    +0.000 N 
ATOM     31  C   UNL     1      51.748   4.295  19.026  0.00  0.00    +0.000 C 
ATOM     32  C   UNL     1      51.337   5.829  17.195  0.00  0.00    +0.000 A 
ATOM     33  O   UNL     1      50.126   5.725  17.366  0.00  0.00    +0.000 OA
ATOM     34  C   UNL     1      51.910   6.669  16.159  0.00  0.00    +0.000 A 
ENDBRANCH  21  24
ENDBRANCH  19  20
ENDBRANCH   1  19
TORSDOF 9
ENDMDL
MODEL 6
REMARK VINA RESULT:    -7.148      2.071      3.259
REMARK INTER + INTRA:         -11.904
REMARK INTER:                 -10.631
REMARK INTRA:                  -1.273
REMARK UNBOUND:                -0.995
REMARK  Name = 
REMARK  11 active torsions:
REMARK  status: ('A' for Active; 'I' for Inactive)
REMARK    1  A    between atoms: C_1  and  C_2
REMARK    2  A    between atoms: C_2  and  O_3
REMARK    3  A    between atoms: O_3  and  C_4
REMARK    4  A    between atoms: C_4  and  C_5
REMARK    5  A    between atoms: C_4  and  C_20
REMARK    6  A    between atoms: C_5  and  N_6
REMARK    7  A    between atoms: C_7  and  C_9
REMARK    8  A    between atoms: N_15  and  C_16
REMARK    9  A    between atoms: C_23  and  O_24
REMARK   10  A    between atoms: O_24  and  C_25
REMARK   11  A    between atoms: C_25  and  C_26
REMARK                            x       y       z     vdW  Elec       q    Type
REMARK                         _______ _______ _______ _____ _____    ______ ____
ROOT
ATOM      1  C   UNL     1      47.483   6.066  13.741  0.00  0.00    +0.000 C 
ENDROOT
BRANCH   1   2
ATOM      2  C   UNL     1      46.582   5.470  12.656  0.00  0.00    +0.000 A 
ATOM      3  C   UNL     1      45.945   4.230  12.854  0.00  0.00    +0.000 A 
ATOM      4  C   UNL     1      45.129   3.670  11.865  0.00  0.00    +0.000 A 
ATOM      5  C   UNL     1      44.914   4.345  10.666  0.00  0.00    +0.000 A 
ATOM      6  C   UNL     1      45.550   5.566  10.448  0.00  0.00    +0.000 A 
ATOM      7  C   UNL     1      46.349   6.131  11.441  0.00  0.00    +0.000 A 
BRANCH   5   8
ATOM      8  O   UNL     1      44.073   3.743   9.775  0.00  0.00    +0.000 OA
BRANCH   8   9
ATOM      9  C   UNL     1      44.364   4.015   8.400  0.00  0.00    +0.000 C 
BRANCH   9  10
ATOM     10  C   UNL     1      45.445   3.086   7.909  0.00  0.00    +0.000 A 
ATOM     11  C   UNL     1      46.410   3.559   7.022  0.00  0.00    +0.000 A 
ATOM     12  C   UNL     1      47.428   2.701   6.622  0.00  0.00    +0.000 A 
ATOM     13  C   UNL     1      47.457   1.407   7.123  0.00  0.00    +0.000 A 
ATOM     14  C   UNL     1      46.465   1.018   8.008  0.00  0.00    +0.000 A 
ATOM     15  N   UNL     1      45.468   1.828   8.418  0.00  0.00    +0.000 NA
ENDBRANCH   9  10
ENDBRANCH   8   9
ENDBRANCH   5   8
ENDBRANCH   1   2
BRANCH   1  16
ATOM     16  O   UNL     1      47.195   7.477  13.803  0.00  0.00    +0.000 OA
BRANCH  16  18
ATOM     17  C   UNL     1      49.489   7.539  13.145  0.00  0.00    +0.000 C 
ATOM     18  C   UNL     1      48.337   8.324  13.744  0.00  0.00    +0.000 C 
ENDBRANCH  16  18
ENDBRANCH   1  16
BRANCH   1  19
ATOM     19  C   UNL     1      47.326   5.392  15.134  0.00  0.00    +0.000 C 
BRANCH  19  20
ATOM     20  N   UNL     1      48.280   5.905  16.103  0.00  0.00    +0.000 N 
ATOM     21  C   UNL     1      49.052   5.097  16.891  0.00  0.00    +0.000 C 
ATOM     22  O   UNL     1      48.923   3.875  16.890  0.00  0.00    +0.000 OA
ATOM     23  H   UNL     1      48.516   6.892  16.010  0.00  0.00    +0.000 HD
BRANCH  21  24
ATOM     24  C   UNL     1      50.012   5.771  17.776  0.00  0.00    +0.000 A 
ATOM     25  C   UNL     1      51.375   5.618  17.565  0.00  0.00    +0.000 A 
ATOM     26  S   UNL     1      52.337   6.479  18.680  0.00  0.00    +0.000 S 
ATOM     27  C   UNL     1      50.965   7.118  19.457  0.00  0.00    +0.000 A 
ATOM     28  N   UNL     1      51.087   7.989  20.493  0.00  0.00    +0.000 NA
ATOM     29  C   UNL     1      49.966   8.415  20.969  0.00  0.00    +0.000 A 
ATOM     30  N   UNL     1      48.713   8.050  20.522  0.00  0.00    +0.000 N 
ATOM     31  C   UNL     1      47.514   8.573  21.139  0.00  0.00    +0.000 C 
ATOM     32  C   UNL     1      48.555   7.136  19.486  0.00  0.00    +0.000 A 
ATOM     33  O   UNL     1      47.451   6.758  19.105  0.00  0.00    +0.000 OA
ATOM     34  C   UNL     1      49.791   6.653  18.900  0.00  0.00    +0.000 A 
ENDBRANCH  21  24
ENDBRANCH  19  20
ENDBRANCH   1  19
TORSDOF 9
ENDMDL
MODEL 7
REMARK VINA RESULT:    -6.982      3.038      8.852
REMARK INTER + INTRA:         -11.651
REMARK INTER:                 -10.233
REMARK INTRA:                  -1.418
REMARK UNBOUND:                -0.995
REMARK  Name = 
REMARK  11 active torsions:
REMARK  status: ('A' for Active; 'I' for Inactive)
REMARK    1  A    between atoms: C_1  and  C_2
REMARK    2  A    between atoms: C_2  and  O_3
REMARK    3  A    between atoms: O_3  and  C_4
REMARK    4  A    between atoms: C_4  and  C_5
REMARK    5  A    between atoms: C_4  and  C_20
REMARK    6  A    between atoms: C_5  and  N_6
REMARK    7  A    between atoms: C_7  and  C_9
REMARK    8  A    between atoms: N_15  and  C_16
REMARK    9  A    between atoms: C_23  and  O_24
REMARK   10  A    between atoms: O_24  and  C_25
REMARK   11  A    between atoms: C_25  and  C_26
REMARK                            x       y       z     vdW  Elec       q    Type
REMARK                         _______ _______ _______ _____ _____    ______ ____
ROOT
ATOM      1  C   UNL     1      48.610   8.889  12.598  0.00  0.00    +0.000 C 
ENDROOT
BRANCH   1   2
ATOM      2  C   UNL     1      48.825   8.411  14.037  0.00  0.00    +0.000 A 
ATOM      3  C   UNL     1      48.193   9.065  15.111  0.00  0.00    +0.000 A 
ATOM      4  C   UNL     1      48.391   8.644  16.431  0.00  0.00    +0.000 A 
ATOM      5  C   UNL     1      49.207   7.549  16.704  0.00  0.00    +0.000 A 
ATOM      6  C   UNL     1      49.851   6.901  15.652  0.00  0.00    +0.000 A 
ATOM      7  C   UNL     1      49.640   7.310  14.338  0.00  0.00    +0.000 A 
BRANCH   5   8
ATOM      8  O   UNL     1      49.311   7.185  18.016  0.00  0.00    +0.000 OA
BRANCH   8   9
ATOM      9  C   UNL     1      48.258   6.335  18.485  0.00  0.00    +0.000 C 
BRANCH   9  10
ATOM     10  C   UNL     1      48.453   4.936  17.958  0.00  0.00    +0.000 A 
ATOM     11  C   UNL     1      47.447   4.336  17.203  0.00  0.00    +0.000 A 
ATOM     12  C   UNL     1      47.668   3.066  16.684  0.00  0.00    +0.000 A 
ATOM     13  C   UNL     1      48.883   2.439  16.925  0.00  0.00    +0.000 A 
ATOM     14  C   UNL     1      49.834   3.108  17.678  0.00  0.00    +0.000 A 
ATOM     15  N   UNL     1      49.651   4.341  18.191  0.00  0.00    +0.000 NA
ENDBRANCH   9  10
ENDBRANCH   8   9
ENDBRANCH   5   8
ENDBRANCH   1   2
BRANCH   1  16
ATOM     16  O   UNL     1      49.366   8.011  11.741  0.00  0.00    +0.000 OA
BRANCH  16  18
ATOM     17  C   UNL     1      51.397   7.445  10.623  0.00  0.00    +0.000 C 
ATOM     18  C   UNL     1      50.575   8.563  11.235  0.00  0.00    +0.000 C 
ENDBRANCH  16  18
ENDBRANCH   1  16
BRANCH   1  19
ATOM     19  C   UNL     1      47.117   8.954  12.169  0.00  0.00    +0.000 C 
BRANCH  19  20
ATOM     20  N   UNL     1      46.468   7.656  12.235  0.00  0.00    +0.000 N 
ATOM     21  C   UNL     1      45.259   7.394  11.654  0.00  0.00    +0.000 C 
ATOM     22  O   UNL     1      44.598   8.273  11.107  0.00  0.00    +0.000 OA
ATOM     23  H   UNL     1      47.059   6.883  12.538  0.00  0.00    +0.000 HD
BRANCH  21  24
ATOM     24  C   UNL     1      44.769   6.013  11.758  0.00  0.00    +0.000 A 
ATOM     25  C   UNL     1      44.072   5.607  12.888  0.00  0.00    +0.000 A 
ATOM     26  S   UNL     1      43.572   3.977  12.832  0.00  0.00    +0.000 S 
ATOM     27  C   UNL     1      44.235   3.769  11.278  0.00  0.00    +0.000 A 
ATOM     28  N   UNL     1      44.114   2.588  10.617  0.00  0.00    +0.000 NA
ATOM     29  C   UNL     1      44.638   2.579   9.438  0.00  0.00    +0.000 A 
ATOM     30  N   UNL     1      45.293   3.637   8.842  0.00  0.00    +0.000 N 
ATOM     31  C   UNL     1      45.864   3.518   7.519  0.00  0.00    +0.000 C 
ATOM     32  C   UNL     1      45.462   4.847   9.505  0.00  0.00    +0.000 A 
ATOM     33  O   UNL     1      46.083   5.786   9.016  0.00  0.00    +0.000 OA
ATOM     34  C   UNL     1      44.861   4.913  10.825  0.00  0.00    +0.000 A 
ENDBRANCH  21  24
ENDBRANCH  19  20
ENDBRANCH   1  19
TORSDOF 9
ENDMDL
MODEL 8
REMARK VINA RESULT:    -6.959      3.307      5.994
REMARK INTER + INTRA:         -11.616
REMARK INTER:                  -9.731
REMARK INTRA:                  -1.885
REMARK UNBOUND:                -0.995
REMARK  Name = 
REMARK  11 active torsions:
REMARK  status: ('A' for Active; 'I' for Inactive)
REMARK    1  A    between atoms: C_1  and  C_2
REMARK    2  A    between atoms: C_2  and  O_3
REMARK    3  A    between atoms: O_3  and  C_4
REMARK    4  A    between atoms: C_4  and  C_5
REMARK    5  A    between atoms: C_4  and  C_20
REMARK    6  A    between atoms: C_5  and  N_6
REMARK    7  A    between atoms: C_7  and  C_9
REMARK    8  A    between atoms: N_15  and  C_16
REMARK    9  A    between atoms: C_23  and  O_24
REMARK   10  A    between atoms: O_24  and  C_25
REMARK   11  A    between atoms: C_25  and  C_26
REMARK                            x       y       z     vdW  Elec       q    Type
REMARK                         _______ _______ _______ _____ _____    ______ ____
ROOT
ATOM      1  C   UNL     1      44.881   6.098  12.813  0.00  0.00    +0.000 C 
ENDROOT
BRANCH   1   2
ATOM      2  C   UNL     1      46.059   7.030  12.512  0.00  0.00    +0.000 A 
ATOM      3  C   UNL     1      46.083   8.341  13.022  0.00  0.00    +0.000 A 
ATOM      4  C   UNL     1      47.149   9.205  12.744  0.00  0.00    +0.000 A 
ATOM      5  C   UNL     1      48.221   8.772  11.967  0.00  0.00    +0.000 A 
ATOM      6  C   UNL     1      48.203   7.481  11.442  0.00  0.00    +0.000 A 
ATOM      7  C   UNL     1      47.150   6.616  11.734  0.00  0.00    +0.000 A 
BRANCH   5   8
ATOM      8  O   UNL     1      49.233   9.669  11.780  0.00  0.00    +0.000 OA
BRANCH   8   9
ATOM      9  C   UNL     1      50.508   9.240  12.272  0.00  0.00    +0.000 C 
BRANCH   9  10
ATOM     10  C   UNL     1      51.439   8.966  11.118  0.00  0.00    +0.000 A 
ATOM     11  C   UNL     1      51.692   7.652  10.733  0.00  0.00    +0.000 A 
ATOM     12  C   UNL     1      52.513   7.423   9.635  0.00  0.00    +0.000 A 
ATOM     13  C   UNL     1      53.046   8.508   8.952  0.00  0.00    +0.000 A 
ATOM     14  C   UNL     1      52.738   9.783   9.394  0.00  0.00    +0.000 A 
ATOM     15  N   UNL     1      51.943  10.037  10.452  0.00  0.00    +0.000 NA
ENDBRANCH   9  10
ENDBRANCH   8   9
ENDBRANCH   5   8
ENDBRANCH   1   2
BRANCH   1  16
ATOM     16  O   UNL     1      44.071   6.040  11.623  0.00  0.00    +0.000 OA
BRANCH  16  18
ATOM     17  C   UNL     1      44.096   4.457   9.836  0.00  0.00    +0.000 C 
ATOM     18  C   UNL     1      43.640   4.735  11.256  0.00  0.00    +0.000 C 
ENDBRANCH  16  18
ENDBRANCH   1  16
BRANCH   1  19
ATOM     19  C   UNL     1      45.303   4.677  13.283  0.00  0.00    +0.000 C 
BRANCH  19  20
ATOM     20  N   UNL     1      45.987   4.702  14.565  0.00  0.00    +0.000 N 
ATOM     21  C   UNL     1      47.072   3.921  14.849  0.00  0.00    +0.000 C 
ATOM     22  O   UNL     1      47.489   3.077  14.058  0.00  0.00    +0.000 OA
ATOM     23  H   UNL     1      45.764   5.492  15.168  0.00  0.00    +0.000 HD
BRANCH  21  24
ATOM     24  C   UNL     1      47.686   4.110  16.170  0.00  0.00    +0.000 A 
ATOM     25  C   UNL     1      47.546   3.134  17.147  0.00  0.00    +0.000 A 
ATOM     26  S   UNL     1      48.332   3.519  18.611  0.00  0.00    +0.000 S 
ATOM     27  C   UNL     1      48.921   4.984  17.976  0.00  0.00    +0.000 A 
ATOM     28  N   UNL     1      49.723   5.797  18.714  0.00  0.00    +0.000 NA
ATOM     29  C   UNL     1      50.119   6.859  18.099  0.00  0.00    +0.000 A 
ATOM     30  N   UNL     1      49.784   7.211  16.807  0.00  0.00    +0.000 N 
ATOM     31  C   UNL     1      50.267   8.438  16.215  0.00  0.00    +0.000 C 
ATOM     32  C   UNL     1      48.940   6.418  16.039  0.00  0.00    +0.000 A 
ATOM     33  O   UNL     1      48.588   6.735  14.906  0.00  0.00    +0.000 OA
ATOM     34  C   UNL     1      48.494   5.195  16.681  0.00  0.00    +0.000 A 
ENDBRANCH  21  24
ENDBRANCH  19  20
ENDBRANCH   1  19
TORSDOF 9
ENDMDL
MODEL 9
REMARK VINA RESULT:    -6.832      2.737      9.006
REMARK INTER + INTRA:         -11.421
REMARK INTER:                 -10.736
REMARK INTRA:                  -0.686
REMARK UNBOUND:                -0.995
REMARK  Name = 
REMARK  11 active torsions:
REMARK  status: ('A' for Active; 'I' for Inactive)
REMARK    1  A    between atoms: C_1  and  C_2
REMARK    2  A    between atoms: C_2  and  O_3
REMARK    3  A    between atoms: O_3  and  C_4
REMARK    4  A    between atoms: C_4  and  C_5
REMARK    5  A    between atoms: C_4  and  C_20
REMARK    6  A    between atoms: C_5  and  N_6
REMARK    7  A    between atoms: C_7  and  C_9
REMARK    8  A    between atoms: N_15  and  C_16
REMARK    9  A    between atoms: C_23  and  O_24
REMARK   10  A    between atoms: O_24  and  C_25
REMARK   11  A    between atoms: C_25  and  C_26
REMARK                            x       y       z     vdW  Elec       q    Type
REMARK                         _______ _______ _______ _____ _____    ______ ____
ROOT
ATOM      1  C   UNL     1      48.583   7.801  12.807  0.00  0.00    +0.000 C 
ENDROOT
BRANCH   1   2
ATOM      2  C   UNL     1      48.511   7.019  14.122  0.00  0.00    +0.000 A 
ATOM      3  C   UNL     1      47.804   5.805  14.195  0.00  0.00    +0.000 A 
ATOM      4  C   UNL     1      47.722   5.087  15.394  0.00  0.00    +0.000 A 
ATOM      5  C   UNL     1      48.361   5.557  16.539  0.00  0.00    +0.000 A 
ATOM      6  C   UNL     1      49.052   6.765  16.486  0.00  0.00    +0.000 A 
ATOM      7  C   UNL     1      49.148   7.470  15.287  0.00  0.00    +0.000 A 
BRANCH   5   8
ATOM      8  O   UNL     1      48.260   4.772  17.652  0.00  0.00    +0.000 OA
BRANCH   8   9
ATOM      9  C   UNL     1      48.468   3.375  17.418  0.00  0.00    +0.000 C 
BRANCH   9  10
ATOM     10  C   UNL     1      49.914   3.023  17.655  0.00  0.00    +0.000 A 
ATOM     11  C   UNL     1      50.407   1.798  17.213  0.00  0.00    +0.000 A 
ATOM     12  C   UNL     1      51.756   1.514  17.396  0.00  0.00    +0.000 A 
ATOM     13  C   UNL     1      52.569   2.461  18.004  0.00  0.00    +0.000 A 
ATOM     14  C   UNL     1      52.002   3.658  18.407  0.00  0.00    +0.000 A 
ATOM     15  N   UNL     1      50.700   3.964  18.240  0.00  0.00    +0.000 NA
ENDBRANCH   9  10
ENDBRANCH   8   9
ENDBRANCH   5   8
ENDBRANCH   1   2
BRANCH   1  16
ATOM     16  O   UNL     1      49.545   7.132  11.967  0.00  0.00    +0.000 OA
BRANCH  16  18
ATOM     17  C   UNL     1      50.426   9.350  12.007  0.00  0.00    +0.000 C 
ATOM     18  C   UNL     1      50.490   7.989  11.339  0.00  0.00    +0.000 C 
ENDBRANCH  16  18
ENDBRANCH   1  16
BRANCH   1  19
ATOM     19  C   UNL     1      47.213   7.958  12.088  0.00  0.00    +0.000 C 
BRANCH  19  20
ATOM     20  N   UNL     1      46.545   6.682  11.892  0.00  0.00    +0.000 N 
ATOM     21  C   UNL     1      45.212   6.572  11.610  0.00  0.00    +0.000 C 
ATOM     22  O   UNL     1      44.471   7.551  11.589  0.00  0.00    +0.000 OA
ATOM     23  H   UNL     1      47.158   5.881  11.748  0.00  0.00    +0.000 HD
BRANCH  21  24
ATOM     24  C   UNL     1      44.703   5.213  11.378  0.00  0.00    +0.000 A 
ATOM     25  C   UNL     1      43.878   4.612  12.319  0.00  0.00    +0.000 A 
ATOM     26  S   UNL     1      43.377   3.042  11.879  0.00  0.00    +0.000 S 
ATOM     27  C   UNL     1      44.212   3.128  10.398  0.00  0.00    +0.000 A 
ATOM     28  N   UNL     1      44.159   2.107   9.503  0.00  0.00    +0.000 NA
ATOM     29  C   UNL     1      44.815   2.318   8.412  0.00  0.00    +0.000 A 
ATOM     30  N   UNL     1      45.541   3.454   8.118  0.00  0.00    +0.000 N 
ATOM     31  C   UNL     1      46.259   3.584   6.870  0.00  0.00    +0.000 C 
ATOM     32  C   UNL     1      45.642   4.501   9.027  0.00  0.00    +0.000 A 
ATOM     33  O   UNL     1      46.322   5.499   8.810  0.00  0.00    +0.000 OA
ATOM     34  C   UNL     1      44.894   4.320  10.258  0.00  0.00    +0.000 A 
ENDBRANCH  21  24
ENDBRANCH  19  20
ENDBRANCH   1  19
TORSDOF 9
ENDMDL
