MODEL 1
REMARK VINA RESULT:    -8.360      0.000      0.000
REMARK INTER + INTRA:         -13.819
REMARK INTER:                 -12.759
REMARK INTRA:                  -1.061
REMARK UNBOUND:                -1.061
REMARK  Name = 
REMARK  10 active torsions:
REMARK  status: ('A' for Active; 'I' for Inactive)
REMARK    1  A    between atoms: C_1  and  C_2
REMARK    2  A    between atoms: C_2  and  C_3
REMARK    3  A    between atoms: C_3  and  N_4
REMARK    4  A    between atoms: C_3  and  C_21
REMARK    5  A    between atoms: N_4  and  C_5
REMARK    6  A    between atoms: C_5  and  C_6
REMARK    7  A    between atoms: C_9  and  C_10
REMARK    8  A    between atoms: C_10  and  O_11
REMARK    9  A    between atoms: O_11  and  C_12
REMARK   10  A    between atoms: C_12  and  C_13
REMARK                            x       y       z     vdW  Elec       q    Type
REMARK                         _______ _______ _______ _____ _____    ______ ____
ROOT
ATOM      1  N   UNL     1      48.614   4.770  15.887  0.00  0.00    +0.000 NA
ATOM      2  H   UNL     1      47.928   4.097  15.543  0.00  0.00    +0.000 HD
ENDROOT
BRANCH   1   3
ATOM      3  C   UNL     1      48.540   4.760  17.358  0.00  0.00    +0.000 C 
BRANCH   3   4
ATOM      4  C   UNL     1      49.966   4.449  17.841  0.00  0.00    +0.000 A 
ATOM      5  C   UNL     1      50.732   5.317  18.609  0.00  0.00    +0.000 A 
ATOM      6  S   UNL     1      52.269   4.694  19.015  0.00  0.00    +0.000 S 
ATOM      7  C   UNL     1      51.946   3.227  18.215  0.00  0.00    +0.000 A 
ATOM      8  N   UNL     1      52.857   2.221  18.209  0.00  0.00    +0.000 NA
ATOM      9  C   UNL     1      52.467   1.154  17.597  0.00  0.00    +0.000 A 
ATOM     10  N   UNL     1      51.252   1.007  16.976  0.00  0.00    +0.000 N 
ATOM     11  C   UNL     1      50.302   2.003  16.940  0.00  0.00    +0.000 A 
ATOM     12  O   UNL     1      49.226   1.846  16.371  0.00  0.00    +0.000 OA
ATOM     13  C   UNL     1      50.692   3.218  17.634  0.00  0.00    +0.000 A 
ATOM     14  H   UNL     1      51.013   0.146  16.514  0.00  0.00    +0.000 HD
ENDBRANCH   3   4
BRANCH   3  16
ATOM     15  C   UNL     1      47.265   5.959  19.314  0.00  0.00    +0.000 C 
ATOM     16  C   UNL     1      48.079   6.077  18.034  0.00  0.00    +0.000 C 
ENDBRANCH   3  16
ENDBRANCH   1   3
BRANCH   1  17
ATOM     17  C   UNL     1      48.311   6.047  15.255  0.00  0.00    +0.000 C 
BRANCH  17  18
ATOM     18  C   UNL     1      47.418   5.869  14.048  0.00  0.00    +0.000 A 
ATOM     19  C   UNL     1      46.501   4.814  13.969  0.00  0.00    +0.000 A 
ATOM     20  C   UNL     1      45.683   4.672  12.844  0.00  0.00    +0.000 A 
ATOM     21  C   UNL     1      45.759   5.585  11.782  0.00  0.00    +0.000 A 
ATOM     22  C   UNL     1      46.668   6.645  11.866  0.00  0.00    +0.000 A 
ATOM     23  C   UNL     1      47.490   6.782  12.984  0.00  0.00    +0.000 A 
BRANCH  21  24
ATOM     24  C   UNL     1      44.885   5.420  10.570  0.00  0.00    +0.000 C 
BRANCH  24  25
ATOM     25  O   UNL     1      44.994   4.076  10.120  0.00  0.00    +0.000 OA
BRANCH  25  26
ATOM     26  C   UNL     1      44.661   3.949   8.742  0.00  0.00    +0.000 C 
BRANCH  26  27
ATOM     27  C   UNL     1      45.655   3.042   8.058  0.00  0.00    +0.000 A 
ATOM     28  C   UNL     1      45.808   1.703   8.451  0.00  0.00    +0.000 A 
ATOM     29  C   UNL     1      46.710   0.866   7.792  0.00  0.00    +0.000 A 
ATOM     30  C   UNL     1      47.460   1.355   6.726  0.00  0.00    +0.000 A 
ATOM     31  C   UNL     1      47.307   2.678   6.314  0.00  0.00    +0.000 A 
ATOM     32  C   UNL     1      46.406   3.516   6.973  0.00  0.00    +0.000 A 
ENDBRANCH  26  27
ENDBRANCH  25  26
ENDBRANCH  24  25
ENDBRANCH  21  24
ENDBRANCH  17  18
ENDBRANCH   1  17
TORSDOF 9
ENDMDL
MODEL 2
REMARK VINA RESULT:    -8.100      1.749      2.177
REMARK INTER + INTRA:         -13.422
REMARK INTER:                 -11.984
REMARK INTRA:                  -1.437
REMARK UNBOUND:                -1.061
REMARK  Name = 
REMARK  10 active torsions:
REMARK  status: ('A' for Active; 'I' for Inactive)
REMARK    1  A    between atoms: C_1  and  C_2
REMARK    2  A    between atoms: C_2  and  C_3
REMARK    3  A    between atoms: C_3  and  N_4
REMARK    4  A    between atoms: C_3  and  C_21
REMARK    5  A    between atoms: N_4  and  C_5
REMARK    6  A    between atoms: C_5  and  C_6
REMARK    7  A    between atoms: C_9  and  C_10
REMARK    8  A    between atoms: C_10  and  O_11
REMARK    9  A    between atoms: O_11  and  C_12
REMARK   10  A    between atoms: C_12  and  C_13
REMARK                            x       y       z     vdW  Elec       q    Type
REMARK                         _______ _______ _______ _____ _____    ______ ____
ROOT
ATOM      1  N   UNL     1      48.500   5.994  14.870  0.00  0.00    +0.000 NA
ATOM      2  H   UNL     1      47.625   5.561  15.170  0.00  0.00    +0.000 HD
ENDROOT
BRANCH   1   3
ATOM      3  C   UNL     1      48.908   6.935  15.927  0.00  0.00    +0.000 C 
BRANCH   3   4
ATOM      4  C   UNL     1      50.369   6.585  16.250  0.00  0.00    +0.000 A 
ATOM      5  C   UNL     1      51.457   7.364  15.873  0.00  0.00    +0.000 A 
ATOM      6  S   UNL     1      52.958   6.736  16.389  0.00  0.00    +0.000 S 
ATOM      7  C   UNL     1      52.204   5.426  17.171  0.00  0.00    +0.000 A 
ATOM      8  N   UNL     1      52.933   4.507  17.854  0.00  0.00    +0.000 NA
ATOM      9  C   UNL     1      52.230   3.588  18.426  0.00  0.00    +0.000 A 
ATOM     10  N   UNL     1      50.862   3.497  18.366  0.00  0.00    +0.000 N 
ATOM     11  C   UNL     1      50.080   4.394  17.673  0.00  0.00    +0.000 A 
ATOM     12  O   UNL     1      48.858   4.284  17.631  0.00  0.00    +0.000 OA
ATOM     13  C   UNL     1      50.829   5.458  17.027  0.00  0.00    +0.000 A 
ATOM     14  H   UNL     1      50.377   2.752  18.836  0.00  0.00    +0.000 HD
ENDBRANCH   3   4
BRANCH   3  16
ATOM     15  C   UNL     1      48.259   9.384  16.614  0.00  0.00    +0.000 C 
ATOM     16  C   UNL     1      48.842   8.443  15.570  0.00  0.00    +0.000 C 
ENDBRANCH   3  16
ENDBRANCH   1   3
BRANCH   1  17
ATOM     17  C   UNL     1      48.254   6.590  13.563  0.00  0.00    +0.000 C 
BRANCH  17  18
ATOM     18  C   UNL     1      47.052   5.966  12.889  0.00  0.00    +0.000 A 
ATOM     19  C   UNL     1      46.308   4.956  13.511  0.00  0.00    +0.000 A 
ATOM     20  C   UNL     1      45.200   4.398  12.869  0.00  0.00    +0.000 A 
ATOM     21  C   UNL     1      44.808   4.844  11.598  0.00  0.00    +0.000 A 
ATOM     22  C   UNL     1      45.544   5.859  10.981  0.00  0.00    +0.000 A 
ATOM     23  C   UNL     1      46.656   6.411  11.618  0.00  0.00    +0.000 A 
BRANCH  21  24
ATOM     24  C   UNL     1      43.621   4.231  10.907  0.00  0.00    +0.000 C 
BRANCH  24  25
ATOM     25  O   UNL     1      44.014   3.856   9.593  0.00  0.00    +0.000 OA
BRANCH  25  26
ATOM     26  C   UNL     1      44.583   2.551   9.562  0.00  0.00    +0.000 C 
BRANCH  26  27
ATOM     27  C   UNL     1      45.603   2.464   8.454  0.00  0.00    +0.000 A 
ATOM     28  C   UNL     1      46.267   1.261   8.169  0.00  0.00    +0.000 A 
ATOM     29  C   UNL     1      47.188   1.188   7.122  0.00  0.00    +0.000 A 
ATOM     30  C   UNL     1      47.445   2.311   6.342  0.00  0.00    +0.000 A 
ATOM     31  C   UNL     1      46.780   3.508   6.603  0.00  0.00    +0.000 A 
ATOM     32  C   UNL     1      45.861   3.584   7.650  0.00  0.00    +0.000 A 
ENDBRANCH  26  27
ENDBRANCH  25  26
ENDBRANCH  24  25
ENDBRANCH  21  24
ENDBRANCH  17  18
ENDBRANCH   1  17
TORSDOF 9
ENDMDL
MODEL 3
REMARK VINA RESULT:    -7.849      2.727      3.776
REMARK INTER + INTRA:         -13.039
REMARK INTER:                 -11.771
REMARK INTRA:                  -1.268
REMARK UNBOUND:                -1.061
REMARK  Name = 
REMARK  10 active torsions:
REMARK  status: ('A' for Active; 'I' for Inactive)
REMARK    1  A    between atoms: C_1  and  C_2
REMARK    2  A    between atoms: C_2  and  C_3
REMARK    3  A    between atoms: C_3  and  N_4
REMARK    4  A    between atoms: C_3  and  C_21
REMARK    5  A    between atoms: N_4  and  C_5
REMARK    6  A    between atoms: C_5  and  C_6
REMARK    7  A    between atoms: C_9  and  C_10
REMARK    8  A    between atoms: C_10  and  O_11
REMARK    9  A    between atoms: O_11  and  C_12
REMARK   10  A    between atoms: C_12  and  C_13
REMARK                            x       y       z     vdW  Elec       q    Type
REMARK                         _______ _______ _______ _____ _____    ______ ____
ROOT
ATOM      1  N   UNL     1      48.558   6.028  14.710  0.00  0.00    +0.000 NA
ATOM      2  H   UNL     1      47.763   5.496  15.068  0.00  0.00    +0.000 HD
ENDROOT
BRANCH   1   3
ATOM      3  C   UNL     1      49.060   6.862  15.815  0.00  0.00    +0.000 C 
BRANCH   3   4
ATOM      4  C   UNL     1      48.781   6.061  17.096  0.00  0.00    +0.000 A 
ATOM      5  C   UNL     1      49.032   4.702  17.234  0.00  0.00    +0.000 A 
ATOM      6  S   UNL     1      48.642   4.088  18.778  0.00  0.00    +0.000 S 
ATOM      7  C   UNL     1      48.164   5.625  19.330  0.00  0.00    +0.000 A 
ATOM      8  N   UNL     1      47.743   5.809  20.607  0.00  0.00    +0.000 NA
ATOM      9  C   UNL     1      47.446   7.030  20.899  0.00  0.00    +0.000 A 
ATOM     10  N   UNL     1      47.518   8.084  20.023  0.00  0.00    +0.000 N 
ATOM     11  C   UNL     1      47.923   7.947  18.715  0.00  0.00    +0.000 A 
ATOM     12  O   UNL     1      47.972   8.908  17.951  0.00  0.00    +0.000 OA
ATOM     13  C   UNL     1      48.285   6.589  18.346  0.00  0.00    +0.000 A 
ATOM     14  H   UNL     1      47.269   9.013  20.318  0.00  0.00    +0.000 HD
ENDBRANCH   3   4
BRANCH   3  16
ATOM     15  C   UNL     1      50.990   8.559  16.348  0.00  0.00    +0.000 C 
ATOM     16  C   UNL     1      50.571   7.210  15.784  0.00  0.00    +0.000 C 
ENDBRANCH   3  16
ENDBRANCH   1   3
BRANCH   1  17
ATOM     17  C   UNL     1      48.087   6.758  13.540  0.00  0.00    +0.000 C 
BRANCH  17  18
ATOM     18  C   UNL     1      46.922   6.054  12.880  0.00  0.00    +0.000 A 
ATOM     19  C   UNL     1      46.239   5.015  13.523  0.00  0.00    +0.000 A 
ATOM     20  C   UNL     1      45.163   4.383  12.894  0.00  0.00    +0.000 A 
ATOM     21  C   UNL     1      44.744   4.781  11.617  0.00  0.00    +0.000 A 
ATOM     22  C   UNL     1      45.420   5.826  10.978  0.00  0.00    +0.000 A 
ATOM     23  C   UNL     1      46.499   6.452  11.602  0.00  0.00    +0.000 A 
BRANCH  21  24
ATOM     24  C   UNL     1      43.593   4.088  10.941  0.00  0.00    +0.000 C 
BRANCH  24  25
ATOM     25  O   UNL     1      43.991   3.748   9.619  0.00  0.00    +0.000 OA
BRANCH  25  26
ATOM     26  C   UNL     1      44.617   2.470   9.566  0.00  0.00    +0.000 C 
BRANCH  26  27
ATOM     27  C   UNL     1      45.614   2.436   8.434  0.00  0.00    +0.000 A 
ATOM     28  C   UNL     1      46.305   1.258   8.108  0.00  0.00    +0.000 A 
ATOM     29  C   UNL     1      47.203   1.232   7.040  0.00  0.00    +0.000 A 
ATOM     30  C   UNL     1      47.411   2.378   6.279  0.00  0.00    +0.000 A 
ATOM     31  C   UNL     1      46.719   3.550   6.580  0.00  0.00    +0.000 A 
ATOM     32  C   UNL     1      45.822   3.578   7.648  0.00  0.00    +0.000 A 
ENDBRANCH  26  27
ENDBRANCH  25  26
ENDBRANCH  24  25
ENDBRANCH  21  24
ENDBRANCH  17  18
ENDBRANCH   1  17
TORSDOF 9
ENDMDL
MODEL 4
REMARK VINA RESULT:    -7.549      2.684      3.668
REMARK INTER + INTRA:         -12.581
REMARK INTER:                 -11.395
REMARK INTRA:                  -1.186
REMARK UNBOUND:                -1.061
REMARK  Name = 
REMARK  10 active torsions:
REMARK  status: ('A' for Active; 'I' for Inactive)
REMARK    1  A    between atoms: C_1  and  C_2
REMARK    2  A    between atoms: C_2  and  C_3
REMARK    3  A    between atoms: C_3  and  N_4
REMARK    4  A    between atoms: C_3  and  C_21
REMARK    5  A    between atoms: N_4  and  C_5
REMARK    6  A    between atoms: C_5  and  C_6
REMARK    7  A    between atoms: C_9  and  C_10
REMARK    8  A    between atoms: C_10  and  O_11
REMARK    9  A    between atoms: O_11  and  C_12
REMARK   10  A    between atoms: C_12  and  C_13
REMARK                            x       y       z     vdW  Elec       q    Type
REMARK                         _______ _______ _______ _____ _____    ______ ____
ROOT
ATOM      1  N   UNL     1      49.739   6.649  14.496  0.00  0.00    +0.000 NA
ATOM      2  H   UNL     1      49.039   6.192  15.083  0.00  0.00    +0.000 HD
ENDROOT
BRANCH   1   3
ATOM      3  C   UNL     1      50.546   7.516  15.369  0.00  0.00    +0.000 C 
BRANCH   3   4
ATOM      4  C   UNL     1      49.611   7.931  16.517  0.00  0.00    +0.000 A 
ATOM      5  C   UNL     1      49.322   9.250  16.845  0.00  0.00    +0.000 A 
ATOM      6  S   UNL     1      48.235   9.406  18.152  0.00  0.00    +0.000 S 
ATOM      7  C   UNL     1      48.080   7.717  18.296  0.00  0.00    +0.000 A 
ATOM      8  N   UNL     1      47.254   7.169  19.222  0.00  0.00    +0.000 NA
ATOM      9  C   UNL     1      47.207   5.879  19.197  0.00  0.00    +0.000 A 
ATOM     10  N   UNL     1      47.925   5.087  18.337  0.00  0.00    +0.000 N 
ATOM     11  C   UNL     1      48.787   5.594  17.392  0.00  0.00    +0.000 A 
ATOM     12  O   UNL     1      49.422   4.860  16.639  0.00  0.00    +0.000 OA
ATOM     13  C   UNL     1      48.858   7.044  17.372  0.00  0.00    +0.000 A 
ATOM     14  H   UNL     1      47.841   4.085  18.373  0.00  0.00    +0.000 HD
ENDBRANCH   3   4
BRANCH   3  16
ATOM     15  C   UNL     1      53.117   7.662  15.878  0.00  0.00    +0.000 C 
ATOM     16  C   UNL     1      51.817   6.880  15.990  0.00  0.00    +0.000 C 
ENDBRANCH   3  16
ENDBRANCH   1   3
BRANCH   1  17
ATOM     17  C   UNL     1      49.018   7.332  13.429  0.00  0.00    +0.000 C 
BRANCH  17  18
ATOM     18  C   UNL     1      47.845   6.512  12.941  0.00  0.00    +0.000 A 
ATOM     19  C   UNL     1      47.350   5.432  13.683  0.00  0.00    +0.000 A 
ATOM     20  C   UNL     1      46.262   4.692  13.212  0.00  0.00    +0.000 A 
ATOM     21  C   UNL     1      45.643   5.020  11.997  0.00  0.00    +0.000 A 
ATOM     22  C   UNL     1      46.131   6.104  11.261  0.00  0.00    +0.000 A 
ATOM     23  C   UNL     1      47.222   6.838  11.726  0.00  0.00    +0.000 A 
BRANCH  21  24
ATOM     24  C   UNL     1      44.481   4.211  11.490  0.00  0.00    +0.000 C 
BRANCH  24  25
ATOM     25  O   UNL     1      44.988   3.019  10.904  0.00  0.00    +0.000 OA
BRANCH  25  26
ATOM     26  C   UNL     1      44.363   2.734   9.657  0.00  0.00    +0.000 C 
BRANCH  26  27
ATOM     27  C   UNL     1      45.412   2.574   8.585  0.00  0.00    +0.000 A 
ATOM     28  C   UNL     1      46.031   1.335   8.352  0.00  0.00    +0.000 A 
ATOM     29  C   UNL     1      46.980   1.193   7.338  0.00  0.00    +0.000 A 
ATOM     30  C   UNL     1      47.311   2.283   6.538  0.00  0.00    +0.000 A 
ATOM     31  C   UNL     1      46.693   3.515   6.748  0.00  0.00    +0.000 A 
ATOM     32  C   UNL     1      45.745   3.659   7.762  0.00  0.00    +0.000 A 
ENDBRANCH  26  27
ENDBRANCH  25  26
ENDBRANCH  24  25
ENDBRANCH  21  24
ENDBRANCH  17  18
ENDBRANCH   1  17
TORSDOF 9
ENDMDL
MODEL 5
REMARK VINA RESULT:    -7.305      3.837      4.690
REMARK INTER + INTRA:         -12.209
REMARK INTER:                 -10.787
REMARK INTRA:                  -1.421
REMARK UNBOUND:                -1.061
REMARK  Name = 
REMARK  10 active torsions:
REMARK  status: ('A' for Active; 'I' for Inactive)
REMARK    1  A    between atoms: C_1  and  C_2
REMARK    2  A    between atoms: C_2  and  C_3
REMARK    3  A    between atoms: C_3  and  N_4
REMARK    4  A    between atoms: C_3  and  C_21
REMARK    5  A    between atoms: N_4  and  C_5
REMARK    6  A    between atoms: C_5  and  C_6
REMARK    7  A    between atoms: C_9  and  C_10
REMARK    8  A    between atoms: C_10  and  O_11
REMARK    9  A    between atoms: O_11  and  C_12
REMARK   10  A    between atoms: C_12  and  C_13
REMARK                            x       y       z     vdW  Elec       q    Type
REMARK                         _______ _______ _______ _____ _____    ______ ____
ROOT
ATOM      1  N   UNL     1      49.152   6.644  13.087  0.00  0.00    +0.000 NA
ATOM      2  H   UNL     1      49.988   6.183  13.450  0.00  0.00    +0.000 HD
ENDROOT
BRANCH   1   3
ATOM      3  C   UNL     1      49.430   8.089  13.047  0.00  0.00    +0.000 C 
BRANCH   3   4
ATOM      4  C   UNL     1      50.956   8.219  13.174  0.00  0.00    +0.000 A 
ATOM      5  C   UNL     1      51.808   8.452  12.102  0.00  0.00    +0.000 A 
ATOM      6  S   UNL     1      53.451   8.572  12.549  0.00  0.00    +0.000 S 
ATOM      7  C   UNL     1      53.076   8.359  14.195  0.00  0.00    +0.000 A 
ATOM      8  N   UNL     1      54.048   8.391  15.142  0.00  0.00    +0.000 NA
ATOM      9  C   UNL     1      53.618   8.251  16.351  0.00  0.00    +0.000 A 
ATOM     10  N   UNL     1      52.303   8.068  16.698  0.00  0.00    +0.000 N 
ATOM     11  C   UNL     1      51.284   8.013  15.774  0.00  0.00    +0.000 A 
ATOM     12  O   UNL     1      50.116   7.842  16.114  0.00  0.00    +0.000 OA
ATOM     13  C   UNL     1      51.720   8.184  14.399  0.00  0.00    +0.000 A 
ATOM     14  H   UNL     1      52.038   7.965  17.663  0.00  0.00    +0.000 HD
ENDBRANCH   3   4
BRANCH   3  16
ATOM     15  C   UNL     1      47.872   9.866  11.905  0.00  0.00    +0.000 C 
ATOM     16  C   UNL     1      48.988   8.841  11.765  0.00  0.00    +0.000 C 
ENDBRANCH   3  16
ENDBRANCH   1   3
BRANCH   1  17
ATOM     17  C   UNL     1      48.042   6.244  13.942  0.00  0.00    +0.000 C 
BRANCH  17  18
ATOM     18  C   UNL     1      46.912   5.642  13.138  0.00  0.00    +0.000 A 
ATOM     19  C   UNL     1      46.321   4.426  13.506  0.00  0.00    +0.000 A 
ATOM     20  C   UNL     1      45.276   3.892  12.747  0.00  0.00    +0.000 A 
ATOM     21  C   UNL     1      44.795   4.564  11.614  0.00  0.00    +0.000 A 
ATOM     22  C   UNL     1      45.378   5.782  11.253  0.00  0.00    +0.000 A 
ATOM     23  C   UNL     1      46.427   6.312  12.004  0.00  0.00    +0.000 A 
BRANCH  21  24
ATOM     24  C   UNL     1      43.677   3.977  10.796  0.00  0.00    +0.000 C 
BRANCH  24  25
ATOM     25  O   UNL     1      44.164   3.738   9.482  0.00  0.00    +0.000 OA
BRANCH  25  26
ATOM     26  C   UNL     1      44.697   2.425   9.344  0.00  0.00    +0.000 C 
BRANCH  26  27
ATOM     27  C   UNL     1      45.705   2.397   8.222  0.00  0.00    +0.000 A 
ATOM     28  C   UNL     1      45.947   3.534   7.434  0.00  0.00    +0.000 A 
ATOM     29  C   UNL     1      46.903   3.503   6.416  0.00  0.00    +0.000 A 
ATOM     30  C   UNL     1      47.635   2.343   6.185  0.00  0.00    +0.000 A 
ATOM     31  C   UNL     1      47.417   1.212   6.971  0.00  0.00    +0.000 A 
ATOM     32  C   UNL     1      46.461   1.240   7.986  0.00  0.00    +0.000 A 
ENDBRANCH  26  27
ENDBRANCH  25  26
ENDBRANCH  24  25
ENDBRANCH  21  24
ENDBRANCH  17  18
ENDBRANCH   1  17
TORSDOF 9
ENDMDL
MODEL 6
REMARK VINA RESULT:    -6.898      3.843      8.849
REMARK INTER + INTRA:         -11.588
REMARK INTER:                  -9.857
REMARK INTRA:                  -1.731
REMARK UNBOUND:                -1.061
REMARK  Name = 
REMARK  10 active torsions:
REMARK  status: ('A' for Active; 'I' for Inactive)
REMARK    1  A    between atoms: C_1  and  C_2
REMARK    2  A    between atoms: C_2  and  C_3
REMARK    3  A    between atoms: C_3  and  N_4
REMARK    4  A    between atoms: C_3  and  C_21
REMARK    5  A    between atoms: N_4  and  C_5
REMARK    6  A    between atoms: C_5  and  C_6
REMARK    7  A    between atoms: C_9  and  C_10
REMARK    8  A    between atoms: C_10  and  O_11
REMARK    9  A    between atoms: O_11  and  C_12
REMARK   10  A    between atoms: C_12  and  C_13
REMARK                            x       y       z     vdW  Elec       q    Type
REMARK                         _______ _______ _______ _____ _____    ______ ____
ROOT
ATOM      1  N   UNL     1      47.278   6.707  12.033  0.00  0.00    +0.000 NA
ATOM      2  H   UNL     1      47.818   6.161  11.360  0.00  0.00    +0.000 HD
ENDROOT
BRANCH   1   3
ATOM      3  C   UNL     1      45.958   6.961  11.433  0.00  0.00    +0.000 C 
BRANCH   3   4
ATOM      4  C   UNL     1      45.198   5.628  11.527  0.00  0.00    +0.000 A 
ATOM      5  C   UNL     1      44.459   5.232  12.635  0.00  0.00    +0.000 A 
ATOM      6  S   UNL     1      43.707   3.711  12.445  0.00  0.00    +0.000 S 
ATOM      7  C   UNL     1      44.307   3.550  10.861  0.00  0.00    +0.000 A 
ATOM      8  N   UNL     1      44.000   2.465  10.106  0.00  0.00    +0.000 NA
ATOM      9  C   UNL     1      44.493   2.490   8.913  0.00  0.00    +0.000 A 
ATOM     10  N   UNL     1      45.279   3.497   8.412  0.00  0.00    +0.000 N 
ATOM     11  C   UNL     1      45.631   4.609   9.143  0.00  0.00    +0.000 A 
ATOM     12  O   UNL     1      46.342   5.493   8.670  0.00  0.00    +0.000 OA
ATOM     13  C   UNL     1      45.082   4.632  10.488  0.00  0.00    +0.000 A 
ATOM     14  H   UNL     1      45.632   3.452   7.471  0.00  0.00    +0.000 HD
ENDBRANCH   3   4
BRANCH   3  16
ATOM     15  C   UNL     1      44.301   8.984  11.197  0.00  0.00    +0.000 C 
ATOM     16  C   UNL     1      45.093   8.057  12.108  0.00  0.00    +0.000 C 
ENDBRANCH   3  16
ENDBRANCH   1   3
BRANCH   1  17
ATOM     17  C   UNL     1      48.063   7.895  12.343  0.00  0.00    +0.000 C 
BRANCH  17  18
ATOM     18  C   UNL     1      48.441   7.942  13.807  0.00  0.00    +0.000 A 
ATOM     19  C   UNL     1      49.368   7.044  14.350  0.00  0.00    +0.000 A 
ATOM     20  C   UNL     1      49.704   7.110  15.704  0.00  0.00    +0.000 A 
ATOM     21  C   UNL     1      49.128   8.077  16.540  0.00  0.00    +0.000 A 
ATOM     22  C   UNL     1      48.210   8.981  15.996  0.00  0.00    +0.000 A 
ATOM     23  C   UNL     1      47.868   8.911  14.646  0.00  0.00    +0.000 A 
BRANCH  21  24
ATOM     24  C   UNL     1      49.485   8.135  18.000  0.00  0.00    +0.000 C 
BRANCH  24  25
ATOM     25  O   UNL     1      48.598   7.281  18.711  0.00  0.00    +0.000 OA
BRANCH  25  26
ATOM     26  C   UNL     1      49.256   6.114  19.192  0.00  0.00    +0.000 C 
BRANCH  26  27
ATOM     27  C   UNL     1      48.875   4.926  18.344  0.00  0.00    +0.000 A 
ATOM     28  C   UNL     1      49.770   3.864  18.135  0.00  0.00    +0.000 A 
ATOM     29  C   UNL     1      49.395   2.757  17.372  0.00  0.00    +0.000 A 
ATOM     30  C   UNL     1      48.119   2.693  16.820  0.00  0.00    +0.000 A 
ATOM     31  C   UNL     1      47.214   3.733  17.033  0.00  0.00    +0.000 A 
ATOM     32  C   UNL     1      47.588   4.840  17.795  0.00  0.00    +0.000 A 
ENDBRANCH  26  27
ENDBRANCH  25  26
ENDBRANCH  24  25
ENDBRANCH  21  24
ENDBRANCH  17  18
ENDBRANCH   1  17
TORSDOF 9
ENDMDL
MODEL 7
REMARK VINA RESULT:    -6.601      4.348      8.571
REMARK INTER + INTRA:         -11.135
REMARK INTER:                  -9.142
REMARK INTRA:                  -1.993
REMARK UNBOUND:                -1.061
REMARK  Name = 
REMARK  10 active torsions:
REMARK  status: ('A' for Active; 'I' for Inactive)
REMARK    1  A    between atoms: C_1  and  C_2
REMARK    2  A    between atoms: C_2  and  C_3
REMARK    3  A    between atoms: C_3  and  N_4
REMARK    4  A    between atoms: C_3  and  C_21
REMARK    5  A    between atoms: N_4  and  C_5
REMARK    6  A    between atoms: C_5  and  C_6
REMARK    7  A    between atoms: C_9  and  C_10
REMARK    8  A    between atoms: C_10  and  O_11
REMARK    9  A    between atoms: O_11  and  C_12
REMARK   10  A    between atoms: C_12  and  C_13
REMARK                            x       y       z     vdW  Elec       q    Type
REMARK                         _______ _______ _______ _____ _____    ______ ____
ROOT
ATOM      1  N   UNL     1      46.876   8.245  14.012  0.00  0.00    +0.000 NA
ATOM      2  H   UNL     1      46.563   7.765  14.857  0.00  0.00    +0.000 HD
ENDROOT
BRANCH   1   3
ATOM      3  C   UNL     1      47.244   7.212  13.030  0.00  0.00    +0.000 C 
BRANCH   3   4
ATOM      4  C   UNL     1      45.914   6.673  12.480  0.00  0.00    +0.000 A 
ATOM      5  C   UNL     1      44.963   7.458  11.840  0.00  0.00    +0.000 A 
ATOM      6  S   UNL     1      43.594   6.582  11.317  0.00  0.00    +0.000 S 
ATOM      7  C   UNL     1      44.244   5.117  11.890  0.00  0.00    +0.000 A 
ATOM      8  N   UNL     1      43.577   3.947  11.727  0.00  0.00    +0.000 NA
ATOM      9  C   UNL     1      44.201   2.911  12.177  0.00  0.00    +0.000 A 
ATOM     10  N   UNL     1      45.429   2.942  12.790  0.00  0.00    +0.000 N 
ATOM     11  C   UNL     1      46.137   4.105  12.993  0.00  0.00    +0.000 A 
ATOM     12  O   UNL     1      47.231   4.103  13.551  0.00  0.00    +0.000 OA
ATOM     13  C   UNL     1      45.479   5.296  12.485  0.00  0.00    +0.000 A 
ATOM     14  H   UNL     1      45.859   2.094  13.119  0.00  0.00    +0.000 HD
ENDBRANCH   3   4
BRANCH   3  16
ATOM     15  C   UNL     1      49.585   7.313  11.847  0.00  0.00    +0.000 C 
ATOM     16  C   UNL     1      48.108   7.678  11.829  0.00  0.00    +0.000 C 
ENDBRANCH   3  16
ENDBRANCH   1   3
BRANCH   1  17
ATOM     17  C   UNL     1      47.954   9.142  14.409  0.00  0.00    +0.000 C 
BRANCH  17  18
ATOM     18  C   UNL     1      48.633   8.666  15.674  0.00  0.00    +0.000 A 
ATOM     19  C   UNL     1      48.201   9.089  16.938  0.00  0.00    +0.000 A 
ATOM     20  C   UNL     1      48.843   8.632  18.092  0.00  0.00    +0.000 A 
ATOM     21  C   UNL     1      49.920   7.738  18.008  0.00  0.00    +0.000 A 
ATOM     22  C   UNL     1      50.345   7.308  16.747  0.00  0.00    +0.000 A 
ATOM     23  C   UNL     1      49.710   7.770  15.594  0.00  0.00    +0.000 A 
BRANCH  21  24
ATOM     24  C   UNL     1      50.613   7.259  19.254  0.00  0.00    +0.000 C 
BRANCH  24  25
ATOM     25  O   UNL     1      51.019   5.912  19.048  0.00  0.00    +0.000 OA
BRANCH  25  26
ATOM     26  C   UNL     1      50.117   4.989  19.651  0.00  0.00    +0.000 C 
BRANCH  26  27
ATOM     27  C   UNL     1      49.383   4.219  18.581  0.00  0.00    +0.000 A 
ATOM     28  C   UNL     1      50.011   3.187  17.866  0.00  0.00    +0.000 A 
ATOM     29  C   UNL     1      49.312   2.464  16.899  0.00  0.00    +0.000 A 
ATOM     30  C   UNL     1      47.975   2.755  16.644  0.00  0.00    +0.000 A 
ATOM     31  C   UNL     1      47.334   3.766  17.358  0.00  0.00    +0.000 A 
ATOM     32  C   UNL     1      48.031   4.491  18.325  0.00  0.00    +0.000 A 
ENDBRANCH  26  27
ENDBRANCH  25  26
ENDBRANCH  24  25
ENDBRANCH  21  24
ENDBRANCH  17  18
ENDBRANCH   1  17
TORSDOF 9
ENDMDL
MODEL 8
REMARK VINA RESULT:    -6.587      2.997      4.265
REMARK INTER + INTRA:         -11.113
REMARK INTER:                  -9.478
REMARK INTRA:                  -1.636
REMARK UNBOUND:                -1.061
REMARK  Name = 
REMARK  10 active torsions:
REMARK  status: ('A' for Active; 'I' for Inactive)
REMARK    1  A    between atoms: C_1  and  C_2
REMARK    2  A    between atoms: C_2  and  C_3
REMARK    3  A    between atoms: C_3  and  N_4
REMARK    4  A    between atoms: C_3  and  C_21
REMARK    5  A    between atoms: N_4  and  C_5
REMARK    6  A    between atoms: C_5  and  C_6
REMARK    7  A    between atoms: C_9  and  C_10
REMARK    8  A    between atoms: C_10  and  O_11
REMARK    9  A    between atoms: O_11  and  C_12
REMARK   10  A    between atoms: C_12  and  C_13
REMARK                            x       y       z     vdW  Elec       q    Type
REMARK                         _______ _______ _______ _____ _____    ______ ____
ROOT
ATOM      1  N   UNL     1      48.061   8.751  13.443  0.00  0.00    +0.000 NA
ATOM      2  H   UNL     1      47.955   9.756  13.587  0.00  0.00    +0.000 HD
ENDROOT
BRANCH   1   3
ATOM      3  C   UNL     1      49.504   8.456  13.458  0.00  0.00    +0.000 C 
BRANCH   3   4
ATOM      4  C   UNL     1      49.728   7.558  14.685  0.00  0.00    +0.000 A 
ATOM      5  C   UNL     1      48.730   6.803  15.288  0.00  0.00    +0.000 A 
ATOM      6  S   UNL     1      49.278   5.887  16.620  0.00  0.00    +0.000 S 
ATOM      7  C   UNL     1      50.876   6.434  16.411  0.00  0.00    +0.000 A 
ATOM      8  N   UNL     1      51.875   5.997  17.218  0.00  0.00    +0.000 NA
ATOM      9  C   UNL     1      53.041   6.466  16.924  0.00  0.00    +0.000 A 
ATOM     10  N   UNL     1      53.296   7.346  15.902  0.00  0.00    +0.000 N 
ATOM     11  C   UNL     1      52.315   7.831  15.067  0.00  0.00    +0.000 A 
ATOM     12  O   UNL     1      52.571   8.623  14.164  0.00  0.00    +0.000 OA
ATOM     13  C   UNL     1      50.987   7.315  15.351  0.00  0.00    +0.000 A 
ATOM     14  H   UNL     1      54.231   7.673  15.729  0.00  0.00    +0.000 HD
ENDBRANCH   3   4
BRANCH   3  16
ATOM     15  C   UNL     1      50.872   8.548  11.220  0.00  0.00    +0.000 C 
ATOM     16  C   UNL     1      50.071   7.722  12.215  0.00  0.00    +0.000 C 
ENDBRANCH   3  16
ENDBRANCH   1   3
BRANCH   1  17
ATOM     17  C   UNL     1      47.369   8.424  12.202  0.00  0.00    +0.000 C 
BRANCH  17  18
ATOM     18  C   UNL     1      46.462   7.226  12.374  0.00  0.00    +0.000 A 
ATOM     19  C   UNL     1      46.978   5.929  12.483  0.00  0.00    +0.000 A 
ATOM     20  C   UNL     1      46.119   4.839  12.644  0.00  0.00    +0.000 A 
ATOM     21  C   UNL     1      44.731   5.023  12.709  0.00  0.00    +0.000 A 
ATOM     22  C   UNL     1      44.215   6.320  12.610  0.00  0.00    +0.000 A 
ATOM     23  C   UNL     1      45.072   7.407  12.441  0.00  0.00    +0.000 A 
BRANCH  21  24
ATOM     24  C   UNL     1      43.811   3.844  12.871  0.00  0.00    +0.000 C 
BRANCH  24  25
ATOM     25  O   UNL     1      44.161   2.868  11.899  0.00  0.00    +0.000 OA
BRANCH  25  26
ATOM     26  C   UNL     1      43.577   3.149  10.631  0.00  0.00    +0.000 C 
BRANCH  26  27
ATOM     27  C   UNL     1      44.641   3.123   9.561  0.00  0.00    +0.000 A 
ATOM     28  C   UNL     1      45.146   1.910   9.066  0.00  0.00    +0.000 A 
ATOM     29  C   UNL     1      46.110   1.900   8.056  0.00  0.00    +0.000 A 
ATOM     30  C   UNL     1      46.570   3.100   7.522  0.00  0.00    +0.000 A 
ATOM     31  C   UNL     1      46.066   4.312   7.993  0.00  0.00    +0.000 A 
ATOM     32  C   UNL     1      45.104   4.324   9.003  0.00  0.00    +0.000 A 
ENDBRANCH  26  27
ENDBRANCH  25  26
ENDBRANCH  24  25
ENDBRANCH  21  24
ENDBRANCH  17  18
ENDBRANCH   1  17
TORSDOF 9
ENDMDL
MODEL 9
REMARK VINA RESULT:    -6.549      4.431      8.846
REMARK INTER + INTRA:         -11.055
REMARK INTER:                  -9.143
REMARK INTRA:                  -1.912
REMARK UNBOUND:                -1.061
REMARK  Name = 
REMARK  10 active torsions:
REMARK  status: ('A' for Active; 'I' for Inactive)
REMARK    1  A    between atoms: C_1  and  C_2
REMARK    2  A    between atoms: C_2  and  C_3
REMARK    3  A    between atoms: C_3  and  N_4
REMARK    4  A    between atoms: C_3  and  C_21
REMARK    5  A    between atoms: N_4  and  C_5
REMARK    6  A    between atoms: C_5  and  C_6
REMARK    7  A    between atoms: C_9  and  C_10
REMARK    8  A    between atoms: C_10  and  O_11
REMARK    9  A    between atoms: O_11  and  C_12
REMARK   10  A    between atoms: C_12  and  C_13
REMARK                            x       y       z     vdW  Elec       q    Type
REMARK                         _______ _______ _______ _____ _____    ______ ____
ROOT
ATOM      1  N   UNL     1      47.104   7.917  13.983  0.00  0.00    +0.000 NA
ATOM      2  H   UNL     1      46.707   7.420  14.782  0.00  0.00    +0.000 HD
ENDROOT
BRANCH   1   3
ATOM      3  C   UNL     1      47.738   6.913  13.113  0.00  0.00    +0.000 C 
BRANCH   3   4
ATOM      4  C   UNL     1      46.657   5.853  12.849  0.00  0.00    +0.000 A 
ATOM      5  C   UNL     1      46.781   4.514  13.198  0.00  0.00    +0.000 A 
ATOM      6  S   UNL     1      45.411   3.576  12.800  0.00  0.00    +0.000 S 
ATOM      7  C   UNL     1      44.589   4.935  12.187  0.00  0.00    +0.000 A 
ATOM      8  N   UNL     1      43.325   4.828  11.708  0.00  0.00    +0.000 NA
ATOM      9  C   UNL     1      42.811   5.942  11.308  0.00  0.00    +0.000 A 
ATOM     10  N   UNL     1      43.455   7.154  11.331  0.00  0.00    +0.000 N 
ATOM     11  C   UNL     1      44.742   7.311  11.792  0.00  0.00    +0.000 A 
ATOM     12  O   UNL     1      45.296   8.407  11.796  0.00  0.00    +0.000 OA
ATOM     13  C   UNL     1      45.354   6.084  12.270  0.00  0.00    +0.000 A 
ATOM     14  H   UNL     1      42.993   7.985  11.002  0.00  0.00    +0.000 HD
ENDBRANCH   3   4
BRANCH   3  16
ATOM     15  C   UNL     1      49.752   7.696  11.622  0.00  0.00    +0.000 C 
ATOM     16  C   UNL     1      48.261   7.420  11.743  0.00  0.00    +0.000 C 
ENDBRANCH   3  16
ENDBRANCH   1   3
BRANCH   1  17
ATOM     17  C   UNL     1      47.999   8.935  14.519  0.00  0.00    +0.000 C 
BRANCH  17  18
ATOM     18  C   UNL     1      48.640   8.484  15.812  0.00  0.00    +0.000 A 
ATOM     19  C   UNL     1      49.765   7.651  15.817  0.00  0.00    +0.000 A 
ATOM     20  C   UNL     1      50.342   7.250  17.025  0.00  0.00    +0.000 A 
ATOM     21  C   UNL     1      49.812   7.679  18.250  0.00  0.00    +0.000 A 
ATOM     22  C   UNL     1      48.694   8.520  18.246  0.00  0.00    +0.000 A 
ATOM     23  C   UNL     1      48.113   8.913  17.040  0.00  0.00    +0.000 A 
BRANCH  21  24
ATOM     24  C   UNL     1      50.430   7.235  19.547  0.00  0.00    +0.000 C 
BRANCH  24  25
ATOM     25  O   UNL     1      50.569   5.820  19.513  0.00  0.00    +0.000 OA
BRANCH  25  26
ATOM     26  C   UNL     1      49.359   5.160  19.872  0.00  0.00    +0.000 C 
BRANCH  26  27
ATOM     27  C   UNL     1      48.814   4.410  18.682  0.00  0.00    +0.000 A 
ATOM     28  C   UNL     1      47.595   4.774  18.088  0.00  0.00    +0.000 A 
ATOM     29  C   UNL     1      47.116   4.090  16.970  0.00  0.00    +0.000 A 
ATOM     30  C   UNL     1      47.855   3.044  16.425  0.00  0.00    +0.000 A 
ATOM     31  C   UNL     1      49.075   2.682  16.995  0.00  0.00    +0.000 A 
ATOM     32  C   UNL     1      49.555   3.364  18.113  0.00  0.00    +0.000 A 
ENDBRANCH  26  27
ENDBRANCH  25  26
ENDBRANCH  24  25
ENDBRANCH  21  24
ENDBRANCH  17  18
ENDBRANCH   1  17
TORSDOF 9
ENDMDL
