MODEL 1
REMARK VINA RESULT:    -7.820      0.000      0.000
REMARK INTER + INTRA:         -11.887
REMARK INTER:                 -11.020
REMARK INTRA:                  -0.867
REMARK UNBOUND:                -0.867
REMARK  Name = 
REMARK  8 active torsions:
REMARK  status: ('A' for Active; 'I' for Inactive)
REMARK    1  A    between atoms: N_1  and  C_2
REMARK    2  A    between atoms: C_2  and  C_3
REMARK    3  A    between atoms: C_3  and  C_4
REMARK    4  A    between atoms: C_7  and  O_8
REMARK    5  A    between atoms: O_8  and  C_9
REMARK    6  A    between atoms: C_9  and  C_10
REMARK    7  A    between atoms: C_14  and  S_15
REMARK    8  A    between atoms: S_15  and  N_16
REMARK                            x       y       z     vdW  Elec       q    Type
REMARK                         _______ _______ _______ _____ _____    ______ ____
ROOT
ATOM      1  C   UNL     1      43.335   4.476  11.351  0.00  0.00    +0.000 C 
ENDROOT
BRANCH   1   2
ATOM      2  C   UNL     1      44.471   5.212  12.015  0.00  0.00    +0.000 A 
ATOM      3  C   UNL     1      44.708   6.566  11.740  0.00  0.00    +0.000 A 
ATOM      4  C   UNL     1      45.754   7.247  12.364  0.00  0.00    +0.000 A 
ATOM      5  C   UNL     1      46.568   6.587  13.287  0.00  0.00    +0.000 A 
ATOM      6  C   UNL     1      46.321   5.245  13.578  0.00  0.00    +0.000 A 
ATOM      7  C   UNL     1      45.295   4.548  12.934  0.00  0.00    +0.000 A 
BRANCH   6   8
ATOM      8  S   UNL     1      47.299   4.401  14.795  0.00  0.00    +0.000 S 
ATOM      9  O   UNL     1      47.519   3.050  14.342  0.00  0.00    +0.000 OA
ATOM     10  O   UNL     1      48.366   5.280  15.207  0.00  0.00    +0.000 OA
BRANCH   8  11
ATOM     11  N   UNL     1      46.197   4.326  16.061  0.00  0.00    +0.000 NA
ATOM     12  H   UNL     1      46.419   4.970  16.817  0.00  0.00    +0.000 HD
ATOM     13  H   UNL     1      45.938   3.379  16.325  0.00  0.00    +0.000 HD
ENDBRANCH   8  11
ENDBRANCH   6   8
ENDBRANCH   1   2
BRANCH   1  14
ATOM     14  O   UNL     1      43.455   4.623   9.935  0.00  0.00    +0.000 OA
BRANCH  14  18
ATOM     15  C   UNL     1      46.183   2.206   7.902  0.00  0.00    +0.000 A 
ATOM     16  C   UNL     1      46.170   3.598   7.745  0.00  0.00    +0.000 A 
ATOM     17  C   UNL     1      45.264   4.381   8.466  0.00  0.00    +0.000 A 
ATOM     18  C   UNL     1      44.360   3.782   9.345  0.00  0.00    +0.000 A 
ATOM     19  C   UNL     1      44.422   2.404   9.560  0.00  0.00    +0.000 A 
ATOM     20  C   UNL     1      45.321   1.621   8.835  0.00  0.00    +0.000 A 
BRANCH  15  21
ATOM     21  C   UNL     1      47.104   1.339   7.082  0.00  0.00    +0.000 C 
BRANCH  21  22
ATOM     22  C   UNL     1      48.337   2.101   6.595  0.00  0.00    +0.000 C 
BRANCH  22  23
ATOM     23  N   UNL     1      48.343   2.192   5.135  0.00  0.00    +0.000 NA
ATOM     24  H   UNL     1      49.275   1.970   4.788  0.00  0.00    +0.000 HD
ATOM     25  H   UNL     1      48.156   3.154   4.852  0.00  0.00    +0.000 HD
ENDBRANCH  22  23
ENDBRANCH  21  22
ENDBRANCH  15  21
ENDBRANCH  14  18
ENDBRANCH   1  14
TORSDOF 8
ENDMDL
MODEL 2
REMARK VINA RESULT:    -7.667      0.604      1.214
REMARK INTER + INTRA:         -11.672
REMARK INTER:                 -10.953
REMARK INTRA:                  -0.719
REMARK UNBOUND:                -0.867
REMARK  Name = 
REMARK  8 active torsions:
REMARK  status: ('A' for Active; 'I' for Inactive)
REMARK    1  A    between atoms: N_1  and  C_2
REMARK    2  A    between atoms: C_2  and  C_3
REMARK    3  A    between atoms: C_3  and  C_4
REMARK    4  A    between atoms: C_7  and  O_8
REMARK    5  A    between atoms: O_8  and  C_9
REMARK    6  A    between atoms: C_9  and  C_10
REMARK    7  A    between atoms: C_14  and  S_15
REMARK    8  A    between atoms: S_15  and  N_16
REMARK                            x       y       z     vdW  Elec       q    Type
REMARK                         _______ _______ _______ _____ _____    ______ ____
ROOT
ATOM      1  C   UNL     1      43.898   4.316  11.695  0.00  0.00    +0.000 C 
ENDROOT
BRANCH   1   2
ATOM      2  C   UNL     1      45.124   4.946  12.303  0.00  0.00    +0.000 A 
ATOM      3  C   UNL     1      45.614   6.170  11.825  0.00  0.00    +0.000 A 
ATOM      4  C   UNL     1      46.745   6.756  12.398  0.00  0.00    +0.000 A 
ATOM      5  C   UNL     1      47.390   6.136  13.469  0.00  0.00    +0.000 A 
ATOM      6  C   UNL     1      46.891   4.929  13.961  0.00  0.00    +0.000 A 
ATOM      7  C   UNL     1      45.779   4.320  13.372  0.00  0.00    +0.000 A 
BRANCH   6   8
ATOM      8  S   UNL     1      47.653   4.152  15.362  0.00  0.00    +0.000 S 
ATOM      9  O   UNL     1      47.910   2.772  15.031  0.00  0.00    +0.000 OA
ATOM     10  O   UNL     1      48.664   5.042  15.879  0.00  0.00    +0.000 OA
BRANCH   8  11
ATOM     11  N   UNL     1      46.370   4.171  16.446  0.00  0.00    +0.000 NA
ATOM     12  H   UNL     1      46.539   4.776  17.247  0.00  0.00    +0.000 HD
ATOM     13  H   UNL     1      45.979   3.252  16.637  0.00  0.00    +0.000 HD
ENDBRANCH   8  11
ENDBRANCH   6   8
ENDBRANCH   1   2
BRANCH   1  14
ATOM     14  O   UNL     1      43.818   4.694  10.319  0.00  0.00    +0.000 OA
BRANCH  14  18
ATOM     15  C   UNL     1      46.166   2.194   7.942  0.00  0.00    +0.000 A 
ATOM     16  C   UNL     1      45.241   1.682   8.861  0.00  0.00    +0.000 A 
ATOM     17  C   UNL     1      44.447   2.549   9.619  0.00  0.00    +0.000 A 
ATOM     18  C   UNL     1      44.573   3.931   9.469  0.00  0.00    +0.000 A 
ATOM     19  C   UNL     1      45.439   4.440   8.500  0.00  0.00    +0.000 A 
ATOM     20  C   UNL     1      46.237   3.577   7.749  0.00  0.00    +0.000 A 
BRANCH  15  21
ATOM     21  C   UNL     1      47.080   1.279   7.167  0.00  0.00    +0.000 C 
BRANCH  21  22
ATOM     22  C   UNL     1      48.337   1.997   6.673  0.00  0.00    +0.000 C 
BRANCH  22  23
ATOM     23  N   UNL     1      48.366   2.037   5.211  0.00  0.00    +0.000 NA
ATOM     24  H   UNL     1      49.049   2.729   4.907  0.00  0.00    +0.000 HD
ATOM     25  H   UNL     1      47.463   2.356   4.860  0.00  0.00    +0.000 HD
ENDBRANCH  22  23
ENDBRANCH  21  22
ENDBRANCH  15  21
ENDBRANCH  14  18
ENDBRANCH   1  14
TORSDOF 8
ENDMDL
MODEL 3
REMARK VINA RESULT:    -7.533      2.278      2.617
REMARK INTER + INTRA:         -11.483
REMARK INTER:                 -10.688
REMARK INTRA:                  -0.795
REMARK UNBOUND:                -0.867
REMARK  Name = 
REMARK  8 active torsions:
REMARK  status: ('A' for Active; 'I' for Inactive)
REMARK    1  A    between atoms: N_1  and  C_2
REMARK    2  A    between atoms: C_2  and  C_3
REMARK    3  A    between atoms: C_3  and  C_4
REMARK    4  A    between atoms: C_7  and  O_8
REMARK    5  A    between atoms: O_8  and  C_9
REMARK    6  A    between atoms: C_9  and  C_10
REMARK    7  A    between atoms: C_14  and  S_15
REMARK    8  A    between atoms: S_15  and  N_16
REMARK                            x       y       z     vdW  Elec       q    Type
REMARK                         _______ _______ _______ _____ _____    ______ ____
ROOT
ATOM      1  C   UNL     1      43.315   4.638  11.842  0.00  0.00    +0.000 C 
ENDROOT
BRANCH   1   2
ATOM      2  C   UNL     1      44.615   5.102  12.446  0.00  0.00    +0.000 A 
ATOM      3  C   UNL     1      45.500   4.188  13.035  0.00  0.00    +0.000 A 
ATOM      4  C   UNL     1      46.708   4.620  13.585  0.00  0.00    +0.000 A 
ATOM      5  C   UNL     1      47.057   5.971  13.537  0.00  0.00    +0.000 A 
ATOM      6  C   UNL     1      46.187   6.880  12.932  0.00  0.00    +0.000 A 
ATOM      7  C   UNL     1      44.961   6.459  12.408  0.00  0.00    +0.000 A 
BRANCH   6   8
ATOM      8  S   UNL     1      46.635   8.591  12.800  0.00  0.00    +0.000 S 
ATOM      9  O   UNL     1      47.864   8.681  12.051  0.00  0.00    +0.000 OA
ATOM     10  O   UNL     1      45.452   9.346  12.469  0.00  0.00    +0.000 OA
BRANCH   8  11
ATOM     11  N   UNL     1      47.007   8.924  14.404  0.00  0.00    +0.000 NA
ATOM     12  H   UNL     1      46.364   8.484  15.058  0.00  0.00    +0.000 HD
ATOM     13  H   UNL     1      47.245   9.898  14.578  0.00  0.00    +0.000 HD
ENDBRANCH   8  11
ENDBRANCH   6   8
ENDBRANCH   1   2
BRANCH   1  14
ATOM     14  O   UNL     1      43.366   4.835  10.427  0.00  0.00    +0.000 OA
BRANCH  14  18
ATOM     15  C   UNL     1      45.945   2.451   8.176  0.00  0.00    +0.000 A 
ATOM     16  C   UNL     1      45.988   3.849   8.110  0.00  0.00    +0.000 A 
ATOM     17  C   UNL     1      45.130   4.619   8.902  0.00  0.00    +0.000 A 
ATOM     18  C   UNL     1      44.222   3.999   9.762  0.00  0.00    +0.000 A 
ATOM     19  C   UNL     1      44.232   2.610   9.885  0.00  0.00    +0.000 A 
ATOM     20  C   UNL     1      45.081   1.840   9.090  0.00  0.00    +0.000 A 
BRANCH  15  21
ATOM     21  C   UNL     1      46.811   1.603   7.279  0.00  0.00    +0.000 C 
BRANCH  21  22
ATOM     22  C   UNL     1      48.042   2.359   6.775  0.00  0.00    +0.000 C 
BRANCH  22  23
ATOM     23  N   UNL     1      48.421   1.898   5.440  0.00  0.00    +0.000 NA
ATOM     24  H   UNL     1      47.833   1.109   5.178  0.00  0.00    +0.000 HD
ATOM     25  H   UNL     1      49.378   1.546   5.459  0.00  0.00    +0.000 HD
ENDBRANCH  22  23
ENDBRANCH  21  22
ENDBRANCH  15  21
ENDBRANCH  14  18
ENDBRANCH   1  14
TORSDOF 8
ENDMDL
MODEL 4
REMARK VINA RESULT:    -7.404      1.231      1.723
REMARK INTER + INTRA:         -11.301
REMARK INTER:                 -10.463
REMARK INTRA:                  -0.838
REMARK UNBOUND:                -0.867
REMARK  Name = 
REMARK  8 active torsions:
REMARK  status: ('A' for Active; 'I' for Inactive)
REMARK    1  A    between atoms: N_1  and  C_2
REMARK    2  A    between atoms: C_2  and  C_3
REMARK    3  A    between atoms: C_3  and  C_4
REMARK    4  A    between atoms: C_7  and  O_8
REMARK    5  A    between atoms: O_8  and  C_9
REMARK    6  A    between atoms: C_9  and  C_10
REMARK    7  A    between atoms: C_14  and  S_15
REMARK    8  A    between atoms: S_15  and  N_16
REMARK                            x       y       z     vdW  Elec       q    Type
REMARK                         _______ _______ _______ _____ _____    ______ ____
ROOT
ATOM      1  C   UNL     1      43.678   4.731  11.511  0.00  0.00    +0.000 C 
ENDROOT
BRANCH   1   2
ATOM      2  C   UNL     1      44.625   5.852  11.852  0.00  0.00    +0.000 A 
ATOM      3  C   UNL     1      44.355   7.168  11.451  0.00  0.00    +0.000 A 
ATOM      4  C   UNL     1      45.230   8.205  11.778  0.00  0.00    +0.000 A 
ATOM      5  C   UNL     1      46.378   7.944  12.526  0.00  0.00    +0.000 A 
ATOM      6  C   UNL     1      46.639   6.638  12.945  0.00  0.00    +0.000 A 
ATOM      7  C   UNL     1      45.784   5.589  12.595  0.00  0.00    +0.000 A 
BRANCH   6   8
ATOM      8  S   UNL     1      48.058   6.290  13.951  0.00  0.00    +0.000 S 
ATOM      9  O   UNL     1      47.840   5.032  14.623  0.00  0.00    +0.000 OA
ATOM     10  O   UNL     1      49.242   6.578  13.181  0.00  0.00    +0.000 OA
BRANCH   8  11
ATOM     11  N   UNL     1      47.906   7.501  15.106  0.00  0.00    +0.000 NA
ATOM     12  H   UNL     1      47.676   8.406  14.701  0.00  0.00    +0.000 HD
ATOM     13  H   UNL     1      48.635   7.486  15.815  0.00  0.00    +0.000 HD
ENDBRANCH   8  11
ENDBRANCH   6   8
ENDBRANCH   1   2
BRANCH   1  14
ATOM     14  O   UNL     1      43.426   4.750  10.104  0.00  0.00    +0.000 OA
BRANCH  14  18
ATOM     15  C   UNL     1      46.096   2.283   8.056  0.00  0.00    +0.000 A 
ATOM     16  C   UNL     1      45.167   1.767   8.969  0.00  0.00    +0.000 A 
ATOM     17  C   UNL     1      44.266   2.618   9.614  0.00  0.00    +0.000 A 
ATOM     18  C   UNL     1      44.286   3.990   9.357  0.00  0.00    +0.000 A 
ATOM     19  C   UNL     1      45.158   4.494   8.391  0.00  0.00    +0.000 A 
ATOM     20  C   UNL     1      46.064   3.648   7.753  0.00  0.00    +0.000 A 
BRANCH  15  21
ATOM     21  C   UNL     1      47.122   1.392   7.403  0.00  0.00    +0.000 C 
BRANCH  21  22
ATOM     22  C   UNL     1      48.268   2.188   6.775  0.00  0.00    +0.000 C 
BRANCH  22  23
ATOM     23  N   UNL     1      48.406   1.861   5.357  0.00  0.00    +0.000 NA
ATOM     24  H   UNL     1      47.515   2.015   4.887  0.00  0.00    +0.000 HD
ATOM     25  H   UNL     1      48.614   0.867   5.254  0.00  0.00    +0.000 HD
ENDBRANCH  22  23
ENDBRANCH  21  22
ENDBRANCH  15  21
ENDBRANCH  14  18
ENDBRANCH   1  14
TORSDOF 8
ENDMDL
MODEL 5
REMARK VINA RESULT:    -6.556      3.316      4.206
REMARK INTER + INTRA:         -10.106
REMARK INTER:                  -9.560
REMARK INTRA:                  -0.546
REMARK UNBOUND:                -0.867
REMARK  Name = 
REMARK  8 active torsions:
REMARK  status: ('A' for Active; 'I' for Inactive)
REMARK    1  A    between atoms: N_1  and  C_2
REMARK    2  A    between atoms: C_2  and  C_3
REMARK    3  A    between atoms: C_3  and  C_4
REMARK    4  A    between atoms: C_7  and  O_8
REMARK    5  A    between atoms: O_8  and  C_9
REMARK    6  A    between atoms: C_9  and  C_10
REMARK    7  A    between atoms: C_14  and  S_15
REMARK    8  A    between atoms: S_15  and  N_16
REMARK                            x       y       z     vdW  Elec       q    Type
REMARK                         _______ _______ _______ _____ _____    ______ ____
ROOT
ATOM      1  C   UNL     1      45.922   5.286  12.295  0.00  0.00    +0.000 C 
ENDROOT
BRANCH   1   2
ATOM      2  C   UNL     1      46.169   6.771  12.222  0.00  0.00    +0.000 A 
ATOM      3  C   UNL     1      47.434   7.303  12.506  0.00  0.00    +0.000 A 
ATOM      4  C   UNL     1      47.662   8.679  12.428  0.00  0.00    +0.000 A 
ATOM      5  C   UNL     1      46.631   9.539  12.047  0.00  0.00    +0.000 A 
ATOM      6  C   UNL     1      45.376   9.009  11.744  0.00  0.00    +0.000 A 
ATOM      7  C   UNL     1      45.132   7.637  11.850  0.00  0.00    +0.000 A 
BRANCH   6   8
ATOM      8  S   UNL     1      44.067  10.074  11.195  0.00  0.00    +0.000 S 
ATOM      9  O   UNL     1      43.515  10.745  12.346  0.00  0.00    +0.000 OA
ATOM     10  O   UNL     1      44.514  10.771  10.014  0.00  0.00    +0.000 OA
BRANCH   8  11
ATOM     11  N   UNL     1      42.941   8.929  10.702  0.00  0.00    +0.000 NA
ATOM     12  H   UNL     1      42.527   8.421  11.481  0.00  0.00    +0.000 HD
ATOM     13  H   UNL     1      43.237   8.378   9.901  0.00  0.00    +0.000 HD
ENDBRANCH   8  11
ENDBRANCH   6   8
ENDBRANCH   1   2
BRANCH   1  14
ATOM     14  O   UNL     1      44.800   4.963  11.470  0.00  0.00    +0.000 OA
BRANCH  14  18
ATOM     15  C   UNL     1      45.866   3.094   7.895  0.00  0.00    +0.000 A 
ATOM     16  C   UNL     1      45.240   2.395   8.934  0.00  0.00    +0.000 A 
ATOM     17  C   UNL     1      44.867   3.059  10.107  0.00  0.00    +0.000 A 
ATOM     18  C   UNL     1      45.120   4.424  10.252  0.00  0.00    +0.000 A 
ATOM     19  C   UNL     1      45.674   5.137   9.188  0.00  0.00    +0.000 A 
ATOM     20  C   UNL     1      46.053   4.474   8.021  0.00  0.00    +0.000 A 
BRANCH  15  21
ATOM     21  C   UNL     1      46.339   2.382   6.653  0.00  0.00    +0.000 C 
BRANCH  21  22
ATOM     22  C   UNL     1      47.649   1.626   6.880  0.00  0.00    +0.000 C 
BRANCH  22  23
ATOM     23  N   UNL     1      48.592   1.891   5.794  0.00  0.00    +0.000 NA
ATOM     24  H   UNL     1      49.243   1.111   5.716  0.00  0.00    +0.000 HD
ATOM     25  H   UNL     1      49.156   2.709   6.023  0.00  0.00    +0.000 HD
ENDBRANCH  22  23
ENDBRANCH  21  22
ENDBRANCH  15  21
ENDBRANCH  14  18
ENDBRANCH   1  14
TORSDOF 8
ENDMDL
MODEL 6
REMARK VINA RESULT:    -6.090      2.519      3.752
REMARK INTER + INTRA:          -9.449
REMARK INTER:                  -8.924
REMARK INTRA:                  -0.526
REMARK UNBOUND:                -0.867
REMARK  Name = 
REMARK  8 active torsions:
REMARK  status: ('A' for Active; 'I' for Inactive)
REMARK    1  A    between atoms: N_1  and  C_2
REMARK    2  A    between atoms: C_2  and  C_3
REMARK    3  A    between atoms: C_3  and  C_4
REMARK    4  A    between atoms: C_7  and  O_8
REMARK    5  A    between atoms: O_8  and  C_9
REMARK    6  A    between atoms: C_9  and  C_10
REMARK    7  A    between atoms: C_14  and  S_15
REMARK    8  A    between atoms: S_15  and  N_16
REMARK                            x       y       z     vdW  Elec       q    Type
REMARK                         _______ _______ _______ _____ _____    ______ ____
ROOT
ATOM      1  C   UNL     1      47.042   6.489  13.305  0.00  0.00    +0.000 C 
ENDROOT
BRANCH   1   2
ATOM      2  C   UNL     1      47.799   6.128  14.557  0.00  0.00    +0.000 A 
ATOM      3  C   UNL     1      48.613   7.071  15.200  0.00  0.00    +0.000 A 
ATOM      4  C   UNL     1      49.305   6.736  16.366  0.00  0.00    +0.000 A 
ATOM      5  C   UNL     1      49.177   5.460  16.915  0.00  0.00    +0.000 A 
ATOM      6  C   UNL     1      48.350   4.526  16.288  0.00  0.00    +0.000 A 
ATOM      7  C   UNL     1      47.679   4.844  15.103  0.00  0.00    +0.000 A 
BRANCH   6   8
ATOM      8  S   UNL     1      48.120   2.918  17.000  0.00  0.00    +0.000 S 
ATOM      9  O   UNL     1      46.737   2.789  17.391  0.00  0.00    +0.000 OA
ATOM     10  O   UNL     1      48.800   1.953  16.172  0.00  0.00    +0.000 OA
BRANCH   8  11
ATOM     11  N   UNL     1      49.018   3.087  18.410  0.00  0.00    +0.000 NA
ATOM     12  H   UNL     1      49.948   3.466  18.242  0.00  0.00    +0.000 HD
ATOM     13  H   UNL     1      48.954   2.289  19.037  0.00  0.00    +0.000 HD
ENDBRANCH   8  11
ENDBRANCH   6   8
ENDBRANCH   1   2
BRANCH   1  14
ATOM     14  O   UNL     1      45.898   5.638  13.195  0.00  0.00    +0.000 OA
BRANCH  14  18
ATOM     15  C   UNL     1      45.130   4.092   9.396  0.00  0.00    +0.000 A 
ATOM     16  C   UNL     1      44.800   3.386  10.560  0.00  0.00    +0.000 A 
ATOM     17  C   UNL     1      45.042   3.947  11.817  0.00  0.00    +0.000 A 
ATOM     18  C   UNL     1      45.619   5.214  11.923  0.00  0.00    +0.000 A 
ATOM     19  C   UNL     1      45.876   5.950  10.766  0.00  0.00    +0.000 A 
ATOM     20  C   UNL     1      45.643   5.388   9.510  0.00  0.00    +0.000 A 
BRANCH  15  21
ATOM     21  C   UNL     1      44.942   3.476   8.033  0.00  0.00    +0.000 C 
BRANCH  21  22
ATOM     22  C   UNL     1      46.262   2.999   7.424  0.00  0.00    +0.000 C 
BRANCH  22  23
ATOM     23  N   UNL     1      46.834   4.031   6.561  0.00  0.00    +0.000 NA
ATOM     24  H   UNL     1      47.595   3.630   6.015  0.00  0.00    +0.000 HD
ATOM     25  H   UNL     1      47.251   4.764   7.134  0.00  0.00    +0.000 HD
ENDBRANCH  22  23
ENDBRANCH  21  22
ENDBRANCH  15  21
ENDBRANCH  14  18
ENDBRANCH   1  14
TORSDOF 8
ENDMDL
MODEL 7
REMARK VINA RESULT:    -5.989      3.105      7.053
REMARK INTER + INTRA:          -9.307
REMARK INTER:                  -8.929
REMARK INTRA:                  -0.378
REMARK UNBOUND:                -0.867
REMARK  Name = 
REMARK  8 active torsions:
REMARK  status: ('A' for Active; 'I' for Inactive)
REMARK    1  A    between atoms: N_1  and  C_2
REMARK    2  A    between atoms: C_2  and  C_3
REMARK    3  A    between atoms: C_3  and  C_4
REMARK    4  A    between atoms: C_7  and  O_8
REMARK    5  A    between atoms: O_8  and  C_9
REMARK    6  A    between atoms: C_9  and  C_10
REMARK    7  A    between atoms: C_14  and  S_15
REMARK    8  A    between atoms: S_15  and  N_16
REMARK                            x       y       z     vdW  Elec       q    Type
REMARK                         _______ _______ _______ _____ _____    ______ ____
ROOT
ATOM      1  C   UNL     1      45.527   5.811   9.632  0.00  0.00    +0.000 C 
ENDROOT
BRANCH   1   2
ATOM      2  C   UNL     1      45.469   4.370   9.197  0.00  0.00    +0.000 A 
ATOM      3  C   UNL     1      44.627   3.457   9.849  0.00  0.00    +0.000 A 
ATOM      4  C   UNL     1      44.568   2.124   9.437  0.00  0.00    +0.000 A 
ATOM      5  C   UNL     1      45.336   1.690   8.356  0.00  0.00    +0.000 A 
ATOM      6  C   UNL     1      46.159   2.602   7.692  0.00  0.00    +0.000 A 
ATOM      7  C   UNL     1      46.247   3.930   8.119  0.00  0.00    +0.000 A 
BRANCH   6   8
ATOM      8  S   UNL     1      47.097   2.090   6.276  0.00  0.00    +0.000 S 
ATOM      9  O   UNL     1      47.177   0.651   6.281  0.00  0.00    +0.000 OA
ATOM     10  O   UNL     1      46.648   2.852   5.136  0.00  0.00    +0.000 OA
BRANCH   8  11
ATOM     11  N   UNL     1      48.614   2.673   6.699  0.00  0.00    +0.000 NA
ATOM     12  H   UNL     1      48.857   2.476   7.668  0.00  0.00    +0.000 HD
ATOM     13  H   UNL     1      48.804   3.612   6.360  0.00  0.00    +0.000 HD
ENDBRANCH   8  11
ENDBRANCH   6   8
ENDBRANCH   1   2
BRANCH   1  14
ATOM     14  O   UNL     1      44.894   5.936  10.907  0.00  0.00    +0.000 OA
BRANCH  14  18
ATOM     15  C   UNL     1      47.184   5.295  14.336  0.00  0.00    +0.000 A 
ATOM     16  C   UNL     1      46.021   4.557  14.077  0.00  0.00    +0.000 A 
ATOM     17  C   UNL     1      45.295   4.776  12.903  0.00  0.00    +0.000 A 
ATOM     18  C   UNL     1      45.720   5.734  11.981  0.00  0.00    +0.000 A 
ATOM     19  C   UNL     1      46.918   6.414  12.200  0.00  0.00    +0.000 A 
ATOM     20  C   UNL     1      47.640   6.203  13.376  0.00  0.00    +0.000 A 
BRANCH  15  21
ATOM     21  C   UNL     1      47.941   5.125  15.629  0.00  0.00    +0.000 C 
BRANCH  21  22
ATOM     22  C   UNL     1      47.631   3.792  16.312  0.00  0.00    +0.000 C 
BRANCH  22  23
ATOM     23  N   UNL     1      48.428   2.714  15.726  0.00  0.00    +0.000 NA
ATOM     24  H   UNL     1      48.213   2.639  14.733  0.00  0.00    +0.000 HD
ATOM     25  H   UNL     1      48.159   1.824  16.143  0.00  0.00    +0.000 HD
ENDBRANCH  22  23
ENDBRANCH  21  22
ENDBRANCH  15  21
ENDBRANCH  14  18
ENDBRANCH   1  14
TORSDOF 8
ENDMDL
MODEL 8
REMARK VINA RESULT:    -5.840      4.544      7.968
REMARK INTER + INTRA:          -9.096
REMARK INTER:                  -8.556
REMARK INTRA:                  -0.540
REMARK UNBOUND:                -0.867
REMARK  Name = 
REMARK  8 active torsions:
REMARK  status: ('A' for Active; 'I' for Inactive)
REMARK    1  A    between atoms: N_1  and  C_2
REMARK    2  A    between atoms: C_2  and  C_3
REMARK    3  A    between atoms: C_3  and  C_4
REMARK    4  A    between atoms: C_7  and  O_8
REMARK    5  A    between atoms: O_8  and  C_9
REMARK    6  A    between atoms: C_9  and  C_10
REMARK    7  A    between atoms: C_14  and  S_15
REMARK    8  A    between atoms: S_15  and  N_16
REMARK                            x       y       z     vdW  Elec       q    Type
REMARK                         _______ _______ _______ _____ _____    ______ ____
ROOT
ATOM      1  C   UNL     1      47.115   3.447  14.310  0.00  0.00    +0.000 C 
ENDROOT
BRANCH   1   2
ATOM      2  C   UNL     1      46.454   4.513  13.476  0.00  0.00    +0.000 A 
ATOM      3  C   UNL     1      47.034   5.782  13.340  0.00  0.00    +0.000 A 
ATOM      4  C   UNL     1      46.423   6.764  12.558  0.00  0.00    +0.000 A 
ATOM      5  C   UNL     1      45.233   6.485  11.886  0.00  0.00    +0.000 A 
ATOM      6  C   UNL     1      44.664   5.215  12.003  0.00  0.00    +0.000 A 
ATOM      7  C   UNL     1      45.253   4.238  12.809  0.00  0.00    +0.000 A 
BRANCH   6   8
ATOM      8  S   UNL     1      43.185   4.815  11.108  0.00  0.00    +0.000 S 
ATOM      9  O   UNL     1      42.095   5.571  11.673  0.00  0.00    +0.000 OA
ATOM     10  O   UNL     1      43.495   4.807   9.700  0.00  0.00    +0.000 OA
BRANCH   8  11
ATOM     11  N   UNL     1      42.977   3.216  11.582  0.00  0.00    +0.000 NA
ATOM     12  H   UNL     1      43.093   2.558  10.814  0.00  0.00    +0.000 HD
ATOM     13  H   UNL     1      42.179   3.070  12.196  0.00  0.00    +0.000 HD
ENDBRANCH   8  11
ENDBRANCH   6   8
ENDBRANCH   1   2
BRANCH   1  14
ATOM     14  O   UNL     1      47.003   3.803  15.690  0.00  0.00    +0.000 OA
BRANCH  14  18
ATOM     15  C   UNL     1      50.631   3.684  17.747  0.00  0.00    +0.000 A 
ATOM     16  C   UNL     1      49.954   4.888  17.516  0.00  0.00    +0.000 A 
ATOM     17  C   UNL     1      48.724   4.888  16.851  0.00  0.00    +0.000 A 
ATOM     18  C   UNL     1      48.163   3.689  16.408  0.00  0.00    +0.000 A 
ATOM     19  C   UNL     1      48.799   2.483  16.705  0.00  0.00    +0.000 A 
ATOM     20  C   UNL     1      50.030   2.482  17.361  0.00  0.00    +0.000 A 
BRANCH  15  21
ATOM     21  C   UNL     1      51.991   3.670  18.399  0.00  0.00    +0.000 C 
BRANCH  21  22
ATOM     22  C   UNL     1      52.767   2.386  18.096  0.00  0.00    +0.000 C 
BRANCH  22  23
ATOM     23  N   UNL     1      53.693   2.075  19.184  0.00  0.00    +0.000 NA
ATOM     24  H   UNL     1      53.789   2.890  19.788  0.00  0.00    +0.000 HD
ATOM     25  H   UNL     1      54.620   1.892  18.802  0.00  0.00    +0.000 HD
ENDBRANCH  22  23
ENDBRANCH  21  22
ENDBRANCH  15  21
ENDBRANCH  14  18
ENDBRANCH   1  14
TORSDOF 8
ENDMDL
MODEL 9
REMARK VINA RESULT:    -5.663      3.607      5.578
REMARK INTER + INTRA:          -8.847
REMARK INTER:                  -8.532
REMARK INTRA:                  -0.314
REMARK UNBOUND:                -0.867
REMARK  Name = 
REMARK  8 active torsions:
REMARK  status: ('A' for Active; 'I' for Inactive)
REMARK    1  A    between atoms: N_1  and  C_2
REMARK    2  A    between atoms: C_2  and  C_3
REMARK    3  A    between atoms: C_3  and  C_4
REMARK    4  A    between atoms: C_7  and  O_8
REMARK    5  A    between atoms: O_8  and  C_9
REMARK    6  A    between atoms: C_9  and  C_10
REMARK    7  A    between atoms: C_14  and  S_15
REMARK    8  A    between atoms: S_15  and  N_16
REMARK                            x       y       z     vdW  Elec       q    Type
REMARK                         _______ _______ _______ _____ _____    ______ ____
ROOT
ATOM      1  C   UNL     1      48.516   7.333  14.555  0.00  0.00    +0.000 C 
ENDROOT
BRANCH   1   2
ATOM      2  C   UNL     1      48.683   6.790  15.950  0.00  0.00    +0.000 A 
ATOM      3  C   UNL     1      49.045   7.633  17.010  0.00  0.00    +0.000 A 
ATOM      4  C   UNL     1      49.189   7.128  18.304  0.00  0.00    +0.000 A 
ATOM      5  C   UNL     1      48.954   5.776  18.559  0.00  0.00    +0.000 A 
ATOM      6  C   UNL     1      48.572   4.939  17.509  0.00  0.00    +0.000 A 
ATOM      7  C   UNL     1      48.458   5.431  16.206  0.00  0.00    +0.000 A 
BRANCH   6   8
ATOM      8  S   UNL     1      48.206   3.231  17.818  0.00  0.00    +0.000 S 
ATOM      9  O   UNL     1      46.822   2.997  17.486  0.00  0.00    +0.000 OA
ATOM     10  O   UNL     1      49.288   2.433  17.296  0.00  0.00    +0.000 OA
BRANCH   8  11
ATOM     11  N   UNL     1      48.326   3.201  19.493  0.00  0.00    +0.000 NA
ATOM     12  H   UNL     1      47.435   3.018  19.950  0.00  0.00    +0.000 HD
ATOM     13  H   UNL     1      48.895   3.950  19.879  0.00  0.00    +0.000 HD
ENDBRANCH   8  11
ENDBRANCH   6   8
ENDBRANCH   1   2
BRANCH   1  14
ATOM     14  O   UNL     1      48.589   6.250  13.625  0.00  0.00    +0.000 OA
BRANCH  14  18
ATOM     15  C   UNL     1      45.087   5.231  11.597  0.00  0.00    +0.000 A 
ATOM     16  C   UNL     1      45.414   4.664  12.836  0.00  0.00    +0.000 A 
ATOM     17  C   UNL     1      46.579   5.051  13.503  0.00  0.00    +0.000 A 
ATOM     18  C   UNL     1      47.429   6.004  12.939  0.00  0.00    +0.000 A 
ATOM     19  C   UNL     1      47.067   6.625  11.743  0.00  0.00    +0.000 A 
ATOM     20  C   UNL     1      45.908   6.233  11.072  0.00  0.00    +0.000 A 
BRANCH  15  21
ATOM     21  C   UNL     1      43.872   4.775  10.829  0.00  0.00    +0.000 C 
BRANCH  21  22
ATOM     22  C   UNL     1      43.868   3.263  10.593  0.00  0.00    +0.000 C 
BRANCH  22  23
ATOM     23  N   UNL     1      42.945   2.600  11.512  0.00  0.00    +0.000 NA
ATOM     24  H   UNL     1      43.466   2.238  12.309  0.00  0.00    +0.000 HD
ATOM     25  H   UNL     1      42.528   1.790  11.053  0.00  0.00    +0.000 HD
ENDBRANCH  22  23
ENDBRANCH  21  22
ENDBRANCH  15  21
ENDBRANCH  14  18
ENDBRANCH   1  14
TORSDOF 8
ENDMDL
