MODEL 1
REMARK VINA RESULT:    -8.788      0.000      0.000
REMARK INTER + INTRA:         -12.089
REMARK INTER:                 -11.357
REMARK INTRA:                  -0.732
REMARK UNBOUND:                -0.732
REMARK  Name = 
REMARK  5 active torsions:
REMARK  status: ('A' for Active; 'I' for Inactive)
REMARK    1  A    between atoms: C_2  and  C_4
REMARK    2  A    between atoms: C_7  and  N_8
REMARK    3  A    between atoms: N_8  and  C_9
REMARK    4  A    between atoms: C_9  and  C_10
REMARK    5  A    between atoms: C_14  and  C_15
REMARK                            x       y       z     vdW  Elec       q    Type
REMARK                         _______ _______ _______ _____ _____    ______ ____
ROOT
ATOM      1  C   UNL     1      43.572   4.471  11.085  0.00  0.00    +0.000 C 
ENDROOT
BRANCH   1   2
ATOM      2  C   UNL     1      44.802   4.854  11.877  0.00  0.00    +0.000 A 
ATOM      3  C   UNL     1      45.379   3.953  12.776  0.00  0.00    +0.000 A 
ATOM      4  C   UNL     1      46.527   4.308  13.479  0.00  0.00    +0.000 A 
ATOM      5  C   UNL     1      47.112   5.561  13.281  0.00  0.00    +0.000 A 
ATOM      6  C   UNL     1      46.581   6.487  12.364  0.00  0.00    +0.000 A 
ATOM      7  C   UNL     1      45.416   6.105  11.672  0.00  0.00    +0.000 A 
BRANCH   6   8
ATOM      8  C   UNL     1      47.230   7.799  12.125  0.00  0.00    +0.000 A 
ATOM      9  C   UNL     1      48.596   7.900  11.793  0.00  0.00    +0.000 A 
ATOM     10  C   UNL     1      49.212   9.142  11.581  0.00  0.00    +0.000 A 
ATOM     11  C   UNL     1      48.469  10.312  11.685  0.00  0.00    +0.000 A 
ATOM     12  C   UNL     1      47.122  10.232  12.005  0.00  0.00    +0.000 A 
ATOM     13  F   UNL     1      46.400  11.355  12.105  0.00  0.00    +0.000 F 
ATOM     14  C   UNL     1      46.506   9.001  12.228  0.00  0.00    +0.000 A 
ENDBRANCH   6   8
ENDBRANCH   1   2
BRANCH   1  15
ATOM     15  N   UNL     1      43.787   4.849   9.695  0.00  0.00    +0.000 N 
ATOM     16  H   UNL     1      44.065   5.822   9.608  0.00  0.00    +0.000 HD
BRANCH  15  20
ATOM     17  C   UNL     1      46.379   2.304   7.777  0.00  0.00    +0.000 A 
ATOM     18  C   UNL     1      46.423   3.668   7.536  0.00  0.00    +0.000 A 
ATOM     19  N   UNL     1      45.570   4.544   8.133  0.00  0.00    +0.000 NA
ATOM     20  C   UNL     1      44.660   4.018   8.983  0.00  0.00    +0.000 A 
ATOM     21  C   UNL     1      44.635   2.634   9.210  0.00  0.00    +0.000 A 
ATOM     22  N   UNL     1      45.471   1.742   8.619  0.00  0.00    +0.000 NA
BRANCH  17  24
ATOM     23  N   UNL     1      48.423   2.022   6.513  0.00  0.00    +0.000 N 
ATOM     24  C   UNL     1      47.362   1.402   7.117  0.00  0.00    +0.000 C 
ATOM     25  O   UNL     1      47.231   0.186   7.107  0.00  0.00    +0.000 OA
ATOM     26  H   UNL     1      49.111   1.467   6.025  0.00  0.00    +0.000 HD
ATOM     27  H   UNL     1      48.492   3.034   6.522  0.00  0.00    +0.000 HD
ENDBRANCH  17  24
ENDBRANCH  15  20
ENDBRANCH   1  15
TORSDOF 5
ENDMDL
MODEL 2
REMARK VINA RESULT:    -8.747      0.977      1.383
REMARK INTER + INTRA:         -12.035
REMARK INTER:                 -11.309
REMARK INTRA:                  -0.726
REMARK UNBOUND:                -0.732
REMARK  Name = 
REMARK  5 active torsions:
REMARK  status: ('A' for Active; 'I' for Inactive)
REMARK    1  A    between atoms: C_2  and  C_4
REMARK    2  A    between atoms: C_7  and  N_8
REMARK    3  A    between atoms: N_8  and  C_9
REMARK    4  A    between atoms: C_9  and  C_10
REMARK    5  A    between atoms: C_14  and  C_15
REMARK                            x       y       z     vdW  Elec       q    Type
REMARK                         _______ _______ _______ _____ _____    ______ ____
ROOT
ATOM      1  C   UNL     1      43.666   4.299  11.220  0.00  0.00    +0.000 C 
ENDROOT
BRANCH   1   2
ATOM      2  C   UNL     1      44.901   4.726  11.980  0.00  0.00    +0.000 A 
ATOM      3  C   UNL     1      45.523   3.852  12.877  0.00  0.00    +0.000 A 
ATOM      4  C   UNL     1      46.676   4.248  13.550  0.00  0.00    +0.000 A 
ATOM      5  C   UNL     1      47.220   5.514  13.325  0.00  0.00    +0.000 A 
ATOM      6  C   UNL     1      46.643   6.415  12.411  0.00  0.00    +0.000 A 
ATOM      7  C   UNL     1      45.474   5.991  11.749  0.00  0.00    +0.000 A 
BRANCH   6   8
ATOM      8  C   UNL     1      47.249   7.741  12.143  0.00  0.00    +0.000 A 
ATOM      9  C   UNL     1      46.513   8.935  12.279  0.00  0.00    +0.000 A 
ATOM     10  C   UNL     1      47.084  10.187  12.011  0.00  0.00    +0.000 A 
ATOM     11  C   UNL     1      48.413  10.273  11.614  0.00  0.00    +0.000 A 
ATOM     12  C   UNL     1      49.156   9.110  11.482  0.00  0.00    +0.000 A 
ATOM     13  F   UNL     1      50.437   9.185  11.100  0.00  0.00    +0.000 F 
ATOM     14  C   UNL     1      48.591   7.860  11.734  0.00  0.00    +0.000 A 
ENDBRANCH   6   8
ENDBRANCH   1   2
BRANCH   1  15
ATOM     15  N   UNL     1      43.793   4.762   9.845  0.00  0.00    +0.000 N 
ATOM     16  H   UNL     1      44.008   5.753   9.799  0.00  0.00    +0.000 HD
BRANCH  15  20
ATOM     17  C   UNL     1      46.438   2.484   7.679  0.00  0.00    +0.000 A 
ATOM     18  C   UNL     1      46.401   3.860   7.524  0.00  0.00    +0.000 A 
ATOM     19  N   UNL     1      45.528   4.650   8.205  0.00  0.00    +0.000 NA
ATOM     20  C   UNL     1      44.680   4.025   9.051  0.00  0.00    +0.000 A 
ATOM     21  C   UNL     1      44.735   2.630   9.191  0.00  0.00    +0.000 A 
ATOM     22  N   UNL     1      45.593   1.823   8.516  0.00  0.00    +0.000 NA
BRANCH  17  24
ATOM     23  N   UNL     1      48.526   2.370   6.462  0.00  0.00    +0.000 N 
ATOM     24  C   UNL     1      47.440   1.679   6.930  0.00  0.00    +0.000 C 
ATOM     25  O   UNL     1      47.304   0.479   6.736  0.00  0.00    +0.000 OA
ATOM     26  H   UNL     1      49.229   1.886   5.923  0.00  0.00    +0.000 HD
ATOM     27  H   UNL     1      48.600   3.368   6.623  0.00  0.00    +0.000 HD
ENDBRANCH  17  24
ENDBRANCH  15  20
ENDBRANCH   1  15
TORSDOF 5
ENDMDL
MODEL 3
REMARK VINA RESULT:    -8.619      2.779      4.040
REMARK INTER + INTRA:         -11.870
REMARK INTER:                 -11.263
REMARK INTRA:                  -0.606
REMARK UNBOUND:                -0.732
REMARK  Name = 
REMARK  5 active torsions:
REMARK  status: ('A' for Active; 'I' for Inactive)
REMARK    1  A    between atoms: C_2  and  C_4
REMARK    2  A    between atoms: C_7  and  N_8
REMARK    3  A    between atoms: N_8  and  C_9
REMARK    4  A    between atoms: C_9  and  C_10
REMARK    5  A    between atoms: C_14  and  C_15
REMARK                            x       y       z     vdW  Elec       q    Type
REMARK                         _______ _______ _______ _____ _____    ______ ____
ROOT
ATOM      1  C   UNL     1      44.002   4.822  11.322  0.00  0.00    +0.000 C 
ENDROOT
BRANCH   1   2
ATOM      2  C   UNL     1      45.287   5.434  11.833  0.00  0.00    +0.000 A 
ATOM      3  C   UNL     1      45.938   6.436  11.107  0.00  0.00    +0.000 A 
ATOM      4  C   UNL     1      47.105   7.010  11.602  0.00  0.00    +0.000 A 
ATOM      5  C   UNL     1      47.625   6.595  12.831  0.00  0.00    +0.000 A 
ATOM      6  C   UNL     1      46.987   5.610  13.608  0.00  0.00    +0.000 A 
ATOM      7  C   UNL     1      45.811   5.042  13.080  0.00  0.00    +0.000 A 
BRANCH   6   8
ATOM      8  C   UNL     1      47.518   5.205  14.932  0.00  0.00    +0.000 A 
ATOM      9  C   UNL     1      48.477   5.980  15.615  0.00  0.00    +0.000 A 
ATOM     10  C   UNL     1      48.989   5.588  16.860  0.00  0.00    +0.000 A 
ATOM     11  C   UNL     1      48.542   4.414  17.456  0.00  0.00    +0.000 A 
ATOM     12  C   UNL     1      47.593   3.642  16.802  0.00  0.00    +0.000 A 
ATOM     13  F   UNL     1      47.158   2.512  17.371  0.00  0.00    +0.000 F 
ATOM     14  C   UNL     1      47.089   4.020  15.558  0.00  0.00    +0.000 A 
ENDBRANCH   6   8
ENDBRANCH   1   2
BRANCH   1  15
ATOM     15  N   UNL     1      43.974   4.962   9.872  0.00  0.00    +0.000 N 
ATOM     16  H   UNL     1      44.220   5.902   9.580  0.00  0.00    +0.000 HD
BRANCH  15  20
ATOM     17  C   UNL     1      46.218   2.081   7.991  0.00  0.00    +0.000 A 
ATOM     18  C   UNL     1      46.325   3.412   7.621  0.00  0.00    +0.000 A 
ATOM     19  N   UNL     1      45.587   4.395   8.202  0.00  0.00    +0.000 NA
ATOM     20  C   UNL     1      44.726   4.012   9.171  0.00  0.00    +0.000 A 
ATOM     21  C   UNL     1      44.635   2.659   9.529  0.00  0.00    +0.000 A 
ATOM     22  N   UNL     1      45.356   1.661   8.956  0.00  0.00    +0.000 NA
BRANCH  17  24
ATOM     23  N   UNL     1      46.789  -0.245   7.645  0.00  0.00    +0.000 N 
ATOM     24  C   UNL     1      47.080   1.058   7.339  0.00  0.00    +0.000 C 
ATOM     25  O   UNL     1      47.994   1.357   6.584  0.00  0.00    +0.000 OA
ATOM     26  H   UNL     1      47.354  -0.986   7.256  0.00  0.00    +0.000 HD
ATOM     27  H   UNL     1      46.037  -0.459   8.291  0.00  0.00    +0.000 HD
ENDBRANCH  17  24
ENDBRANCH  15  20
ENDBRANCH   1  15
TORSDOF 5
ENDMDL
MODEL 4
REMARK VINA RESULT:    -8.352      4.581      7.452
REMARK INTER + INTRA:         -11.525
REMARK INTER:                 -11.108
REMARK INTRA:                  -0.418
REMARK UNBOUND:                -0.732
REMARK  Name = 
REMARK  5 active torsions:
REMARK  status: ('A' for Active; 'I' for Inactive)
REMARK    1  A    between atoms: C_2  and  C_4
REMARK    2  A    between atoms: C_7  and  N_8
REMARK    3  A    between atoms: N_8  and  C_9
REMARK    4  A    between atoms: C_9  and  C_10
REMARK    5  A    between atoms: C_14  and  C_15
REMARK                            x       y       z     vdW  Elec       q    Type
REMARK                         _______ _______ _______ _____ _____    ______ ____
ROOT
ATOM      1  C   UNL     1      46.216   7.147  11.968  0.00  0.00    +0.000 C 
ENDROOT
BRANCH   1   2
ATOM      2  C   UNL     1      45.355   6.136  11.245  0.00  0.00    +0.000 A 
ATOM      3  C   UNL     1      43.978   6.072  11.483  0.00  0.00    +0.000 A 
ATOM      4  C   UNL     1      43.193   5.155  10.790  0.00  0.00    +0.000 A 
ATOM      5  C   UNL     1      43.774   4.302   9.849  0.00  0.00    +0.000 A 
ATOM      6  C   UNL     1      45.150   4.351   9.558  0.00  0.00    +0.000 A 
ATOM      7  C   UNL     1      45.922   5.284  10.277  0.00  0.00    +0.000 A 
BRANCH   6   8
ATOM      8  C   UNL     1      45.754   3.474   8.527  0.00  0.00    +0.000 A 
ATOM      9  C   UNL     1      46.264   3.992   7.319  0.00  0.00    +0.000 A 
ATOM     10  C   UNL     1      46.821   3.159   6.338  0.00  0.00    +0.000 A 
ATOM     11  C   UNL     1      46.894   1.787   6.552  0.00  0.00    +0.000 A 
ATOM     12  C   UNL     1      46.405   1.261   7.738  0.00  0.00    +0.000 A 
ATOM     13  F   UNL     1      46.473  -0.059   7.950  0.00  0.00    +0.000 F 
ATOM     14  C   UNL     1      45.838   2.082   8.712  0.00  0.00    +0.000 A 
ENDBRANCH   6   8
ENDBRANCH   1   2
BRANCH   1  15
ATOM     15  N   UNL     1      47.490   6.517  12.288  0.00  0.00    +0.000 N 
ATOM     16  H   UNL     1      48.264   7.167  12.200  0.00  0.00    +0.000 HD
BRANCH  15  20
ATOM     17  C   UNL     1      47.410   4.558  15.898  0.00  0.00    +0.000 A 
ATOM     18  C   UNL     1      48.195   5.687  15.725  0.00  0.00    +0.000 A 
ATOM     19  N   UNL     1      48.267   6.354  14.542  0.00  0.00    +0.000 NA
ATOM     20  C   UNL     1      47.532   5.859  13.522  0.00  0.00    +0.000 A 
ATOM     21  C   UNL     1      46.745   4.714  13.721  0.00  0.00    +0.000 A 
ATOM     22  N   UNL     1      46.665   4.029  14.891  0.00  0.00    +0.000 NA
BRANCH  17  24
ATOM     23  N   UNL     1      48.160   4.426  18.195  0.00  0.00    +0.000 N 
ATOM     24  C   UNL     1      47.349   3.894  17.228  0.00  0.00    +0.000 C 
ATOM     25  O   UNL     1      46.626   2.931  17.446  0.00  0.00    +0.000 OA
ATOM     26  H   UNL     1      48.184   4.003  19.112  0.00  0.00    +0.000 HD
ATOM     27  H   UNL     1      48.762   5.212  17.976  0.00  0.00    +0.000 HD
ENDBRANCH  17  24
ENDBRANCH  15  20
ENDBRANCH   1  15
TORSDOF 5
ENDMDL
MODEL 5
REMARK VINA RESULT:    -8.157      4.376      7.034
REMARK INTER + INTRA:         -11.273
REMARK INTER:                 -10.448
REMARK INTRA:                  -0.825
REMARK UNBOUND:                -0.732
REMARK  Name = 
REMARK  5 active torsions:
REMARK  status: ('A' for Active; 'I' for Inactive)
REMARK    1  A    between atoms: C_2  and  C_4
REMARK    2  A    between atoms: C_7  and  N_8
REMARK    3  A    between atoms: N_8  and  C_9
REMARK    4  A    between atoms: C_9  and  C_10
REMARK    5  A    between atoms: C_14  and  C_15
REMARK                            x       y       z     vdW  Elec       q    Type
REMARK                         _______ _______ _______ _____ _____    ______ ____
ROOT
ATOM      1  C   UNL     1      44.095   6.711  11.450  0.00  0.00    +0.000 C 
ENDROOT
BRANCH   1   2
ATOM      2  C   UNL     1      44.089   5.231  11.140  0.00  0.00    +0.000 A 
ATOM      3  C   UNL     1      43.287   4.352  11.875  0.00  0.00    +0.000 A 
ATOM      4  C   UNL     1      43.270   2.996  11.561  0.00  0.00    +0.000 A 
ATOM      5  C   UNL     1      44.044   2.509  10.505  0.00  0.00    +0.000 A 
ATOM      6  C   UNL     1      44.844   3.363   9.722  0.00  0.00    +0.000 A 
ATOM      7  C   UNL     1      44.847   4.728  10.065  0.00  0.00    +0.000 A 
BRANCH   6   8
ATOM      8  C   UNL     1      45.630   2.849   8.575  0.00  0.00    +0.000 A 
ATOM      9  C   UNL     1      46.072   3.696   7.539  0.00  0.00    +0.000 A 
ATOM     10  C   UNL     1      46.802   3.206   6.447  0.00  0.00    +0.000 A 
ATOM     11  C   UNL     1      47.120   1.854   6.375  0.00  0.00    +0.000 A 
ATOM     12  C   UNL     1      46.700   1.006   7.389  0.00  0.00    +0.000 A 
ATOM     13  F   UNL     1      47.003  -0.296   7.326  0.00  0.00    +0.000 F 
ATOM     14  C   UNL     1      45.962   1.485   8.471  0.00  0.00    +0.000 A 
ENDBRANCH   6   8
ENDBRANCH   1   2
BRANCH   1  15
ATOM     15  N   UNL     1      44.764   6.906  12.729  0.00  0.00    +0.000 N 
ATOM     16  H   UNL     1      44.559   6.155  13.380  0.00  0.00    +0.000 HD
BRANCH  15  20
ATOM     17  C   UNL     1      48.829   7.493  12.684  0.00  0.00    +0.000 A 
ATOM     18  C   UNL     1      47.973   8.449  12.162  0.00  0.00    +0.000 A 
ATOM     19  N   UNL     1      46.623   8.287  12.138  0.00  0.00    +0.000 NA
ATOM     20  C   UNL     1      46.143   7.132  12.649  0.00  0.00    +0.000 A 
ATOM     21  C   UNL     1      47.029   6.179  13.172  0.00  0.00    +0.000 A 
ATOM     22  N   UNL     1      48.380   6.317  13.199  0.00  0.00    +0.000 NA
BRANCH  17  24
ATOM     23  N   UNL     1      50.963   7.499  11.542  0.00  0.00    +0.000 N 
ATOM     24  C   UNL     1      50.295   7.746  12.712  0.00  0.00    +0.000 C 
ATOM     25  O   UNL     1      50.872   8.144  13.715  0.00  0.00    +0.000 OA
ATOM     26  H   UNL     1      51.964   7.625  11.504  0.00  0.00    +0.000 HD
ATOM     27  H   UNL     1      50.458   7.151  10.734  0.00  0.00    +0.000 HD
ENDBRANCH  17  24
ENDBRANCH  15  20
ENDBRANCH   1  15
TORSDOF 5
ENDMDL
MODEL 6
REMARK VINA RESULT:    -8.154      1.819      2.027
REMARK INTER + INTRA:         -11.269
REMARK INTER:                 -10.442
REMARK INTRA:                  -0.827
REMARK UNBOUND:                -0.732
REMARK  Name = 
REMARK  5 active torsions:
REMARK  status: ('A' for Active; 'I' for Inactive)
REMARK    1  A    between atoms: C_2  and  C_4
REMARK    2  A    between atoms: C_7  and  N_8
REMARK    3  A    between atoms: N_8  and  C_9
REMARK    4  A    between atoms: C_9  and  C_10
REMARK    5  A    between atoms: C_14  and  C_15
REMARK                            x       y       z     vdW  Elec       q    Type
REMARK                         _______ _______ _______ _____ _____    ______ ____
ROOT
ATOM      1  C   UNL     1      44.243   5.740  10.693  0.00  0.00    +0.000 C 
ENDROOT
BRANCH   1   2
ATOM      2  C   UNL     1      45.278   5.588  11.784  0.00  0.00    +0.000 A 
ATOM      3  C   UNL     1      45.119   4.629  12.790  0.00  0.00    +0.000 A 
ATOM      4  C   UNL     1      46.093   4.481  13.773  0.00  0.00    +0.000 A 
ATOM      5  C   UNL     1      47.238   5.281  13.753  0.00  0.00    +0.000 A 
ATOM      6  C   UNL     1      47.453   6.238  12.744  0.00  0.00    +0.000 A 
ATOM      7  C   UNL     1      46.448   6.371  11.765  0.00  0.00    +0.000 A 
BRANCH   6   8
ATOM      8  C   UNL     1      48.690   7.054  12.702  0.00  0.00    +0.000 A 
ATOM      9  C   UNL     1      49.206   7.558  11.491  0.00  0.00    +0.000 A 
ATOM     10  C   UNL     1      50.384   8.317  11.452  0.00  0.00    +0.000 A 
ATOM     11  C   UNL     1      51.067   8.601  12.629  0.00  0.00    +0.000 A 
ATOM     12  C   UNL     1      50.570   8.119  13.831  0.00  0.00    +0.000 A 
ATOM     13  F   UNL     1      51.222   8.389  14.969  0.00  0.00    +0.000 F 
ATOM     14  C   UNL     1      49.406   7.353  13.876  0.00  0.00    +0.000 A 
ENDBRANCH   6   8
ENDBRANCH   1   2
BRANCH   1  15
ATOM     15  N   UNL     1      43.818   4.411  10.277  0.00  0.00    +0.000 N 
ATOM     16  H   UNL     1      42.861   4.410   9.937  0.00  0.00    +0.000 HD
BRANCH  15  20
ATOM     17  C   UNL     1      46.398   2.441   7.760  0.00  0.00    +0.000 A 
ATOM     18  C   UNL     1      46.133   3.790   7.584  0.00  0.00    +0.000 A 
ATOM     19  N   UNL     1      45.270   4.476   8.381  0.00  0.00    +0.000 NA
ATOM     20  C   UNL     1      44.668   3.774   9.366  0.00  0.00    +0.000 A 
ATOM     21  C   UNL     1      44.952   2.409   9.524  0.00  0.00    +0.000 A 
ATOM     22  N   UNL     1      45.803   1.704   8.736  0.00  0.00    +0.000 NA
BRANCH  17  24
ATOM     23  N   UNL     1      48.459   2.506   6.493  0.00  0.00    +0.000 N 
ATOM     24  C   UNL     1      47.379   1.756   6.875  0.00  0.00    +0.000 C 
ATOM     25  O   UNL     1      47.230   0.600   6.504  0.00  0.00    +0.000 OA
ATOM     26  H   UNL     1      49.147   2.108   5.871  0.00  0.00    +0.000 HD
ATOM     27  H   UNL     1      48.543   3.469   6.802  0.00  0.00    +0.000 HD
ENDBRANCH  17  24
ENDBRANCH  15  20
ENDBRANCH   1  15
TORSDOF 5
ENDMDL
MODEL 7
REMARK VINA RESULT:    -7.986      4.538      7.449
REMARK INTER + INTRA:         -11.052
REMARK INTER:                 -10.564
REMARK INTRA:                  -0.487
REMARK UNBOUND:                -0.732
REMARK  Name = 
REMARK  5 active torsions:
REMARK  status: ('A' for Active; 'I' for Inactive)
REMARK    1  A    between atoms: C_2  and  C_4
REMARK    2  A    between atoms: C_7  and  N_8
REMARK    3  A    between atoms: N_8  and  C_9
REMARK    4  A    between atoms: C_9  and  C_10
REMARK    5  A    between atoms: C_14  and  C_15
REMARK                            x       y       z     vdW  Elec       q    Type
REMARK                         _______ _______ _______ _____ _____    ______ ____
ROOT
ATOM      1  C   UNL     1      46.156   7.253  11.894  0.00  0.00    +0.000 C 
ENDROOT
BRANCH   1   2
ATOM      2  C   UNL     1      45.312   6.203  11.210  0.00  0.00    +0.000 A 
ATOM      3  C   UNL     1      43.943   6.103  11.477  0.00  0.00    +0.000 A 
ATOM      4  C   UNL     1      43.172   5.149  10.819  0.00  0.00    +0.000 A 
ATOM      5  C   UNL     1      43.759   4.294   9.883  0.00  0.00    +0.000 A 
ATOM      6  C   UNL     1      45.127   4.379   9.562  0.00  0.00    +0.000 A 
ATOM      7  C   UNL     1      45.885   5.349  10.247  0.00  0.00    +0.000 A 
BRANCH   6   8
ATOM      8  C   UNL     1      45.737   3.500   8.536  0.00  0.00    +0.000 A 
ATOM      9  C   UNL     1      46.252   4.015   7.329  0.00  0.00    +0.000 A 
ATOM     10  C   UNL     1      46.815   3.180   6.354  0.00  0.00    +0.000 A 
ATOM     11  C   UNL     1      46.887   1.809   6.570  0.00  0.00    +0.000 A 
ATOM     12  C   UNL     1      46.392   1.285   7.755  0.00  0.00    +0.000 A 
ATOM     13  F   UNL     1      46.459  -0.035   7.971  0.00  0.00    +0.000 F 
ATOM     14  C   UNL     1      45.819   2.108   8.724  0.00  0.00    +0.000 A 
ENDBRANCH   6   8
ENDBRANCH   1   2
BRANCH   1  15
ATOM     15  N   UNL     1      47.446   6.661  12.222  0.00  0.00    +0.000 N 
ATOM     16  H   UNL     1      48.195   7.345  12.185  0.00  0.00    +0.000 HD
BRANCH  15  20
ATOM     17  C   UNL     1      47.751   4.622  15.775  0.00  0.00    +0.000 A 
ATOM     18  C   UNL     1      47.028   4.093  14.718  0.00  0.00    +0.000 A 
ATOM     19  N   UNL     1      46.883   4.743  13.532  0.00  0.00    +0.000 NA
ATOM     20  C   UNL     1      47.482   5.950  13.427  0.00  0.00    +0.000 A 
ATOM     21  C   UNL     1      48.209   6.465  14.510  0.00  0.00    +0.000 A 
ATOM     22  N   UNL     1      48.359   5.837  15.705  0.00  0.00    +0.000 NA
BRANCH  17  24
ATOM     23  N   UNL     1      46.774   3.197  17.470  0.00  0.00    +0.000 N 
ATOM     24  C   UNL     1      47.900   3.844  17.035  0.00  0.00    +0.000 C 
ATOM     25  O   UNL     1      48.956   3.790  17.650  0.00  0.00    +0.000 OA
ATOM     26  H   UNL     1      46.802   2.675  18.333  0.00  0.00    +0.000 HD
ATOM     27  H   UNL     1      45.909   3.279  16.947  0.00  0.00    +0.000 HD
ENDBRANCH  17  24
ENDBRANCH  15  20
ENDBRANCH   1  15
TORSDOF 5
ENDMDL
MODEL 8
REMARK VINA RESULT:    -7.000      5.765      7.967
REMARK INTER + INTRA:          -9.777
REMARK INTER:                  -9.028
REMARK INTRA:                  -0.749
REMARK UNBOUND:                -0.732
REMARK  Name = 
REMARK  5 active torsions:
REMARK  status: ('A' for Active; 'I' for Inactive)
REMARK    1  A    between atoms: C_2  and  C_4
REMARK    2  A    between atoms: C_7  and  N_8
REMARK    3  A    between atoms: N_8  and  C_9
REMARK    4  A    between atoms: C_9  and  C_10
REMARK    5  A    between atoms: C_14  and  C_15
REMARK                            x       y       z     vdW  Elec       q    Type
REMARK                         _______ _______ _______ _____ _____    ______ ____
ROOT
ATOM      1  C   UNL     1      48.821   6.639  15.890  0.00  0.00    +0.000 C 
ENDROOT
BRANCH   1   2
ATOM      2  C   UNL     1      48.386   6.721  14.445  0.00  0.00    +0.000 A 
ATOM      3  C   UNL     1      49.146   7.430  13.510  0.00  0.00    +0.000 A 
ATOM      4  C   UNL     1      48.749   7.474  12.177  0.00  0.00    +0.000 A 
ATOM      5  C   UNL     1      47.595   6.802  11.766  0.00  0.00    +0.000 A 
ATOM      6  C   UNL     1      46.815   6.053  12.667  0.00  0.00    +0.000 A 
ATOM      7  C   UNL     1      47.237   6.031  14.010  0.00  0.00    +0.000 A 
BRANCH   6   8
ATOM      8  C   UNL     1      45.616   5.306  12.217  0.00  0.00    +0.000 A 
ATOM      9  C   UNL     1      44.761   4.658  13.130  0.00  0.00    +0.000 A 
ATOM     10  C   UNL     1      43.635   3.940  12.702  0.00  0.00    +0.000 A 
ATOM     11  C   UNL     1      43.333   3.865  11.348  0.00  0.00    +0.000 A 
ATOM     12  C   UNL     1      44.159   4.503  10.435  0.00  0.00    +0.000 A 
ATOM     13  F   UNL     1      43.873   4.437   9.128  0.00  0.00    +0.000 F 
ATOM     14  C   UNL     1      45.287   5.209  10.853  0.00  0.00    +0.000 A 
ENDBRANCH   6   8
ENDBRANCH   1   2
BRANCH   1  15
ATOM     15  N   UNL     1      48.220   5.452  16.483  0.00  0.00    +0.000 N 
ATOM     16  H   UNL     1      47.468   5.085  15.908  0.00  0.00    +0.000 HD
BRANCH  15  20
ATOM     17  C   UNL     1      51.017   2.589  17.407  0.00  0.00    +0.000 A 
ATOM     18  C   UNL     1      49.768   2.227  16.928  0.00  0.00    +0.000 A 
ATOM     19  N   UNL     1      48.805   3.140  16.630  0.00  0.00    +0.000 NA
ATOM     20  C   UNL     1      49.122   4.439  16.826  0.00  0.00    +0.000 A 
ATOM     21  C   UNL     1      50.392   4.782  17.312  0.00  0.00    +0.000 A 
ATOM     22  N   UNL     1      51.365   3.886  17.624  0.00  0.00    +0.000 NA
BRANCH  17  24
ATOM     23  N   UNL     1      51.552   0.336  18.110  0.00  0.00    +0.000 N 
ATOM     24  C   UNL     1      52.038   1.543  17.683  0.00  0.00    +0.000 C 
ATOM     25  O   UNL     1      53.237   1.745  17.544  0.00  0.00    +0.000 OA
ATOM     26  H   UNL     1      52.195  -0.407  18.340  0.00  0.00    +0.000 HD
ATOM     27  H   UNL     1      50.553   0.207  18.234  0.00  0.00    +0.000 HD
ENDBRANCH  17  24
ENDBRANCH  15  20
ENDBRANCH   1  15
TORSDOF 5
ENDMDL
MODEL 9
REMARK VINA RESULT:    -6.941      4.374      7.444
REMARK INTER + INTRA:          -9.702
REMARK INTER:                  -9.013
REMARK INTRA:                  -0.688
REMARK UNBOUND:                -0.732
REMARK  Name = 
REMARK  5 active torsions:
REMARK  status: ('A' for Active; 'I' for Inactive)
REMARK    1  A    between atoms: C_2  and  C_4
REMARK    2  A    between atoms: C_7  and  N_8
REMARK    3  A    between atoms: N_8  and  C_9
REMARK    4  A    between atoms: C_9  and  C_10
REMARK    5  A    between atoms: C_14  and  C_15
REMARK                            x       y       z     vdW  Elec       q    Type
REMARK                         _______ _______ _______ _____ _____    ______ ____
ROOT
ATOM      1  C   UNL     1      45.748   4.825  13.543  0.00  0.00    +0.000 C 
ENDROOT
BRANCH   1   2
ATOM      2  C   UNL     1      45.031   4.681  12.219  0.00  0.00    +0.000 A 
ATOM      3  C   UNL     1      43.781   5.275  12.017  0.00  0.00    +0.000 A 
ATOM      4  C   UNL     1      43.145   5.158  10.784  0.00  0.00    +0.000 A 
ATOM      5  C   UNL     1      43.757   4.456   9.742  0.00  0.00    +0.000 A 
ATOM      6  C   UNL     1      45.026   3.868   9.893  0.00  0.00    +0.000 A 
ATOM      7  C   UNL     1      45.644   3.996  11.152  0.00  0.00    +0.000 A 
BRANCH   6   8
ATOM      8  C   UNL     1      45.690   3.162   8.771  0.00  0.00    +0.000 A 
ATOM      9  C   UNL     1      46.193   3.857   7.652  0.00  0.00    +0.000 A 
ATOM     10  C   UNL     1      46.807   3.187   6.585  0.00  0.00    +0.000 A 
ATOM     11  C   UNL     1      46.944   1.804   6.619  0.00  0.00    +0.000 A 
ATOM     12  C   UNL     1      46.461   1.104   7.715  0.00  0.00    +0.000 A 
ATOM     13  F   UNL     1      46.590  -0.228   7.756  0.00  0.00    +0.000 F 
ATOM     14  C   UNL     1      45.838   1.763   8.774  0.00  0.00    +0.000 A 
ENDBRANCH   6   8
ENDBRANCH   1   2
BRANCH   1  15
ATOM     15  N   UNL     1      47.110   5.267  13.279  0.00  0.00    +0.000 N 
ATOM     16  H   UNL     1      47.581   4.660  12.615  0.00  0.00    +0.000 HD
BRANCH  15  20
ATOM     17  C   UNL     1      47.680   9.190  12.205  0.00  0.00    +0.000 A 
ATOM     18  C   UNL     1      46.589   8.821  12.974  0.00  0.00    +0.000 A 
ATOM     19  N   UNL     1      46.350   7.532  13.335  0.00  0.00    +0.000 NA
ATOM     20  C   UNL     1      47.236   6.608  12.901  0.00  0.00    +0.000 A 
ATOM     21  C   UNL     1      48.333   7.006  12.122  0.00  0.00    +0.000 A 
ATOM     22  N   UNL     1      48.586   8.286  11.744  0.00  0.00    +0.000 NA
BRANCH  17  24
ATOM     23  N   UNL     1      47.637  11.514  12.878  0.00  0.00    +0.000 N 
ATOM     24  C   UNL     1      47.903  10.624  11.872  0.00  0.00    +0.000 C 
ATOM     25  O   UNL     1      48.292  10.988  10.771  0.00  0.00    +0.000 OA
ATOM     26  H   UNL     1      47.743  12.504  12.708  0.00  0.00    +0.000 HD
ATOM     27  H   UNL     1      47.297  11.182  13.774  0.00  0.00    +0.000 HD
ENDBRANCH  17  24
ENDBRANCH  15  20
ENDBRANCH   1  15
TORSDOF 5
ENDMDL
