MODEL 1
REMARK VINA RESULT:    -7.169      0.000      0.000
REMARK INTER + INTRA:         -11.710
REMARK INTER:                 -10.731
REMARK INTRA:                  -0.978
REMARK UNBOUND:                -0.978
REMARK  Name = 
REMARK  13 active torsions:
REMARK  status: ('A' for Active; 'I' for Inactive)
REMARK    1  A    between atoms: C_1  and  N_2
REMARK    2  A    between atoms: N_2  and  C_3
REMARK    3  A    between atoms: N_2  and  C_4
REMARK    4  A    between atoms: C_4  and  C_5
REMARK    5  A    between atoms: C_6  and  C_7
REMARK    6  A    between atoms: C_10  and  C_11
REMARK    7  A    between atoms: C_15  and  O_16
REMARK    8  A    between atoms: O_16  and  C_17
REMARK    9  A    between atoms: C_17  and  C_18
REMARK   10  A    between atoms: C_18  and  C_19
REMARK   11  A    between atoms: C_18  and  C_20
REMARK   12  A    between atoms: C_18  and  C_21
REMARK   13  A    between atoms: C_24  and  O_25
REMARK                            x       y       z     vdW  Elec       q    Type
REMARK                         _______ _______ _______ _____ _____    ______ ____
ROOT
ATOM      1  C   UNL     1      46.071   5.956  13.181  0.00  0.00    +0.000 A 
ATOM      2  C   UNL     1      46.336   7.302  13.469  0.00  0.00    +0.000 A 
ATOM      3  N   UNL     1      45.802   8.378  12.824  0.00  0.00    +0.000 NA
ATOM      4  C   UNL     1      44.952   8.086  11.810  0.00  0.00    +0.000 A 
ATOM      5  C   UNL     1      44.637   6.795  11.428  0.00  0.00    +0.000 A 
ATOM      6  C   UNL     1      45.183   5.696  12.113  0.00  0.00    +0.000 A 
ENDROOT
BRANCH   4   7
ATOM      7  C   UNL     1      44.282   9.211  11.072  0.00  0.00    +0.000 C 
ATOM      8  N   UNL     1      42.995   8.979  10.673  0.00  0.00    +0.000 N 
ATOM      9  O   UNL     1      44.847  10.266  10.816  0.00  0.00    +0.000 OA
ATOM     10  H   UNL     1      42.557   8.084  10.852  0.00  0.00    +0.000 HD
ATOM     11  H   UNL     1      42.528   9.679  10.113  0.00  0.00    +0.000 HD
ENDBRANCH   4   7
BRANCH   1  13
ATOM     12  C   UNL     1      47.275   4.112  14.828  0.00  0.00    +0.000 C 
ATOM     13  C   UNL     1      46.701   4.955  14.016  0.00  0.00    +0.000 C 
BRANCH  12  14
ATOM     14  C   UNL     1      47.945   3.130  15.775  0.00  0.00    +0.000 C 
BRANCH  14  16
ATOM     15  C   UNL     1      47.969   4.510  17.744  0.00  0.00    +0.000 C 
ATOM     16  N   UNL     1      48.800   3.845  16.740  0.00  0.00    +0.000 NA
ATOM     17  C   UNL     1      49.751   2.950  17.407  0.00  0.00    +0.000 C 
ENDBRANCH  14  16
ENDBRANCH  12  14
ENDBRANCH   1  13
BRANCH   6  18
ATOM     18  O   UNL     1      44.849   4.391  11.757  0.00  0.00    +0.000 OA
BRANCH  18  19
ATOM     19  C   UNL     1      45.614   3.882  10.633  0.00  0.00    +0.000 C 
BRANCH  19  20
ATOM     20  C   UNL     1      44.817   3.250   9.453  0.00  0.00    +0.000 C 
ATOM     21  C   UNL     1      44.028   2.037   9.966  0.00  0.00    +0.000 C 
ATOM     22  C   UNL     1      43.831   4.326   8.947  0.00  0.00    +0.000 C 
BRANCH  20  23
ATOM     23  C   UNL     1      45.785   2.788   8.321  0.00  0.00    +0.000 A 
ATOM     24  C   UNL     1      46.247   1.456   8.225  0.00  0.00    +0.000 A 
ATOM     25  C   UNL     1      47.214   1.072   7.285  0.00  0.00    +0.000 A 
ATOM     26  C   UNL     1      47.715   2.010   6.397  0.00  0.00    +0.000 A 
ATOM     27  C   UNL     1      47.221   3.304   6.399  0.00  0.00    +0.000 A 
ATOM     28  C   UNL     1      46.262   3.687   7.347  0.00  0.00    +0.000 A 
BRANCH  26  29
ATOM     29  O   UNL     1      48.702   1.698   5.512  0.00  0.00    +0.000 OA
ATOM     30  H   UNL     1      49.017   2.520   5.102  0.00  0.00    +0.000 HD
ENDBRANCH  26  29
ENDBRANCH  20  23
ENDBRANCH  19  20
ENDBRANCH  18  19
ENDBRANCH   6  18
TORSDOF 9
ENDMDL
MODEL 2
REMARK VINA RESULT:    -7.108      2.408      5.455
REMARK INTER + INTRA:         -11.618
REMARK INTER:                 -10.530
REMARK INTRA:                  -1.088
REMARK UNBOUND:                -0.978
REMARK  Name = 
REMARK  13 active torsions:
REMARK  status: ('A' for Active; 'I' for Inactive)
REMARK    1  A    between atoms: C_1  and  N_2
REMARK    2  A    between atoms: N_2  and  C_3
REMARK    3  A    between atoms: N_2  and  C_4
REMARK    4  A    between atoms: C_4  and  C_5
REMARK    5  A    between atoms: C_6  and  C_7
REMARK    6  A    between atoms: C_10  and  C_11
REMARK    7  A    between atoms: C_15  and  O_16
REMARK    8  A    between atoms: O_16  and  C_17
REMARK    9  A    between atoms: C_17  and  C_18
REMARK   10  A    between atoms: C_18  and  C_19
REMARK   11  A    between atoms: C_18  and  C_20
REMARK   12  A    between atoms: C_18  and  C_21
REMARK   13  A    between atoms: C_24  and  O_25
REMARK                            x       y       z     vdW  Elec       q    Type
REMARK                         _______ _______ _______ _____ _____    ______ ____
ROOT
ATOM      1  C   UNL     1      47.968   6.473  14.047  0.00  0.00    +0.000 A 
ATOM      2  C   UNL     1      48.682   6.467  15.253  0.00  0.00    +0.000 A 
ATOM      3  N   UNL     1      48.591   5.521  16.232  0.00  0.00    +0.000 NA
ATOM      4  C   UNL     1      47.716   4.516  15.990  0.00  0.00    +0.000 A 
ATOM      5  C   UNL     1      46.947   4.435  14.845  0.00  0.00    +0.000 A 
ATOM      6  C   UNL     1      47.062   5.409  13.838  0.00  0.00    +0.000 A 
ENDROOT
BRANCH   4   7
ATOM      7  C   UNL     1      47.584   3.406  16.995  0.00  0.00    +0.000 C 
ATOM      8  N   UNL     1      48.756   2.845  17.419  0.00  0.00    +0.000 N 
ATOM      9  O   UNL     1      46.501   3.003  17.399  0.00  0.00    +0.000 OA
ATOM     10  H   UNL     1      49.641   3.159  17.041  0.00  0.00    +0.000 HD
ATOM     11  H   UNL     1      48.714   2.048  18.041  0.00  0.00    +0.000 HD
ENDBRANCH   4   7
BRANCH   1  13
ATOM     12  C   UNL     1      48.538   8.542  12.327  0.00  0.00    +0.000 C 
ATOM     13  C   UNL     1      48.242   7.543  13.111  0.00  0.00    +0.000 C 
BRANCH  12  14
ATOM     14  C   UNL     1      48.883   9.706  11.413  0.00  0.00    +0.000 C 
BRANCH  14  16
ATOM     15  C   UNL     1      46.747  10.736  11.817  0.00  0.00    +0.000 C 
ATOM     16  N   UNL     1      48.197  10.932  11.859  0.00  0.00    +0.000 NA
ATOM     17  C   UNL     1      48.597  11.328  13.214  0.00  0.00    +0.000 C 
ENDBRANCH  14  16
ENDBRANCH  12  14
ENDBRANCH   1  13
BRANCH   6  18
ATOM     18  O   UNL     1      46.315   5.321  12.666  0.00  0.00    +0.000 OA
BRANCH  18  19
ATOM     19  C   UNL     1      45.559   4.087  12.550  0.00  0.00    +0.000 C 
BRANCH  19  20
ATOM     20  C   UNL     1      44.397   4.055  11.513  0.00  0.00    +0.000 C 
ATOM     21  C   UNL     1      43.363   3.004  11.940  0.00  0.00    +0.000 C 
ATOM     22  C   UNL     1      43.742   5.454  11.526  0.00  0.00    +0.000 C 
BRANCH  20  23
ATOM     23  C   UNL     1      44.937   3.694  10.095  0.00  0.00    +0.000 A 
ATOM     24  C   UNL     1      45.005   2.359   9.636  0.00  0.00    +0.000 A 
ATOM     25  C   UNL     1      45.606   2.025   8.414  0.00  0.00    +0.000 A 
ATOM     26  C   UNL     1      46.123   3.027   7.610  0.00  0.00    +0.000 A 
ATOM     27  C   UNL     1      45.994   4.355   7.982  0.00  0.00    +0.000 A 
ATOM     28  C   UNL     1      45.401   4.685   9.209  0.00  0.00    +0.000 A 
BRANCH  26  29
ATOM     29  O   UNL     1      46.775   2.744   6.447  0.00  0.00    +0.000 OA
ATOM     30  H   UNL     1      46.989   3.581   6.004  0.00  0.00    +0.000 HD
ENDBRANCH  26  29
ENDBRANCH  20  23
ENDBRANCH  19  20
ENDBRANCH  18  19
ENDBRANCH   6  18
TORSDOF 9
ENDMDL
MODEL 3
REMARK VINA RESULT:    -6.828      2.811      5.666
REMARK INTER + INTRA:         -11.199
REMARK INTER:                 -10.298
REMARK INTRA:                  -0.901
REMARK UNBOUND:                -0.978
REMARK  Name = 
REMARK  13 active torsions:
REMARK  status: ('A' for Active; 'I' for Inactive)
REMARK    1  A    between atoms: C_1  and  N_2
REMARK    2  A    between atoms: N_2  and  C_3
REMARK    3  A    between atoms: N_2  and  C_4
REMARK    4  A    between atoms: C_4  and  C_5
REMARK    5  A    between atoms: C_6  and  C_7
REMARK    6  A    between atoms: C_10  and  C_11
REMARK    7  A    between atoms: C_15  and  O_16
REMARK    8  A    between atoms: O_16  and  C_17
REMARK    9  A    between atoms: C_17  and  C_18
REMARK   10  A    between atoms: C_18  and  C_19
REMARK   11  A    between atoms: C_18  and  C_20
REMARK   12  A    between atoms: C_18  and  C_21
REMARK   13  A    between atoms: C_24  and  O_25
REMARK                            x       y       z     vdW  Elec       q    Type
REMARK                         _______ _______ _______ _____ _____    ______ ____
ROOT
ATOM      1  C   UNL     1      47.921   6.424  14.001  0.00  0.00    +0.000 A 
ATOM      2  C   UNL     1      48.565   6.443  15.246  0.00  0.00    +0.000 A 
ATOM      3  N   UNL     1      48.474   5.480  16.208  0.00  0.00    +0.000 NA
ATOM      4  C   UNL     1      47.672   4.430  15.907  0.00  0.00    +0.000 A 
ATOM      5  C   UNL     1      46.974   4.321  14.718  0.00  0.00    +0.000 A 
ATOM      6  C   UNL     1      47.091   5.314  13.731  0.00  0.00    +0.000 A 
ENDROOT
BRANCH   4   7
ATOM      7  C   UNL     1      47.548   3.301  16.890  0.00  0.00    +0.000 C 
ATOM      8  N   UNL     1      48.703   2.628  17.174  0.00  0.00    +0.000 N 
ATOM      9  O   UNL     1      46.481   2.977  17.397  0.00  0.00    +0.000 OA
ATOM     10  H   UNL     1      49.569   2.878  16.711  0.00  0.00    +0.000 HD
ATOM     11  H   UNL     1      48.656   1.816  17.775  0.00  0.00    +0.000 HD
ENDBRANCH   4   7
BRANCH   1  13
ATOM     12  C   UNL     1      48.493   8.525  12.321  0.00  0.00    +0.000 C 
ATOM     13  C   UNL     1      48.185   7.521  13.094  0.00  0.00    +0.000 C 
BRANCH  12  14
ATOM     14  C   UNL     1      48.851   9.696  11.421  0.00  0.00    +0.000 C 
BRANCH  14  16
ATOM     15  C   UNL     1      50.744  10.933  10.603  0.00  0.00    +0.000 C 
ATOM     16  N   UNL     1      50.195  10.205  11.747  0.00  0.00    +0.000 NA
ATOM     17  C   UNL     1      50.185  11.080  12.924  0.00  0.00    +0.000 C 
ENDBRANCH  14  16
ENDBRANCH  12  14
ENDBRANCH   1  13
BRANCH   6  18
ATOM     18  O   UNL     1      46.416   5.200  12.517  0.00  0.00    +0.000 OA
BRANCH  18  19
ATOM     19  C   UNL     1      44.995   5.483  12.612  0.00  0.00    +0.000 C 
BRANCH  19  20
ATOM     20  C   UNL     1      44.031   4.590  11.776  0.00  0.00    +0.000 C 
ATOM     21  C   UNL     1      43.646   3.351  12.596  0.00  0.00    +0.000 C 
ATOM     22  C   UNL     1      42.766   5.432  11.496  0.00  0.00    +0.000 C 
BRANCH  20  23
ATOM     23  C   UNL     1      44.715   4.134  10.451  0.00  0.00    +0.000 A 
ATOM     24  C   UNL     1      45.362   5.047   9.588  0.00  0.00    +0.000 A 
ATOM     25  C   UNL     1      45.866   4.658   8.338  0.00  0.00    +0.000 A 
ATOM     26  C   UNL     1      45.760   3.335   7.941  0.00  0.00    +0.000 A 
ATOM     27  C   UNL     1      45.215   2.392   8.796  0.00  0.00    +0.000 A 
ATOM     28  C   UNL     1      44.703   2.787  10.041  0.00  0.00    +0.000 A 
BRANCH  26  29
ATOM     29  O   UNL     1      46.175   2.925   6.709  0.00  0.00    +0.000 OA
ATOM     30  H   UNL     1      45.531   3.233   6.051  0.00  0.00    +0.000 HD
ENDBRANCH  26  29
ENDBRANCH  20  23
ENDBRANCH  19  20
ENDBRANCH  18  19
ENDBRANCH   6  18
TORSDOF 9
ENDMDL
MODEL 4
REMARK VINA RESULT:    -6.350      3.246      6.792
REMARK INTER + INTRA:         -10.484
REMARK INTER:                  -8.561
REMARK INTRA:                  -1.923
REMARK UNBOUND:                -0.978
REMARK  Name = 
REMARK  13 active torsions:
REMARK  status: ('A' for Active; 'I' for Inactive)
REMARK    1  A    between atoms: C_1  and  N_2
REMARK    2  A    between atoms: N_2  and  C_3
REMARK    3  A    between atoms: N_2  and  C_4
REMARK    4  A    between atoms: C_4  and  C_5
REMARK    5  A    between atoms: C_6  and  C_7
REMARK    6  A    between atoms: C_10  and  C_11
REMARK    7  A    between atoms: C_15  and  O_16
REMARK    8  A    between atoms: O_16  and  C_17
REMARK    9  A    between atoms: C_17  and  C_18
REMARK   10  A    between atoms: C_18  and  C_19
REMARK   11  A    between atoms: C_18  and  C_20
REMARK   12  A    between atoms: C_18  and  C_21
REMARK   13  A    between atoms: C_24  and  O_25
REMARK                            x       y       z     vdW  Elec       q    Type
REMARK                         _______ _______ _______ _____ _____    ______ ____
ROOT
ATOM      1  C   UNL     1      46.189   4.512  13.221  0.00  0.00    +0.000 A 
ATOM      2  C   UNL     1      45.755   3.219  12.896  0.00  0.00    +0.000 A 
ATOM      3  N   UNL     1      45.174   2.843  11.721  0.00  0.00    +0.000 NA
ATOM      4  C   UNL     1      45.003   3.833  10.812  0.00  0.00    +0.000 A 
ATOM      5  C   UNL     1      45.375   5.146  11.037  0.00  0.00    +0.000 A 
ATOM      6  C   UNL     1      45.988   5.515  12.247  0.00  0.00    +0.000 A 
ENDROOT
BRANCH   4   7
ATOM      7  C   UNL     1      44.410   3.500   9.472  0.00  0.00    +0.000 C 
ATOM      8  N   UNL     1      43.970   4.563   8.735  0.00  0.00    +0.000 N 
ATOM      9  O   UNL     1      44.300   2.352   9.062  0.00  0.00    +0.000 OA
ATOM     10  H   UNL     1      44.025   5.503   9.107  0.00  0.00    +0.000 HD
ATOM     11  H   UNL     1      43.499   4.383   7.858  0.00  0.00    +0.000 HD
ENDBRANCH   4   7
BRANCH   1  13
ATOM     12  C   UNL     1      47.415   4.786  15.668  0.00  0.00    +0.000 C 
ATOM     13  C   UNL     1      46.831   4.700  14.505  0.00  0.00    +0.000 C 
BRANCH  12  14
ATOM     14  C   UNL     1      48.096   4.886  17.023  0.00  0.00    +0.000 C 
BRANCH  14  16
ATOM     15  C   UNL     1      50.153   4.458  18.193  0.00  0.00    +0.000 C 
ATOM     16  N   UNL     1      49.336   4.089  17.036  0.00  0.00    +0.000 NA
ATOM     17  C   UNL     1      49.068   2.648  17.067  0.00  0.00    +0.000 C 
ENDBRANCH  14  16
ENDBRANCH  12  14
ENDBRANCH   1  13
BRANCH   6  18
ATOM     18  O   UNL     1      46.394   6.828  12.473  0.00  0.00    +0.000 OA
BRANCH  18  19
ATOM     19  C   UNL     1      47.625   7.182  11.788  0.00  0.00    +0.000 C 
BRANCH  19  20
ATOM     20  C   UNL     1      48.402   8.427  12.310  0.00  0.00    +0.000 C 
ATOM     21  C   UNL     1      49.677   8.616  11.477  0.00  0.00    +0.000 C 
ATOM     22  C   UNL     1      47.476   9.649  12.115  0.00  0.00    +0.000 C 
BRANCH  20  23
ATOM     23  C   UNL     1      48.791   8.242  13.808  0.00  0.00    +0.000 A 
ATOM     24  C   UNL     1      48.082   8.878  14.852  0.00  0.00    +0.000 A 
ATOM     25  C   UNL     1      48.509   8.813  16.186  0.00  0.00    +0.000 A 
ATOM     26  C   UNL     1      49.640   8.081  16.507  0.00  0.00    +0.000 A 
ATOM     27  C   UNL     1      50.310   7.369  15.526  0.00  0.00    +0.000 A 
ATOM     28  C   UNL     1      49.886   7.444  14.192  0.00  0.00    +0.000 A 
BRANCH  26  29
ATOM     29  O   UNL     1      50.129   8.044  17.779  0.00  0.00    +0.000 OA
ATOM     30  H   UNL     1      50.013   7.145  18.125  0.00  0.00    +0.000 HD
ENDBRANCH  26  29
ENDBRANCH  20  23
ENDBRANCH  19  20
ENDBRANCH  18  19
ENDBRANCH   6  18
TORSDOF 9
ENDMDL
MODEL 5
REMARK VINA RESULT:    -6.280      4.032      7.593
REMARK INTER + INTRA:         -10.379
REMARK INTER:                  -9.024
REMARK INTRA:                  -1.356
REMARK UNBOUND:                -0.978
REMARK  Name = 
REMARK  13 active torsions:
REMARK  status: ('A' for Active; 'I' for Inactive)
REMARK    1  A    between atoms: C_1  and  N_2
REMARK    2  A    between atoms: N_2  and  C_3
REMARK    3  A    between atoms: N_2  and  C_4
REMARK    4  A    between atoms: C_4  and  C_5
REMARK    5  A    between atoms: C_6  and  C_7
REMARK    6  A    between atoms: C_10  and  C_11
REMARK    7  A    between atoms: C_15  and  O_16
REMARK    8  A    between atoms: O_16  and  C_17
REMARK    9  A    between atoms: C_17  and  C_18
REMARK   10  A    between atoms: C_18  and  C_19
REMARK   11  A    between atoms: C_18  and  C_20
REMARK   12  A    between atoms: C_18  and  C_21
REMARK   13  A    between atoms: C_24  and  O_25
REMARK                            x       y       z     vdW  Elec       q    Type
REMARK                         _______ _______ _______ _____ _____    ______ ____
ROOT
ATOM      1  C   UNL     1      47.044   6.172  12.671  0.00  0.00    +0.000 A 
ATOM      2  C   UNL     1      46.055   6.456  11.719  0.00  0.00    +0.000 A 
ATOM      3  N   UNL     1      44.967   5.682  11.441  0.00  0.00    +0.000 NA
ATOM      4  C   UNL     1      44.868   4.537  12.159  0.00  0.00    +0.000 A 
ATOM      5  C   UNL     1      45.797   4.150  13.107  0.00  0.00    +0.000 A 
ATOM      6  C   UNL     1      46.905   4.966  13.392  0.00  0.00    +0.000 A 
ENDROOT
BRANCH   4   7
ATOM      7  C   UNL     1      43.677   3.645  11.950  0.00  0.00    +0.000 C 
ATOM      8  N   UNL     1      43.776   2.386  12.472  0.00  0.00    +0.000 N 
ATOM      9  O   UNL     1      42.681   4.002  11.333  0.00  0.00    +0.000 OA
ATOM     10  H   UNL     1      44.625   2.091  12.939  0.00  0.00    +0.000 HD
ATOM     11  H   UNL     1      43.029   1.728  12.295  0.00  0.00    +0.000 HD
ENDBRANCH   4   7
BRANCH   1  13
ATOM     12  C   UNL     1      49.085   7.994  12.950  0.00  0.00    +0.000 C 
ATOM     13  C   UNL     1      48.098   7.147  12.853  0.00  0.00    +0.000 C 
BRANCH  12  14
ATOM     14  C   UNL     1      50.236   8.980  13.063  0.00  0.00    +0.000 C 
BRANCH  14  16
ATOM     15  C   UNL     1      51.597   8.099  14.839  0.00  0.00    +0.000 C 
ATOM     16  N   UNL     1      50.639   9.143  14.471  0.00  0.00    +0.000 NA
ATOM     17  C   UNL     1      51.230  10.460  14.729  0.00  0.00    +0.000 C 
ENDBRANCH  14  16
ENDBRANCH  12  14
ENDBRANCH   1  13
BRANCH   6  18
ATOM     18  O   UNL     1      47.831   4.601  14.367  0.00  0.00    +0.000 OA
BRANCH  18  19
ATOM     19  C   UNL     1      47.265   4.506  15.701  0.00  0.00    +0.000 C 
BRANCH  19  20
ATOM     20  C   UNL     1      48.144   5.000  16.888  0.00  0.00    +0.000 C 
ATOM     21  C   UNL     1      48.686   6.401  16.570  0.00  0.00    +0.000 C 
ATOM     22  C   UNL     1      47.226   5.075  18.128  0.00  0.00    +0.000 C 
BRANCH  20  23
ATOM     23  C   UNL     1      49.342   4.030  17.125  0.00  0.00    +0.000 A 
ATOM     24  C   UNL     1      49.209   2.629  16.995  0.00  0.00    +0.000 A 
ATOM     25  C   UNL     1      50.251   1.751  17.330  0.00  0.00    +0.000 A 
ATOM     26  C   UNL     1      51.459   2.262  17.773  0.00  0.00    +0.000 A 
ATOM     27  C   UNL     1      51.659   3.632  17.827  0.00  0.00    +0.000 A 
ATOM     28  C   UNL     1      50.613   4.506  17.501  0.00  0.00    +0.000 A 
BRANCH  26  29
ATOM     29  O   UNL     1      52.475   1.446  18.173  0.00  0.00    +0.000 OA
ATOM     30  H   UNL     1      52.131   0.541  18.243  0.00  0.00    +0.000 HD
ENDBRANCH  26  29
ENDBRANCH  20  23
ENDBRANCH  19  20
ENDBRANCH  18  19
ENDBRANCH   6  18
TORSDOF 9
ENDMDL
MODEL 6
REMARK VINA RESULT:    -6.234      3.950      7.455
REMARK INTER + INTRA:         -10.310
REMARK INTER:                  -8.753
REMARK INTRA:                  -1.558
REMARK UNBOUND:                -0.978
REMARK  Name = 
REMARK  13 active torsions:
REMARK  status: ('A' for Active; 'I' for Inactive)
REMARK    1  A    between atoms: C_1  and  N_2
REMARK    2  A    between atoms: N_2  and  C_3
REMARK    3  A    between atoms: N_2  and  C_4
REMARK    4  A    between atoms: C_4  and  C_5
REMARK    5  A    between atoms: C_6  and  C_7
REMARK    6  A    between atoms: C_10  and  C_11
REMARK    7  A    between atoms: C_15  and  O_16
REMARK    8  A    between atoms: O_16  and  C_17
REMARK    9  A    between atoms: C_17  and  C_18
REMARK   10  A    between atoms: C_18  and  C_19
REMARK   11  A    between atoms: C_18  and  C_20
REMARK   12  A    between atoms: C_18  and  C_21
REMARK   13  A    between atoms: C_24  and  O_25
REMARK                            x       y       z     vdW  Elec       q    Type
REMARK                         _______ _______ _______ _____ _____    ______ ____
ROOT
ATOM      1  C   UNL     1      47.570   4.836  15.900  0.00  0.00    +0.000 A 
ATOM      2  C   UNL     1      47.217   4.328  17.157  0.00  0.00    +0.000 A 
ATOM      3  N   UNL     1      47.761   4.701  18.351  0.00  0.00    +0.000 NA
ATOM      4  C   UNL     1      48.736   5.638  18.279  0.00  0.00    +0.000 A 
ATOM      5  C   UNL     1      49.176   6.190  17.091  0.00  0.00    +0.000 A 
ATOM      6  C   UNL     1      48.595   5.807  15.870  0.00  0.00    +0.000 A 
ENDROOT
BRANCH   4   7
ATOM      7  C   UNL     1      49.361   6.141  19.550  0.00  0.00    +0.000 C 
ATOM      8  N   UNL     1      48.843   5.634  20.709  0.00  0.00    +0.000 N 
ATOM      9  O   UNL     1      50.263   6.969  19.564  0.00  0.00    +0.000 OA
ATOM     10  H   UNL     1      48.066   4.985  20.683  0.00  0.00    +0.000 HD
ATOM     11  H   UNL     1      49.183   5.996  21.590  0.00  0.00    +0.000 HD
ENDBRANCH   4   7
BRANCH   1  13
ATOM     12  C   UNL     1      46.244   3.927  13.667  0.00  0.00    +0.000 C 
ATOM     13  C   UNL     1      46.838   4.347  14.750  0.00  0.00    +0.000 C 
BRANCH  12  14
ATOM     14  C   UNL     1      45.553   3.438  12.405  0.00  0.00    +0.000 C 
BRANCH  14  16
ATOM     15  C   UNL     1      43.491   4.407  13.176  0.00  0.00    +0.000 C 
ATOM     16  N   UNL     1      44.123   3.190  12.665  0.00  0.00    +0.000 NA
ATOM     17  C   UNL     1      43.413   2.738  11.464  0.00  0.00    +0.000 C 
ENDBRANCH  14  16
ENDBRANCH  12  14
ENDBRANCH   1  13
BRANCH   6  18
ATOM     18  O   UNL     1      49.009   6.379  14.668  0.00  0.00    +0.000 OA
BRANCH  18  19
ATOM     19  C   UNL     1      48.482   7.714  14.447  0.00  0.00    +0.000 C 
BRANCH  19  20
ATOM     20  C   UNL     1      48.528   8.269  12.993  0.00  0.00    +0.000 C 
ATOM     21  C   UNL     1      49.036   9.717  13.017  0.00  0.00    +0.000 C 
ATOM     22  C   UNL     1      49.524   7.389  12.206  0.00  0.00    +0.000 C 
BRANCH  20  23
ATOM     23  C   UNL     1      47.108   8.236  12.348  0.00  0.00    +0.000 A 
ATOM     24  C   UNL     1      46.289   9.385  12.279  0.00  0.00    +0.000 A 
ATOM     25  C   UNL     1      44.967   9.327  11.815  0.00  0.00    +0.000 A 
ATOM     26  C   UNL     1      44.449   8.119  11.378  0.00  0.00    +0.000 A 
ATOM     27  C   UNL     1      45.249   6.989  11.343  0.00  0.00    +0.000 A 
ATOM     28  C   UNL     1      46.567   7.049  11.818  0.00  0.00    +0.000 A 
BRANCH  26  29
ATOM     29  O   UNL     1      43.150   8.002  10.981  0.00  0.00    +0.000 OA
ATOM     30  H   UNL     1      42.734   7.295  11.501  0.00  0.00    +0.000 HD
ENDBRANCH  26  29
ENDBRANCH  20  23
ENDBRANCH  19  20
ENDBRANCH  18  19
ENDBRANCH   6  18
TORSDOF 9
ENDMDL
MODEL 7
REMARK VINA RESULT:    -6.124      3.960      8.122
REMARK INTER + INTRA:         -10.145
REMARK INTER:                  -9.072
REMARK INTRA:                  -1.073
REMARK UNBOUND:                -0.978
REMARK  Name = 
REMARK  13 active torsions:
REMARK  status: ('A' for Active; 'I' for Inactive)
REMARK    1  A    between atoms: C_1  and  N_2
REMARK    2  A    between atoms: N_2  and  C_3
REMARK    3  A    between atoms: N_2  and  C_4
REMARK    4  A    between atoms: C_4  and  C_5
REMARK    5  A    between atoms: C_6  and  C_7
REMARK    6  A    between atoms: C_10  and  C_11
REMARK    7  A    between atoms: C_15  and  O_16
REMARK    8  A    between atoms: O_16  and  C_17
REMARK    9  A    between atoms: C_17  and  C_18
REMARK   10  A    between atoms: C_18  and  C_19
REMARK   11  A    between atoms: C_18  and  C_20
REMARK   12  A    between atoms: C_18  and  C_21
REMARK   13  A    between atoms: C_24  and  O_25
REMARK                            x       y       z     vdW  Elec       q    Type
REMARK                         _______ _______ _______ _____ _____    ______ ____
ROOT
ATOM      1  C   UNL     1      47.160   6.113  13.100  0.00  0.00    +0.000 A 
ATOM      2  C   UNL     1      47.423   7.087  12.127  0.00  0.00    +0.000 A 
ATOM      3  N   UNL     1      48.471   7.960  12.132  0.00  0.00    +0.000 NA
ATOM      4  C   UNL     1      49.308   7.858  13.193  0.00  0.00    +0.000 A 
ATOM      5  C   UNL     1      49.131   6.949  14.218  0.00  0.00    +0.000 A 
ATOM      6  C   UNL     1      48.054   6.045  14.191  0.00  0.00    +0.000 A 
ENDROOT
BRANCH   4   7
ATOM      7  C   UNL     1      50.515   8.751  13.258  0.00  0.00    +0.000 C 
ATOM      8  N   UNL     1      51.726   8.117  13.239  0.00  0.00    +0.000 N 
ATOM      9  O   UNL     1      50.435   9.969  13.346  0.00  0.00    +0.000 OA
ATOM     10  H   UNL     1      51.775   7.106  13.212  0.00  0.00    +0.000 HD
ATOM     11  H   UNL     1      52.564   8.671  13.352  0.00  0.00    +0.000 HD
ENDBRANCH   4   7
BRANCH   1  13
ATOM     12  C   UNL     1      45.019   4.455  12.619  0.00  0.00    +0.000 C 
ATOM     13  C   UNL     1      46.020   5.246  12.889  0.00  0.00    +0.000 C 
BRANCH  12  14
ATOM     14  C   UNL     1      43.851   3.534  12.305  0.00  0.00    +0.000 C 
BRANCH  14  16
ATOM     15  C   UNL     1      42.414   5.363  11.694  0.00  0.00    +0.000 C 
ATOM     16  N   UNL     1      43.015   4.109  11.236  0.00  0.00    +0.000 NA
ATOM     17  C   UNL     1      43.777   4.352  10.007  0.00  0.00    +0.000 C 
ENDBRANCH  14  16
ENDBRANCH  12  14
ENDBRANCH   1  13
BRANCH   6  18
ATOM     18  O   UNL     1      47.883   5.104  15.204  0.00  0.00    +0.000 OA
BRANCH  18  19
ATOM     19  C   UNL     1      48.446   5.512  16.479  0.00  0.00    +0.000 C 
BRANCH  19  20
ATOM     20  C   UNL     1      48.495   4.446  17.613  0.00  0.00    +0.000 C 
ATOM     21  C   UNL     1      48.346   5.144  18.973  0.00  0.00    +0.000 C 
ATOM     22  C   UNL     1      47.297   3.496  17.391  0.00  0.00    +0.000 C 
BRANCH  20  23
ATOM     23  C   UNL     1      49.848   3.672  17.582  0.00  0.00    +0.000 A 
ATOM     24  C   UNL     1      49.926   2.314  17.202  0.00  0.00    +0.000 A 
ATOM     25  C   UNL     1      51.121   1.585  17.294  0.00  0.00    +0.000 A 
ATOM     26  C   UNL     1      52.272   2.214  17.739  0.00  0.00    +0.000 A 
ATOM     27  C   UNL     1      52.258   3.567  18.034  0.00  0.00    +0.000 A 
ATOM     28  C   UNL     1      51.059   4.290  17.950  0.00  0.00    +0.000 A 
BRANCH  26  29
ATOM     29  O   UNL     1      53.439   1.530  17.908  0.00  0.00    +0.000 OA
ATOM     30  H   UNL     1      53.227   0.640  18.235  0.00  0.00    +0.000 HD
ENDBRANCH  26  29
ENDBRANCH  20  23
ENDBRANCH  19  20
ENDBRANCH  18  19
ENDBRANCH   6  18
TORSDOF 9
ENDMDL
MODEL 8
REMARK VINA RESULT:    -5.477      4.068      6.883
REMARK INTER + INTRA:          -9.177
REMARK INTER:                  -8.026
REMARK INTRA:                  -1.151
REMARK UNBOUND:                -0.978
REMARK  Name = 
REMARK  13 active torsions:
REMARK  status: ('A' for Active; 'I' for Inactive)
REMARK    1  A    between atoms: C_1  and  N_2
REMARK    2  A    between atoms: N_2  and  C_3
REMARK    3  A    between atoms: N_2  and  C_4
REMARK    4  A    between atoms: C_4  and  C_5
REMARK    5  A    between atoms: C_6  and  C_7
REMARK    6  A    between atoms: C_10  and  C_11
REMARK    7  A    between atoms: C_15  and  O_16
REMARK    8  A    between atoms: O_16  and  C_17
REMARK    9  A    between atoms: C_17  and  C_18
REMARK   10  A    between atoms: C_18  and  C_19
REMARK   11  A    between atoms: C_18  and  C_20
REMARK   12  A    between atoms: C_18  and  C_21
REMARK   13  A    between atoms: C_24  and  O_25
REMARK                            x       y       z     vdW  Elec       q    Type
REMARK                         _______ _______ _______ _____ _____    ______ ____
ROOT
ATOM      1  C   UNL     1      50.380   6.671  15.963  0.00  0.00    +0.000 A 
ATOM      2  C   UNL     1      50.687   5.850  17.057  0.00  0.00    +0.000 A 
ATOM      3  N   UNL     1      49.850   4.941  17.633  0.00  0.00    +0.000 NA
ATOM      4  C   UNL     1      48.615   4.856  17.083  0.00  0.00    +0.000 A 
ATOM      5  C   UNL     1      48.200   5.633  16.018  0.00  0.00    +0.000 A 
ATOM      6  C   UNL     1      49.080   6.555  15.424  0.00  0.00    +0.000 A 
ENDROOT
BRANCH   4   7
ATOM      7  C   UNL     1      47.641   3.848  17.627  0.00  0.00    +0.000 C 
ATOM      8  N   UNL     1      47.960   3.307  18.841  0.00  0.00    +0.000 N 
ATOM      9  O   UNL     1      46.634   3.505  17.021  0.00  0.00    +0.000 OA
ATOM     10  H   UNL     1      48.820   3.566  19.308  0.00  0.00    +0.000 HD
ATOM     11  H   UNL     1      47.372   2.573  19.213  0.00  0.00    +0.000 HD
ENDBRANCH   4   7
BRANCH   1  13
ATOM     12  C   UNL     1      52.307   8.372  14.983  0.00  0.00    +0.000 C 
ATOM     13  C   UNL     1      51.425   7.540  15.463  0.00  0.00    +0.000 C 
BRANCH  12  14
ATOM     14  C   UNL     1      53.334   9.343  14.424  0.00  0.00    +0.000 C 
BRANCH  14  16
ATOM     15  C   UNL     1      53.153  10.393  12.268  0.00  0.00    +0.000 C 
ATOM     16  N   UNL     1      53.484   9.152  12.970  0.00  0.00    +0.000 NA
ATOM     17  C   UNL     1      54.841   8.731  12.605  0.00  0.00    +0.000 C 
ENDBRANCH  14  16
ENDBRANCH  12  14
ENDBRANCH   1  13
BRANCH   6  18
ATOM     18  O   UNL     1      48.683   7.321  14.330  0.00  0.00    +0.000 OA
BRANCH  18  19
ATOM     19  C   UNL     1      47.295   7.123  13.954  0.00  0.00    +0.000 C 
BRANCH  19  20
ATOM     20  C   UNL     1      46.943   7.224  12.440  0.00  0.00    +0.000 C 
ATOM     21  C   UNL     1      46.084   8.473  12.200  0.00  0.00    +0.000 C 
ATOM     22  C   UNL     1      48.278   7.365  11.675  0.00  0.00    +0.000 C 
BRANCH  20  23
ATOM     23  C   UNL     1      46.153   5.963  11.975  0.00  0.00    +0.000 A 
ATOM     24  C   UNL     1      45.936   4.857  12.827  0.00  0.00    +0.000 A 
ATOM     25  C   UNL     1      45.336   3.674  12.370  0.00  0.00    +0.000 A 
ATOM     26  C   UNL     1      44.910   3.588  11.055  0.00  0.00    +0.000 A 
ATOM     27  C   UNL     1      45.022   4.682  10.213  0.00  0.00    +0.000 A 
ATOM     28  C   UNL     1      45.631   5.859  10.670  0.00  0.00    +0.000 A 
BRANCH  26  29
ATOM     29  O   UNL     1      44.383   2.437  10.550  0.00  0.00    +0.000 OA
ATOM     30  H   UNL     1      44.271   1.806  11.279  0.00  0.00    +0.000 HD
ENDBRANCH  26  29
ENDBRANCH  20  23
ENDBRANCH  19  20
ENDBRANCH  18  19
ENDBRANCH   6  18
TORSDOF 9
ENDMDL
MODEL 9
REMARK VINA RESULT:    -5.405      4.353      8.111
REMARK INTER + INTRA:          -9.069
REMARK INTER:                  -7.929
REMARK INTRA:                  -1.140
REMARK UNBOUND:                -0.978
REMARK  Name = 
REMARK  13 active torsions:
REMARK  status: ('A' for Active; 'I' for Inactive)
REMARK    1  A    between atoms: C_1  and  N_2
REMARK    2  A    between atoms: N_2  and  C_3
REMARK    3  A    between atoms: N_2  and  C_4
REMARK    4  A    between atoms: C_4  and  C_5
REMARK    5  A    between atoms: C_6  and  C_7
REMARK    6  A    between atoms: C_10  and  C_11
REMARK    7  A    between atoms: C_15  and  O_16
REMARK    8  A    between atoms: O_16  and  C_17
REMARK    9  A    between atoms: C_17  and  C_18
REMARK   10  A    between atoms: C_18  and  C_19
REMARK   11  A    between atoms: C_18  and  C_20
REMARK   12  A    between atoms: C_18  and  C_21
REMARK   13  A    between atoms: C_24  and  O_25
REMARK                            x       y       z     vdW  Elec       q    Type
REMARK                         _______ _______ _______ _____ _____    ______ ____
ROOT
ATOM      1  C   UNL     1      47.439   6.195  12.793  0.00  0.00    +0.000 A 
ATOM      2  C   UNL     1      46.542   6.520  11.767  0.00  0.00    +0.000 A 
ATOM      3  N   UNL     1      45.284   6.015  11.614  0.00  0.00    +0.000 NA
ATOM      4  C   UNL     1      44.903   5.111  12.548  0.00  0.00    +0.000 A 
ATOM      5  C   UNL     1      45.716   4.702  13.589  0.00  0.00    +0.000 A 
ATOM      6  C   UNL     1      47.003   5.244  13.742  0.00  0.00    +0.000 A 
ENDROOT
BRANCH   4   7
ATOM      7  C   UNL     1      43.516   4.535  12.483  0.00  0.00    +0.000 C 
ATOM      8  N   UNL     1      43.277   3.673  11.450  0.00  0.00    +0.000 N 
ATOM      9  O   UNL     1      42.638   4.828  13.284  0.00  0.00    +0.000 OA
ATOM     10  H   UNL     1      44.000   3.476  10.769  0.00  0.00    +0.000 HD
ATOM     11  H   UNL     1      42.339   3.316  11.325  0.00  0.00    +0.000 HD
ENDBRANCH   4   7
BRANCH   1  13
ATOM     12  C   UNL     1      49.824   7.565  12.794  0.00  0.00    +0.000 C 
ATOM     13  C   UNL     1      48.715   6.880  12.810  0.00  0.00    +0.000 C 
BRANCH  12  14
ATOM     14  C   UNL     1      51.118   8.363  12.776  0.00  0.00    +0.000 C 
BRANCH  14  16
ATOM     15  C   UNL     1      50.338  10.074  11.278  0.00  0.00    +0.000 C 
ATOM     16  N   UNL     1      50.833   9.801  12.627  0.00  0.00    +0.000 NA
ATOM     17  C   UNL     1      49.856  10.277  13.612  0.00  0.00    +0.000 C 
ENDBRANCH  14  16
ENDBRANCH  12  14
ENDBRANCH   1  13
BRANCH   6  18
ATOM     18  O   UNL     1      47.820   4.863  14.805  0.00  0.00    +0.000 OA
BRANCH  18  19
ATOM     19  C   UNL     1      47.135   4.064  15.806  0.00  0.00    +0.000 C 
BRANCH  19  20
ATOM     20  C   UNL     1      47.996   3.483  16.967  0.00  0.00    +0.000 C 
ATOM     21  C   UNL     1      47.076   2.792  17.984  0.00  0.00    +0.000 C 
ATOM     22  C   UNL     1      48.947   2.438  16.343  0.00  0.00    +0.000 C 
BRANCH  20  23
ATOM     23  C   UNL     1      48.789   4.618  17.684  0.00  0.00    +0.000 A 
ATOM     24  C   UNL     1      48.176   5.493  18.609  0.00  0.00    +0.000 A 
ATOM     25  C   UNL     1      48.858   6.590  19.157  0.00  0.00    +0.000 A 
ATOM     26  C   UNL     1      50.181   6.813  18.813  0.00  0.00    +0.000 A 
ATOM     27  C   UNL     1      50.844   5.925  17.981  0.00  0.00    +0.000 A 
ATOM     28  C   UNL     1      50.157   4.836  17.428  0.00  0.00    +0.000 A 
BRANCH  26  29
ATOM     29  O   UNL     1      50.862   7.902  19.268  0.00  0.00    +0.000 OA
ATOM     30  H   UNL     1      51.140   7.729  20.182  0.00  0.00    +0.000 HD
ENDBRANCH  26  29
ENDBRANCH  20  23
ENDBRANCH  19  20
ENDBRANCH  18  19
ENDBRANCH   6  18
TORSDOF 9
ENDMDL
