MODEL 1
REMARK VINA RESULT:    -7.605      0.000      0.000
REMARK INTER + INTRA:         -12.254
REMARK INTER:                 -10.939
REMARK INTRA:                  -1.315
REMARK UNBOUND:                -1.315
REMARK  Name = 
REMARK  9 active torsions:
REMARK  status: ('A' for Active; 'I' for Inactive)
REMARK    1  A    between atoms: C_1  and  C_2
REMARK    2  A    between atoms: C_2  and  N_3
REMARK    3  A    between atoms: C_2  and  C_16
REMARK    4  A    between atoms: C_4  and  C_6
REMARK    5  A    between atoms: C_19  and  C_20
REMARK    6  A    between atoms: C_20  and  N_21
REMARK    7  A    between atoms: N_21  and  C_22
REMARK    8  A    between atoms: C_27  and  C_28
REMARK    9  A    between atoms: C_28  and  O_29
REMARK                            x       y       z     vdW  Elec       q    Type
REMARK                         _______ _______ _______ _____ _____    ______ ____
ROOT
ATOM      1  C   UNL     1      47.681   5.052  15.534  0.00  0.00    +0.000 A 
ATOM      2  C   UNL     1      46.756   4.310  14.790  0.00  0.00    +0.000 A 
ATOM      3  C   UNL     1      46.404   4.711  13.497  0.00  0.00    +0.000 A 
ATOM      4  C   UNL     1      46.972   5.859  12.923  0.00  0.00    +0.000 A 
ATOM      5  C   UNL     1      47.907   6.593  13.660  0.00  0.00    +0.000 A 
ATOM      6  C   UNL     1      48.262   6.190  14.947  0.00  0.00    +0.000 A 
ENDROOT
BRANCH   1   8
ATOM      7  C   UNL     1      47.121   3.511  17.426  0.00  0.00    +0.000 C 
ATOM      8  C   UNL     1      48.006   4.677  16.973  0.00  0.00    +0.000 C 
BRANCH   8   9
ATOM      9  N   UNL     1      49.420   4.361  17.048  0.00  0.00    +0.000 N 
ATOM     10  C   UNL     1      50.181   4.486  18.181  0.00  0.00    +0.000 C 
ATOM     11  O   UNL     1      49.721   4.838  19.261  0.00  0.00    +0.000 OA
ATOM     12  H   UNL     1      49.905   4.396  16.162  0.00  0.00    +0.000 HD
BRANCH  10  13
ATOM     13  C   UNL     1      51.582   4.087  18.038  0.00  0.00    +0.000 A 
ATOM     14  C   UNL     1      52.596   5.020  18.207  0.00  0.00    +0.000 A 
ATOM     15  S   UNL     1      54.161   4.353  18.059  0.00  0.00    +0.000 S 
ATOM     16  C   UNL     1      53.533   2.810  17.712  0.00  0.00    +0.000 A 
ATOM     17  N   UNL     1      54.350   1.754  17.452  0.00  0.00    +0.000 NA
ATOM     18  C   UNL     1      53.733   0.653  17.178  0.00  0.00    +0.000 A 
ATOM     19  N   UNL     1      52.369   0.508  17.146  0.00  0.00    +0.000 N 
ATOM     20  C   UNL     1      51.506   1.539  17.429  0.00  0.00    +0.000 A 
ATOM     21  O   UNL     1      50.293   1.363  17.441  0.00  0.00    +0.000 OA
ATOM     22  C   UNL     1      52.150   2.798  17.728  0.00  0.00    +0.000 A 
ATOM     23  H   UNL     1      51.943  -0.381  16.934  0.00  0.00    +0.000 HD
ENDBRANCH  10  13
ENDBRANCH   8   9
ENDBRANCH   1   8
BRANCH   4  24
ATOM     24  C   UNL     1      46.593   6.295  11.528  0.00  0.00    +0.000 C 
BRANCH  24  25
ATOM     25  N   UNL     1      45.219   5.889  11.218  0.00  0.00    +0.000 N 
ATOM     26  H   UNL     1      44.670   6.697  10.944  0.00  0.00    +0.000 HD
BRANCH  25  27
ATOM     27  C   UNL     1      45.163   4.932  10.185  0.00  0.00    +0.000 A 
ATOM     28  N   UNL     1      45.906   5.159   9.075  0.00  0.00    +0.000 NA
ATOM     29  C   UNL     1      45.868   4.273   8.066  0.00  0.00    +0.000 A 
ATOM     30  C   UNL     1      45.131   3.111   8.103  0.00  0.00    +0.000 A 
ATOM     31  C   UNL     1      44.384   2.859   9.247  0.00  0.00    +0.000 A 
ATOM     32  C   UNL     1      44.362   3.786  10.305  0.00  0.00    +0.000 A 
BRANCH  32  33
ATOM     33  C   UNL     1      43.559   3.484  11.544  0.00  0.00    +0.000 C 
BRANCH  33  34
ATOM     34  O   UNL     1      43.082   2.136  11.548  0.00  0.00    +0.000 OA
ATOM     35  H   UNL     1      42.955   1.882  10.618  0.00  0.00    +0.000 HD
ENDBRANCH  33  34
ENDBRANCH  32  33
ENDBRANCH  25  27
ENDBRANCH  24  25
ENDBRANCH   4  24
TORSDOF 8
ENDMDL
MODEL 2
REMARK VINA RESULT:    -7.579      3.104      9.099
REMARK INTER + INTRA:         -12.217
REMARK INTER:                 -10.770
REMARK INTRA:                  -1.446
REMARK UNBOUND:                -1.315
REMARK  Name = 
REMARK  9 active torsions:
REMARK  status: ('A' for Active; 'I' for Inactive)
REMARK    1  A    between atoms: C_1  and  C_2
REMARK    2  A    between atoms: C_2  and  N_3
REMARK    3  A    between atoms: C_2  and  C_16
REMARK    4  A    between atoms: C_4  and  C_6
REMARK    5  A    between atoms: C_19  and  C_20
REMARK    6  A    between atoms: C_20  and  N_21
REMARK    7  A    between atoms: N_21  and  C_22
REMARK    8  A    between atoms: C_27  and  C_28
REMARK    9  A    between atoms: C_28  and  O_29
REMARK                            x       y       z     vdW  Elec       q    Type
REMARK                         _______ _______ _______ _____ _____    ______ ____
ROOT
ATOM      1  C   UNL     1      48.713   7.236  13.857  0.00  0.00    +0.000 A 
ATOM      2  C   UNL     1      48.123   6.440  14.845  0.00  0.00    +0.000 A 
ATOM      3  C   UNL     1      48.833   6.111  16.005  0.00  0.00    +0.000 A 
ATOM      4  C   UNL     1      50.143   6.572  16.199  0.00  0.00    +0.000 A 
ATOM      5  C   UNL     1      50.729   7.380  15.217  0.00  0.00    +0.000 A 
ATOM      6  C   UNL     1      50.020   7.713  14.065  0.00  0.00    +0.000 A 
ENDROOT
BRANCH   1   8
ATOM      7  C   UNL     1      48.996   7.813  11.437  0.00  0.00    +0.000 C 
ATOM      8  C   UNL     1      47.985   7.528  12.552  0.00  0.00    +0.000 C 
BRANCH   8   9
ATOM      9  N   UNL     1      47.132   6.395  12.249  0.00  0.00    +0.000 N 
ATOM     10  C   UNL     1      45.762   6.428  12.280  0.00  0.00    +0.000 C 
ATOM     11  O   UNL     1      45.122   7.444  12.524  0.00  0.00    +0.000 OA
ATOM     12  H   UNL     1      47.572   5.493  12.373  0.00  0.00    +0.000 HD
BRANCH  10  13
ATOM     13  C   UNL     1      45.099   5.175  11.914  0.00  0.00    +0.000 A 
ATOM     14  C   UNL     1      44.409   4.443  12.870  0.00  0.00    +0.000 A 
ATOM     15  S   UNL     1      43.655   3.046  12.240  0.00  0.00    +0.000 S 
ATOM     16  C   UNL     1      44.274   3.345  10.683  0.00  0.00    +0.000 A 
ATOM     17  N   UNL     1      44.024   2.500   9.648  0.00  0.00    +0.000 NA
ATOM     18  C   UNL     1      44.581   2.840   8.532  0.00  0.00    +0.000 A 
ATOM     19  N   UNL     1      45.361   3.953   8.355  0.00  0.00    +0.000 N 
ATOM     20  C   UNL     1      45.617   4.849   9.365  0.00  0.00    +0.000 A 
ATOM     21  O   UNL     1      46.277   5.862   9.160  0.00  0.00    +0.000 OA
ATOM     22  C   UNL     1      45.027   4.505  10.639  0.00  0.00    +0.000 A 
ATOM     23  H   UNL     1      45.763   4.172   7.456  0.00  0.00    +0.000 HD
ENDBRANCH  10  13
ENDBRANCH   8   9
ENDBRANCH   1   8
BRANCH   4  24
ATOM     24  C   UNL     1      50.913   6.218  17.449  0.00  0.00    +0.000 C 
BRANCH  24  25
ATOM     25  N   UNL     1      50.312   5.055  18.109  0.00  0.00    +0.000 N 
ATOM     26  H   UNL     1      49.406   4.851  17.700  0.00  0.00    +0.000 HD
BRANCH  25  27
ATOM     27  C   UNL     1      51.121   3.905  18.009  0.00  0.00    +0.000 A 
ATOM     28  N   UNL     1      52.396   3.991  18.460  0.00  0.00    +0.000 NA
ATOM     29  C   UNL     1      53.199   2.918  18.371  0.00  0.00    +0.000 A 
ATOM     30  C   UNL     1      52.790   1.703  17.869  0.00  0.00    +0.000 A 
ATOM     31  C   UNL     1      51.478   1.599  17.425  0.00  0.00    +0.000 A 
ATOM     32  C   UNL     1      50.621   2.715  17.459  0.00  0.00    +0.000 A 
BRANCH  32  33
ATOM     33  C   UNL     1      49.196   2.576  16.989  0.00  0.00    +0.000 C 
BRANCH  33  34
ATOM     34  O   UNL     1      49.104   1.752  15.823  0.00  0.00    +0.000 OA
ATOM     35  H   UNL     1      48.279   1.243  15.906  0.00  0.00    +0.000 HD
ENDBRANCH  33  34
ENDBRANCH  32  33
ENDBRANCH  25  27
ENDBRANCH  24  25
ENDBRANCH   4  24
TORSDOF 8
ENDMDL
MODEL 3
REMARK VINA RESULT:    -7.438      3.253      8.812
REMARK INTER + INTRA:         -12.013
REMARK INTER:                 -10.370
REMARK INTRA:                  -1.644
REMARK UNBOUND:                -1.315
REMARK  Name = 
REMARK  9 active torsions:
REMARK  status: ('A' for Active; 'I' for Inactive)
REMARK    1  A    between atoms: C_1  and  C_2
REMARK    2  A    between atoms: C_2  and  N_3
REMARK    3  A    between atoms: C_2  and  C_16
REMARK    4  A    between atoms: C_4  and  C_6
REMARK    5  A    between atoms: C_19  and  C_20
REMARK    6  A    between atoms: C_20  and  N_21
REMARK    7  A    between atoms: N_21  and  C_22
REMARK    8  A    between atoms: C_27  and  C_28
REMARK    9  A    between atoms: C_28  and  O_29
REMARK                            x       y       z     vdW  Elec       q    Type
REMARK                         _______ _______ _______ _____ _____    ______ ____
ROOT
ATOM      1  C   UNL     1      48.849   7.499  13.678  0.00  0.00    +0.000 A 
ATOM      2  C   UNL     1      50.135   7.878  14.079  0.00  0.00    +0.000 A 
ATOM      3  C   UNL     1      50.640   7.468  15.318  0.00  0.00    +0.000 A 
ATOM      4  C   UNL     1      49.869   6.671  16.177  0.00  0.00    +0.000 A 
ATOM      5  C   UNL     1      48.588   6.280  15.772  0.00  0.00    +0.000 A 
ATOM      6  C   UNL     1      48.088   6.684  14.535  0.00  0.00    +0.000 A 
ENDROOT
BRANCH   1   8
ATOM      7  C   UNL     1      49.368   8.533  11.458  0.00  0.00    +0.000 C 
ATOM      8  C   UNL     1      48.256   8.011  12.373  0.00  0.00    +0.000 C 
BRANCH   8   9
ATOM      9  N   UNL     1      47.502   6.930  11.767  0.00  0.00    +0.000 N 
ATOM     10  C   UNL     1      46.164   6.988  11.475  0.00  0.00    +0.000 C 
ATOM     11  O   UNL     1      45.482   7.989  11.659  0.00  0.00    +0.000 OA
ATOM     12  H   UNL     1      47.903   6.011  11.901  0.00  0.00    +0.000 HD
BRANCH  10  13
ATOM     13  C   UNL     1      45.611   5.790  10.841  0.00  0.00    +0.000 A 
ATOM     14  C   UNL     1      45.814   5.557   9.487  0.00  0.00    +0.000 A 
ATOM     15  S   UNL     1      45.145   4.082   8.946  0.00  0.00    +0.000 S 
ATOM     16  C   UNL     1      44.516   3.735  10.489  0.00  0.00    +0.000 A 
ATOM     17  N   UNL     1      43.794   2.607  10.722  0.00  0.00    +0.000 NA
ATOM     18  C   UNL     1      43.357   2.490  11.933  0.00  0.00    +0.000 A 
ATOM     19  N   UNL     1      43.583   3.398  12.936  0.00  0.00    +0.000 N 
ATOM     20  C   UNL     1      44.330   4.536  12.753  0.00  0.00    +0.000 A 
ATOM     21  O   UNL     1      44.556   5.301  13.685  0.00  0.00    +0.000 OA
ATOM     22  C   UNL     1      44.829   4.720  11.410  0.00  0.00    +0.000 A 
ATOM     23  H   UNL     1      43.223   3.248  13.867  0.00  0.00    +0.000 HD
ENDBRANCH  10  13
ENDBRANCH   8   9
ENDBRANCH   1   8
BRANCH   4  24
ATOM     24  C   UNL     1      50.409   6.229  17.516  0.00  0.00    +0.000 C 
BRANCH  24  25
ATOM     25  N   UNL     1      49.636   5.096  18.033  0.00  0.00    +0.000 N 
ATOM     26  H   UNL     1      48.719   5.072  17.599  0.00  0.00    +0.000 HD
BRANCH  25  27
ATOM     27  C   UNL     1      50.276   3.861  17.805  0.00  0.00    +0.000 A 
ATOM     28  N   UNL     1      51.581   3.756  18.152  0.00  0.00    +0.000 NA
ATOM     29  C   UNL     1      52.226   2.597  17.938  0.00  0.00    +0.000 A 
ATOM     30  C   UNL     1      51.624   1.478  17.408  0.00  0.00    +0.000 A 
ATOM     31  C   UNL     1      50.280   1.571  17.070  0.00  0.00    +0.000 A 
ATOM     32  C   UNL     1      49.583   2.782  17.235  0.00  0.00    +0.000 A 
BRANCH  32  33
ATOM     33  C   UNL     1      48.120   2.856  16.880  0.00  0.00    +0.000 C 
BRANCH  33  34
ATOM     34  O   UNL     1      47.310   3.102  18.032  0.00  0.00    +0.000 OA
ATOM     35  H   UNL     1      47.858   2.897  18.808  0.00  0.00    +0.000 HD
ENDBRANCH  33  34
ENDBRANCH  32  33
ENDBRANCH  25  27
ENDBRANCH  24  25
ENDBRANCH   4  24
TORSDOF 8
ENDMDL
MODEL 4
REMARK VINA RESULT:    -7.014      3.649      4.308
REMARK INTER + INTRA:         -11.404
REMARK INTER:                 -10.684
REMARK INTRA:                  -0.721
REMARK UNBOUND:                -1.315
REMARK  Name = 
REMARK  9 active torsions:
REMARK  status: ('A' for Active; 'I' for Inactive)
REMARK    1  A    between atoms: C_1  and  C_2
REMARK    2  A    between atoms: C_2  and  N_3
REMARK    3  A    between atoms: C_2  and  C_16
REMARK    4  A    between atoms: C_4  and  C_6
REMARK    5  A    between atoms: C_19  and  C_20
REMARK    6  A    between atoms: C_20  and  N_21
REMARK    7  A    between atoms: N_21  and  C_22
REMARK    8  A    between atoms: C_27  and  C_28
REMARK    9  A    between atoms: C_28  and  O_29
REMARK                            x       y       z     vdW  Elec       q    Type
REMARK                         _______ _______ _______ _____ _____    ______ ____
ROOT
ATOM      1  C   UNL     1      47.694   6.637  13.054  0.00  0.00    +0.000 A 
ATOM      2  C   UNL     1      47.147   5.415  13.464  0.00  0.00    +0.000 A 
ATOM      3  C   UNL     1      45.858   5.047  13.063  0.00  0.00    +0.000 A 
ATOM      4  C   UNL     1      45.093   5.893  12.245  0.00  0.00    +0.000 A 
ATOM      5  C   UNL     1      45.644   7.108  11.824  0.00  0.00    +0.000 A 
ATOM      6  C   UNL     1      46.931   7.471  12.218  0.00  0.00    +0.000 A 
ENDROOT
BRANCH   1   8
ATOM      7  C   UNL     1      49.510   8.340  12.796  0.00  0.00    +0.000 C 
ATOM      8  C   UNL     1      49.059   7.088  13.555  0.00  0.00    +0.000 C 
BRANCH   8   9
ATOM      9  N   UNL     1      48.963   7.311  14.985  0.00  0.00    +0.000 N 
ATOM     10  C   UNL     1      49.980   7.076  15.874  0.00  0.00    +0.000 C 
ATOM     11  O   UNL     1      51.093   6.694  15.532  0.00  0.00    +0.000 OA
ATOM     12  H   UNL     1      48.021   7.294  15.350  0.00  0.00    +0.000 HD
BRANCH  10  13
ATOM     13  C   UNL     1      49.674   7.394  17.269  0.00  0.00    +0.000 A 
ATOM     14  C   UNL     1      50.305   8.458  17.900  0.00  0.00    +0.000 A 
ATOM     15  S   UNL     1      49.774   8.708  19.503  0.00  0.00    +0.000 S 
ATOM     16  C   UNL     1      48.725   7.370  19.425  0.00  0.00    +0.000 A 
ATOM     17  N   UNL     1      47.968   7.000  20.492  0.00  0.00    +0.000 NA
ATOM     18  C   UNL     1      47.240   5.950  20.295  0.00  0.00    +0.000 A 
ATOM     19  N   UNL     1      47.196   5.238  19.124  0.00  0.00    +0.000 N 
ATOM     20  C   UNL     1      47.921   5.592  18.012  0.00  0.00    +0.000 A 
ATOM     21  O   UNL     1      47.819   4.964  16.964  0.00  0.00    +0.000 OA
ATOM     22  C   UNL     1      48.763   6.754  18.187  0.00  0.00    +0.000 A 
ATOM     23  H   UNL     1      46.600   4.430  19.026  0.00  0.00    +0.000 HD
ENDBRANCH  10  13
ENDBRANCH   8   9
ENDBRANCH   1   8
BRANCH   4  24
ATOM     24  C   UNL     1      43.701   5.500  11.812  0.00  0.00    +0.000 C 
BRANCH  24  25
ATOM     25  N   UNL     1      43.592   5.521  10.351  0.00  0.00    +0.000 N 
ATOM     26  H   UNL     1      43.967   6.391   9.986  0.00  0.00    +0.000 HD
BRANCH  25  27
ATOM     27  C   UNL     1      44.275   4.446   9.747  0.00  0.00    +0.000 A 
ATOM     28  N   UNL     1      45.098   4.727   8.709  0.00  0.00    +0.000 NA
ATOM     29  C   UNL     1      45.756   3.725   8.102  0.00  0.00    +0.000 A 
ATOM     30  C   UNL     1      45.668   2.409   8.497  0.00  0.00    +0.000 A 
ATOM     31  C   UNL     1      44.842   2.115   9.575  0.00  0.00    +0.000 A 
ATOM     32  C   UNL     1      44.101   3.131  10.206  0.00  0.00    +0.000 A 
BRANCH  32  33
ATOM     33  C   UNL     1      43.226   2.794  11.385  0.00  0.00    +0.000 C 
BRANCH  33  34
ATOM     34  O   UNL     1      43.973   2.171  12.434  0.00  0.00    +0.000 OA
ATOM     35  H   UNL     1      44.601   2.836  12.763  0.00  0.00    +0.000 HD
ENDBRANCH  33  34
ENDBRANCH  32  33
ENDBRANCH  25  27
ENDBRANCH  24  25
ENDBRANCH   4  24
TORSDOF 8
ENDMDL
MODEL 5
REMARK VINA RESULT:    -6.891      2.887      3.740
REMARK INTER + INTRA:         -11.227
REMARK INTER:                  -9.643
REMARK INTRA:                  -1.585
REMARK UNBOUND:                -1.315
REMARK  Name = 
REMARK  9 active torsions:
REMARK  status: ('A' for Active; 'I' for Inactive)
REMARK    1  A    between atoms: C_1  and  C_2
REMARK    2  A    between atoms: C_2  and  N_3
REMARK    3  A    between atoms: C_2  and  C_16
REMARK    4  A    between atoms: C_4  and  C_6
REMARK    5  A    between atoms: C_19  and  C_20
REMARK    6  A    between atoms: C_20  and  N_21
REMARK    7  A    between atoms: N_21  and  C_22
REMARK    8  A    between atoms: C_27  and  C_28
REMARK    9  A    between atoms: C_28  and  O_29
REMARK                            x       y       z     vdW  Elec       q    Type
REMARK                         _______ _______ _______ _____ _____    ______ ____
ROOT
ATOM      1  C   UNL     1      48.160   8.324  13.467  0.00  0.00    +0.000 A 
ATOM      2  C   UNL     1      46.866   8.836  13.617  0.00  0.00    +0.000 A 
ATOM      3  C   UNL     1      45.817   8.352  12.828  0.00  0.00    +0.000 A 
ATOM      4  C   UNL     1      46.042   7.345  11.877  0.00  0.00    +0.000 A 
ATOM      5  C   UNL     1      47.333   6.822  11.736  0.00  0.00    +0.000 A 
ATOM      6  C   UNL     1      48.376   7.301  12.526  0.00  0.00    +0.000 A 
ENDROOT
BRANCH   1   8
ATOM      7  C   UNL     1      49.081  10.389  14.542  0.00  0.00    +0.000 C 
ATOM      8  C   UNL     1      49.325   8.903  14.257  0.00  0.00    +0.000 C 
BRANCH   8   9
ATOM      9  N   UNL     1      49.479   8.124  15.471  0.00  0.00    +0.000 N 
ATOM     10  C   UNL     1      50.609   7.424  15.802  0.00  0.00    +0.000 C 
ATOM     11  O   UNL     1      51.625   7.428  15.117  0.00  0.00    +0.000 OA
ATOM     12  H   UNL     1      48.609   7.816  15.884  0.00  0.00    +0.000 HD
BRANCH  10  13
ATOM     13  C   UNL     1      50.555   6.727  17.089  0.00  0.00    +0.000 A 
ATOM     14  C   UNL     1      51.433   7.070  18.108  0.00  0.00    +0.000 A 
ATOM     15  S   UNL     1      51.177   6.189  19.548  0.00  0.00    +0.000 S 
ATOM     16  C   UNL     1      49.924   5.282  18.838  0.00  0.00    +0.000 A 
ATOM     17  N   UNL     1      49.273   4.310  19.531  0.00  0.00    +0.000 NA
ATOM     18  C   UNL     1      48.364   3.687  18.855  0.00  0.00    +0.000 A 
ATOM     19  N   UNL     1      48.042   3.952  17.549  0.00  0.00    +0.000 N 
ATOM     20  C   UNL     1      48.654   4.943  16.820  0.00  0.00    +0.000 A 
ATOM     21  O   UNL     1      48.306   5.188  15.669  0.00  0.00    +0.000 OA
ATOM     22  C   UNL     1      49.689   5.660  17.528  0.00  0.00    +0.000 A 
ATOM     23  H   UNL     1      47.315   3.437  17.076  0.00  0.00    +0.000 HD
ENDBRANCH  10  13
ENDBRANCH   8   9
ENDBRANCH   1   8
BRANCH   4  24
ATOM     24  C   UNL     1      44.913   6.821  11.022  0.00  0.00    +0.000 C 
BRANCH  24  25
ATOM     25  N   UNL     1      44.601   5.434  11.378  0.00  0.00    +0.000 N 
ATOM     26  H   UNL     1      43.635   5.361  11.681  0.00  0.00    +0.000 HD
BRANCH  25  27
ATOM     27  C   UNL     1      44.807   4.545  10.304  0.00  0.00    +0.000 A 
ATOM     28  N   UNL     1      45.560   4.979   9.265  0.00  0.00    +0.000 NA
ATOM     29  C   UNL     1      45.769   4.162   8.219  0.00  0.00    +0.000 A 
ATOM     30  C   UNL     1      45.282   2.876   8.150  0.00  0.00    +0.000 A 
ATOM     31  C   UNL     1      44.527   2.416   9.221  0.00  0.00    +0.000 A 
ATOM     32  C   UNL     1      44.248   3.258  10.314  0.00  0.00    +0.000 A 
BRANCH  32  33
ATOM     33  C   UNL     1      43.443   2.733  11.474  0.00  0.00    +0.000 C 
BRANCH  33  34
ATOM     34  O   UNL     1      44.259   2.523  12.629  0.00  0.00    +0.000 OA
ATOM     35  H   UNL     1      43.662   2.262  13.350  0.00  0.00    +0.000 HD
ENDBRANCH  33  34
ENDBRANCH  32  33
ENDBRANCH  25  27
ENDBRANCH  24  25
ENDBRANCH   4  24
TORSDOF 8
ENDMDL
MODEL 6
REMARK VINA RESULT:    -6.873      2.140      3.130
REMARK INTER + INTRA:         -11.201
REMARK INTER:                  -9.644
REMARK INTRA:                  -1.557
REMARK UNBOUND:                -1.315
REMARK  Name = 
REMARK  9 active torsions:
REMARK  status: ('A' for Active; 'I' for Inactive)
REMARK    1  A    between atoms: C_1  and  C_2
REMARK    2  A    between atoms: C_2  and  N_3
REMARK    3  A    between atoms: C_2  and  C_16
REMARK    4  A    between atoms: C_4  and  C_6
REMARK    5  A    between atoms: C_19  and  C_20
REMARK    6  A    between atoms: C_20  and  N_21
REMARK    7  A    between atoms: N_21  and  C_22
REMARK    8  A    between atoms: C_27  and  C_28
REMARK    9  A    between atoms: C_28  and  O_29
REMARK                            x       y       z     vdW  Elec       q    Type
REMARK                         _______ _______ _______ _____ _____    ______ ____
ROOT
ATOM      1  C   UNL     1      48.835   4.714  18.240  0.00  0.00    +0.000 A 
ATOM      2  C   UNL     1      48.828   5.682  17.229  0.00  0.00    +0.000 A 
ATOM      3  C   UNL     1      48.213   5.418  16.000  0.00  0.00    +0.000 A 
ATOM      4  C   UNL     1      47.593   4.182  15.761  0.00  0.00    +0.000 A 
ATOM      5  C   UNL     1      47.587   3.219  16.775  0.00  0.00    +0.000 A 
ATOM      6  C   UNL     1      48.195   3.485  18.001  0.00  0.00    +0.000 A 
ENDROOT
BRANCH   1   8
ATOM      7  C   UNL     1      48.668   4.627  20.736  0.00  0.00    +0.000 C 
ATOM      8  C   UNL     1      49.577   4.956  19.547  0.00  0.00    +0.000 C 
BRANCH   8   9
ATOM      9  N   UNL     1      50.785   4.154  19.534  0.00  0.00    +0.000 N 
ATOM     10  C   UNL     1      51.971   4.551  18.973  0.00  0.00    +0.000 C 
ATOM     11  O   UNL     1      52.135   5.653  18.464  0.00  0.00    +0.000 OA
ATOM     12  H   UNL     1      50.630   3.159  19.624  0.00  0.00    +0.000 HD
BRANCH  10  13
ATOM     13  C   UNL     1      53.071   3.593  19.097  0.00  0.00    +0.000 A 
ATOM     14  C   UNL     1      54.194   3.909  19.849  0.00  0.00    +0.000 A 
ATOM     15  S   UNL     1      55.339   2.644  19.923  0.00  0.00    +0.000 S 
ATOM     16  C   UNL     1      54.397   1.655  18.908  0.00  0.00    +0.000 A 
ATOM     17  N   UNL     1      54.815   0.415  18.540  0.00  0.00    +0.000 NA
ATOM     18  C   UNL     1      54.010  -0.209  17.745  0.00  0.00    +0.000 A 
ATOM     19  N   UNL     1      52.818   0.292  17.288  0.00  0.00    +0.000 N 
ATOM     20  C   UNL     1      52.342   1.528  17.656  0.00  0.00    +0.000 A 
ATOM     21  O   UNL     1      51.248   1.925  17.270  0.00  0.00    +0.000 OA
ATOM     22  C   UNL     1      53.216   2.272  18.534  0.00  0.00    +0.000 A 
ATOM     23  H   UNL     1      52.226  -0.247  16.675  0.00  0.00    +0.000 HD
ENDBRANCH  10  13
ENDBRANCH   8   9
ENDBRANCH   1   8
BRANCH   4  24
ATOM     24  C   UNL     1      46.930   3.893  14.435  0.00  0.00    +0.000 C 
BRANCH  24  25
ATOM     25  N   UNL     1      45.736   4.727  14.266  0.00  0.00    +0.000 N 
ATOM     26  H   UNL     1      45.981   5.708  14.352  0.00  0.00    +0.000 HD
BRANCH  25  27
ATOM     27  C   UNL     1      45.113   4.524  13.018  0.00  0.00    +0.000 A 
ATOM     28  N   UNL     1      44.281   3.462  12.895  0.00  0.00    +0.000 NA
ATOM     29  C   UNL     1      43.679   3.231  11.717  0.00  0.00    +0.000 A 
ATOM     30  C   UNL     1      43.833   4.040  10.614  0.00  0.00    +0.000 A 
ATOM     31  C   UNL     1      44.668   5.144  10.737  0.00  0.00    +0.000 A 
ATOM     32  C   UNL     1      45.352   5.392  11.941  0.00  0.00    +0.000 A 
BRANCH  32  33
ATOM     33  C   UNL     1      46.238   6.605  12.060  0.00  0.00    +0.000 C 
BRANCH  33  34
ATOM     34  O   UNL     1      45.962   7.344  13.253  0.00  0.00    +0.000 OA
ATOM     35  H   UNL     1      45.033   7.168  13.482  0.00  0.00    +0.000 HD
ENDBRANCH  33  34
ENDBRANCH  32  33
ENDBRANCH  25  27
ENDBRANCH  24  25
ENDBRANCH   4  24
TORSDOF 8
ENDMDL
MODEL 7
REMARK VINA RESULT:    -6.852      1.437      2.006
REMARK INTER + INTRA:         -11.171
REMARK INTER:                  -9.740
REMARK INTRA:                  -1.431
REMARK UNBOUND:                -1.315
REMARK  Name = 
REMARK  9 active torsions:
REMARK  status: ('A' for Active; 'I' for Inactive)
REMARK    1  A    between atoms: C_1  and  C_2
REMARK    2  A    between atoms: C_2  and  N_3
REMARK    3  A    between atoms: C_2  and  C_16
REMARK    4  A    between atoms: C_4  and  C_6
REMARK    5  A    between atoms: C_19  and  C_20
REMARK    6  A    between atoms: C_20  and  N_21
REMARK    7  A    between atoms: N_21  and  C_22
REMARK    8  A    between atoms: C_27  and  C_28
REMARK    9  A    between atoms: C_28  and  O_29
REMARK                            x       y       z     vdW  Elec       q    Type
REMARK                         _______ _______ _______ _____ _____    ______ ____
ROOT
ATOM      1  C   UNL     1      48.613   5.876  16.683  0.00  0.00    +0.000 A 
ATOM      2  C   UNL     1      48.569   6.439  15.403  0.00  0.00    +0.000 A 
ATOM      3  C   UNL     1      47.814   5.838  14.390  0.00  0.00    +0.000 A 
ATOM      4  C   UNL     1      47.088   4.663  14.640  0.00  0.00    +0.000 A 
ATOM      5  C   UNL     1      47.121   4.106  15.923  0.00  0.00    +0.000 A 
ATOM      6  C   UNL     1      47.868   4.709  16.933  0.00  0.00    +0.000 A 
ENDROOT
BRANCH   1   8
ATOM      7  C   UNL     1      48.655   6.856  18.986  0.00  0.00    +0.000 C 
ATOM      8  C   UNL     1      49.500   6.470  17.768  0.00  0.00    +0.000 C 
BRANCH   8   9
ATOM      9  N   UNL     1      50.528   5.500  18.092  0.00  0.00    +0.000 N 
ATOM     10  C   UNL     1      51.715   5.376  17.418  0.00  0.00    +0.000 C 
ATOM     11  O   UNL     1      52.041   6.114  16.496  0.00  0.00    +0.000 OA
ATOM     12  H   UNL     1      50.194   4.684  18.588  0.00  0.00    +0.000 HD
BRANCH  10  13
ATOM     13  C   UNL     1      52.618   4.345  17.930  0.00  0.00    +0.000 A 
ATOM     14  C   UNL     1      53.812   4.701  18.544  0.00  0.00    +0.000 A 
ATOM     15  S   UNL     1      54.700   3.365  19.128  0.00  0.00    +0.000 S 
ATOM     16  C   UNL     1      53.546   2.265  18.531  0.00  0.00    +0.000 A 
ATOM     17  N   UNL     1      53.707   0.922  18.673  0.00  0.00    +0.000 NA
ATOM     18  C   UNL     1      52.766   0.210  18.147  0.00  0.00    +0.000 A 
ATOM     19  N   UNL     1      51.672   0.719  17.495  0.00  0.00    +0.000 N 
ATOM     20  C   UNL     1      51.454   2.069  17.354  0.00  0.00    +0.000 A 
ATOM     21  O   UNL     1      50.438   2.491  16.810  0.00  0.00    +0.000 OA
ATOM     22  C   UNL     1      52.488   2.908  17.914  0.00  0.00    +0.000 A 
ATOM     23  H   UNL     1      50.963   0.113  17.112  0.00  0.00    +0.000 HD
ENDBRANCH  10  13
ENDBRANCH   8   9
ENDBRANCH   1   8
BRANCH   4  24
ATOM     24  C   UNL     1      46.274   4.010  13.549  0.00  0.00    +0.000 C 
BRANCH  24  25
ATOM     25  N   UNL     1      45.292   4.954  13.006  0.00  0.00    +0.000 N 
ATOM     26  H   UNL     1      45.560   5.905  13.234  0.00  0.00    +0.000 HD
BRANCH  25  27
ATOM     27  C   UNL     1      45.159   4.843  11.607  0.00  0.00    +0.000 A 
ATOM     28  N   UNL     1      46.034   5.532  10.836  0.00  0.00    +0.000 NA
ATOM     29  C   UNL     1      45.929   5.459   9.498  0.00  0.00    +0.000 A 
ATOM     30  C   UNL     1      44.990   4.688   8.850  0.00  0.00    +0.000 A 
ATOM     31  C   UNL     1      44.103   3.962   9.634  0.00  0.00    +0.000 A 
ATOM     32  C   UNL     1      44.151   4.049  11.038  0.00  0.00    +0.000 A 
BRANCH  32  33
ATOM     33  C   UNL     1      43.192   3.238  11.870  0.00  0.00    +0.000 C 
BRANCH  33  34
ATOM     34  O   UNL     1      43.850   2.148  12.521  0.00  0.00    +0.000 OA
ATOM     35  H   UNL     1      43.484   2.098  13.420  0.00  0.00    +0.000 HD
ENDBRANCH  33  34
ENDBRANCH  32  33
ENDBRANCH  25  27
ENDBRANCH  24  25
ENDBRANCH   4  24
TORSDOF 8
ENDMDL
MODEL 8
REMARK VINA RESULT:    -6.542      3.942      4.798
REMARK INTER + INTRA:         -10.724
REMARK INTER:                  -9.611
REMARK INTRA:                  -1.113
REMARK UNBOUND:                -1.315
REMARK  Name = 
REMARK  9 active torsions:
REMARK  status: ('A' for Active; 'I' for Inactive)
REMARK    1  A    between atoms: C_1  and  C_2
REMARK    2  A    between atoms: C_2  and  N_3
REMARK    3  A    between atoms: C_2  and  C_16
REMARK    4  A    between atoms: C_4  and  C_6
REMARK    5  A    between atoms: C_19  and  C_20
REMARK    6  A    between atoms: C_20  and  N_21
REMARK    7  A    between atoms: N_21  and  C_22
REMARK    8  A    between atoms: C_27  and  C_28
REMARK    9  A    between atoms: C_28  and  O_29
REMARK                            x       y       z     vdW  Elec       q    Type
REMARK                         _______ _______ _______ _____ _____    ______ ____
ROOT
ATOM      1  C   UNL     1      48.661   7.962  13.403  0.00  0.00    +0.000 A 
ATOM      2  C   UNL     1      48.417   6.971  12.445  0.00  0.00    +0.000 A 
ATOM      3  C   UNL     1      47.141   6.821  11.891  0.00  0.00    +0.000 A 
ATOM      4  C   UNL     1      46.088   7.661  12.281  0.00  0.00    +0.000 A 
ATOM      5  C   UNL     1      46.333   8.661  13.228  0.00  0.00    +0.000 A 
ATOM      6  C   UNL     1      47.606   8.814  13.776  0.00  0.00    +0.000 A 
ENDROOT
BRANCH   1   8
ATOM      7  C   UNL     1      50.779   9.290  13.530  0.00  0.00    +0.000 C 
ATOM      8  C   UNL     1      50.020   8.078  14.078  0.00  0.00    +0.000 C 
BRANCH   8   9
ATOM      9  N   UNL     1      49.806   8.160  15.510  0.00  0.00    +0.000 N 
ATOM     10  C   UNL     1      49.955   7.108  16.376  0.00  0.00    +0.000 C 
ATOM     11  O   UNL     1      50.332   5.997  16.021  0.00  0.00    +0.000 OA
ATOM     12  H   UNL     1      49.195   8.911  15.801  0.00  0.00    +0.000 HD
BRANCH  10  13
ATOM     13  C   UNL     1      49.712   7.421  17.785  0.00  0.00    +0.000 A 
ATOM     14  C   UNL     1      50.443   8.417  18.418  0.00  0.00    +0.000 A 
ATOM     15  S   UNL     1      49.976   8.675  20.040  0.00  0.00    +0.000 S 
ATOM     16  C   UNL     1      48.822   7.427  19.965  0.00  0.00    +0.000 A 
ATOM     17  N   UNL     1      48.066   7.096  21.046  0.00  0.00    +0.000 NA
ATOM     18  C   UNL     1      47.252   6.112  20.851  0.00  0.00    +0.000 A 
ATOM     19  N   UNL     1      47.120   5.430  19.668  0.00  0.00    +0.000 N 
ATOM     20  C   UNL     1      47.841   5.749  18.543  0.00  0.00    +0.000 A 
ATOM     21  O   UNL     1      47.661   5.152  17.486  0.00  0.00    +0.000 OA
ATOM     22  C   UNL     1      48.777   6.835  18.715  0.00  0.00    +0.000 A 
ATOM     23  H   UNL     1      46.459   4.674  19.572  0.00  0.00    +0.000 HD
ENDBRANCH  10  13
ENDBRANCH   8   9
ENDBRANCH   1   8
BRANCH   4  24
ATOM     24  C   UNL     1      44.709   7.501  11.686  0.00  0.00    +0.000 C 
BRANCH  24  25
ATOM     25  N   UNL     1      44.732   6.524  10.593  0.00  0.00    +0.000 N 
ATOM     26  H   UNL     1      45.666   6.459  10.203  0.00  0.00    +0.000 HD
BRANCH  25  27
ATOM     27  C   UNL     1      44.325   5.242  11.013  0.00  0.00    +0.000 A 
ATOM     28  N   UNL     1      43.931   5.096  12.300  0.00  0.00    +0.000 NA
ATOM     29  C   UNL     1      43.548   3.885  12.738  0.00  0.00    +0.000 A 
ATOM     30  C   UNL     1      43.500   2.768  11.935  0.00  0.00    +0.000 A 
ATOM     31  C   UNL     1      43.882   2.913  10.607  0.00  0.00    +0.000 A 
ATOM     32  C   UNL     1      44.334   4.155  10.124  0.00  0.00    +0.000 A 
BRANCH  32  33
ATOM     33  C   UNL     1      44.726   4.295   8.677  0.00  0.00    +0.000 C 
BRANCH  33  34
ATOM     34  O   UNL     1      45.915   5.075   8.526  0.00  0.00    +0.000 OA
ATOM     35  H   UNL     1      46.640   4.449   8.358  0.00  0.00    +0.000 HD
ENDBRANCH  33  34
ENDBRANCH  32  33
ENDBRANCH  25  27
ENDBRANCH  24  25
ENDBRANCH   4  24
TORSDOF 8
ENDMDL
MODEL 9
REMARK VINA RESULT:    -6.309      4.318      8.970
REMARK INTER + INTRA:         -10.389
REMARK INTER:                  -8.146
REMARK INTRA:                  -2.243
REMARK UNBOUND:                -1.315
REMARK  Name = 
REMARK  9 active torsions:
REMARK  status: ('A' for Active; 'I' for Inactive)
REMARK    1  A    between atoms: C_1  and  C_2
REMARK    2  A    between atoms: C_2  and  N_3
REMARK    3  A    between atoms: C_2  and  C_16
REMARK    4  A    between atoms: C_4  and  C_6
REMARK    5  A    between atoms: C_19  and  C_20
REMARK    6  A    between atoms: C_20  and  N_21
REMARK    7  A    between atoms: N_21  and  C_22
REMARK    8  A    between atoms: C_27  and  C_28
REMARK    9  A    between atoms: C_28  and  O_29
REMARK                            x       y       z     vdW  Elec       q    Type
REMARK                         _______ _______ _______ _____ _____    ______ ____
ROOT
ATOM      1  C   UNL     1      48.587   5.297  17.239  0.00  0.00    +0.000 A 
ATOM      2  C   UNL     1      47.888   6.004  18.225  0.00  0.00    +0.000 A 
ATOM      3  C   UNL     1      48.544   6.960  19.009  0.00  0.00    +0.000 A 
ATOM      4  C   UNL     1      49.908   7.227  18.820  0.00  0.00    +0.000 A 
ATOM      5  C   UNL     1      50.604   6.532  17.825  0.00  0.00    +0.000 A 
ATOM      6  C   UNL     1      49.949   5.584  17.040  0.00  0.00    +0.000 A 
ENDROOT
BRANCH   1   8
ATOM      7  C   UNL     1      47.120   3.273  17.378  0.00  0.00    +0.000 C 
ATOM      8  C   UNL     1      47.907   4.194  16.440  0.00  0.00    +0.000 C 
BRANCH   8   9
ATOM      9  N   UNL     1      47.062   4.817  15.439  0.00  0.00    +0.000 N 
ATOM     10  C   UNL     1      46.905   4.350  14.160  0.00  0.00    +0.000 C 
ATOM     11  O   UNL     1      47.434   3.323  13.753  0.00  0.00    +0.000 OA
ATOM     12  H   UNL     1      46.883   5.800  15.595  0.00  0.00    +0.000 HD
BRANCH  10  13
ATOM     13  C   UNL     1      45.983   5.121  13.324  0.00  0.00    +0.000 A 
ATOM     14  C   UNL     1      44.891   4.502  12.731  0.00  0.00    +0.000 A 
ATOM     15  S   UNL     1      43.903   5.576  11.844  0.00  0.00    +0.000 S 
ATOM     16  C   UNL     1      44.932   6.890  12.178  0.00  0.00    +0.000 A 
ATOM     17  N   UNL     1      44.677   8.132  11.687  0.00  0.00    +0.000 NA
ATOM     18  C   UNL     1      45.558   9.024  12.000  0.00  0.00    +0.000 A 
ATOM     19  N   UNL     1      46.672   8.788  12.765  0.00  0.00    +0.000 N 
ATOM     20  C   UNL     1      46.954   7.556  13.305  0.00  0.00    +0.000 A 
ATOM     21  O   UNL     1      47.931   7.391  14.029  0.00  0.00    +0.000 OA
ATOM     22  C   UNL     1      46.003   6.520  12.972  0.00  0.00    +0.000 A 
ATOM     23  H   UNL     1      47.321   9.527  12.984  0.00  0.00    +0.000 HD
ENDBRANCH  10  13
ENDBRANCH   8   9
ENDBRANCH   1   8
BRANCH   4  24
ATOM     24  C   UNL     1      50.619   8.257  19.665  0.00  0.00    +0.000 C 
BRANCH  24  25
ATOM     25  N   UNL     1      50.092   9.597  19.393  0.00  0.00    +0.000 N 
ATOM     26  H   UNL     1      50.393  10.244  20.115  0.00  0.00    +0.000 HD
BRANCH  25  27
ATOM     27  C   UNL     1      50.506  10.093  18.141  0.00  0.00    +0.000 A 
ATOM     28  N   UNL     1      51.835  10.256  17.937  0.00  0.00    +0.000 NA
ATOM     29  C   UNL     1      52.265  10.737  16.758  0.00  0.00    +0.000 A 
ATOM     30  C   UNL     1      51.425  11.050  15.714  0.00  0.00    +0.000 A 
ATOM     31  C   UNL     1      50.062  10.865  15.907  0.00  0.00    +0.000 A 
ATOM     32  C   UNL     1      49.570  10.408  17.143  0.00  0.00    +0.000 A 
BRANCH  32  33
ATOM     33  C   UNL     1      48.090  10.196  17.325  0.00  0.00    +0.000 C 
BRANCH  33  34
ATOM     34  O   UNL     1      47.574   9.249  16.386  0.00  0.00    +0.000 OA
ATOM     35  H   UNL     1      47.212   9.761  15.643  0.00  0.00    +0.000 HD
ENDBRANCH  33  34
ENDBRANCH  32  33
ENDBRANCH  25  27
ENDBRANCH  24  25
ENDBRANCH   4  24
TORSDOF 8
ENDMDL
