MODEL 1
REMARK VINA RESULT:    -9.027      0.000      0.000
REMARK INTER + INTRA:         -13.331
REMARK INTER:                 -12.193
REMARK INTRA:                  -1.137
REMARK UNBOUND:                -1.137
REMARK  Name = 
REMARK  6 active torsions:
REMARK  status: ('A' for Active; 'I' for Inactive)
REMARK    1  A    between atoms: C_2  and  C_4
REMARK    2  A    between atoms: C_7  and  N_8
REMARK    3  A    between atoms: N_8  and  C_9
REMARK    4  A    between atoms: C_9  and  C_10
REMARK    5  A    between atoms: C_10  and  C_13
REMARK    6  A    between atoms: C_17  and  C_18
REMARK                            x       y       z     vdW  Elec       q    Type
REMARK                         _______ _______ _______ _____ _____    ______ ____
ROOT
ATOM      1  C   UNL     1      43.276   5.137  12.471  0.00  0.00    +0.000 C 
ATOM      2  F   UNL     1      42.560   6.259  12.163  0.00  0.00    +0.000 F 
ATOM      3  F   UNL     1      42.653   4.600  13.565  0.00  0.00    +0.000 F 
ENDROOT
BRANCH   1   4
ATOM      4  C   UNL     1      44.734   5.450  12.740  0.00  0.00    +0.000 A 
ATOM      5  C   UNL     1      45.593   4.469  13.240  0.00  0.00    +0.000 A 
ATOM      6  C   UNL     1      46.940   4.754  13.437  0.00  0.00    +0.000 A 
ATOM      7  C   UNL     1      47.443   6.020  13.124  0.00  0.00    +0.000 A 
ATOM      8  C   UNL     1      46.618   7.029  12.595  0.00  0.00    +0.000 A 
ATOM      9  C   UNL     1      45.255   6.722  12.427  0.00  0.00    +0.000 A 
BRANCH   8  10
ATOM     10  C   UNL     1      47.166   8.345  12.199  0.00  0.00    +0.000 A 
ATOM     11  C   UNL     1      48.527   8.546  11.928  0.00  0.00    +0.000 A 
ATOM     12  C   UNL     1      49.005   9.812  11.584  0.00  0.00    +0.000 A 
ATOM     13  C   UNL     1      48.104  10.857  11.508  0.00  0.00    +0.000 A 
ATOM     14  N   UNL     1      46.787  10.723  11.756  0.00  0.00    +0.000 NA
ATOM     15  C   UNL     1      46.358   9.482  12.097  0.00  0.00    +0.000 A 
ENDBRANCH   8  10
ENDBRANCH   1   4
BRANCH   1  16
ATOM     16  C   UNL     1      43.162   4.123  11.305  0.00  0.00    +0.000 C 
BRANCH  16  17
ATOM     17  N   UNL     1      43.715   4.630  10.040  0.00  0.00    +0.000 N 
ATOM     18  H   UNL     1      43.047   5.124   9.451  0.00  0.00    +0.000 HD
BRANCH  17  22
ATOM     19  C   UNL     1      46.466   2.375   7.779  0.00  0.00    +0.000 A 
ATOM     20  C   UNL     1      46.463   3.767   7.666  0.00  0.00    +0.000 A 
ATOM     21  C   UNL     1      45.575   4.531   8.433  0.00  0.00    +0.000 A 
ATOM     22  C   UNL     1      44.696   3.934   9.345  0.00  0.00    +0.000 A 
ATOM     23  C   UNL     1      44.713   2.536   9.446  0.00  0.00    +0.000 A 
ATOM     24  C   UNL     1      45.583   1.760   8.669  0.00  0.00    +0.000 A 
BRANCH  19  26
ATOM     25  N   UNL     1      48.431   2.110   6.367  0.00  0.00    +0.000 N 
ATOM     26  C   UNL     1      47.333   1.524   6.929  0.00  0.00    +0.000 C 
ATOM     27  O   UNL     1      47.095   0.335   6.754  0.00  0.00    +0.000 OA
ATOM     28  H   UNL     1      49.057   1.495   5.864  0.00  0.00    +0.000 HD
ATOM     29  H   UNL     1      48.794   2.997   6.684  0.00  0.00    +0.000 HD
ENDBRANCH  19  26
ENDBRANCH  17  22
ENDBRANCH  16  17
ENDBRANCH   1  16
TORSDOF 6
ENDMDL
MODEL 2
REMARK VINA RESULT:    -8.953      2.486      3.876
REMARK INTER + INTRA:         -13.231
REMARK INTER:                 -12.098
REMARK INTRA:                  -1.133
REMARK UNBOUND:                -1.137
REMARK  Name = 
REMARK  6 active torsions:
REMARK  status: ('A' for Active; 'I' for Inactive)
REMARK    1  A    between atoms: C_2  and  C_4
REMARK    2  A    between atoms: C_7  and  N_8
REMARK    3  A    between atoms: N_8  and  C_9
REMARK    4  A    between atoms: C_9  and  C_10
REMARK    5  A    between atoms: C_10  and  C_13
REMARK    6  A    between atoms: C_17  and  C_18
REMARK                            x       y       z     vdW  Elec       q    Type
REMARK                         _______ _______ _______ _____ _____    ______ ____
ROOT
ATOM      1  C   UNL     1      44.013   4.917  12.383  0.00  0.00    +0.000 C 
ATOM      2  F   UNL     1      43.083   5.377  13.272  0.00  0.00    +0.000 F 
ATOM      3  F   UNL     1      43.839   3.560  12.348  0.00  0.00    +0.000 F 
ENDROOT
BRANCH   1   4
ATOM      4  C   UNL     1      45.422   5.303  12.785  0.00  0.00    +0.000 A 
ATOM      5  C   UNL     1      46.165   6.196  12.010  0.00  0.00    +0.000 A 
ATOM      6  C   UNL     1      47.439   6.581  12.416  0.00  0.00    +0.000 A 
ATOM      7  C   UNL     1      47.976   6.085  13.606  0.00  0.00    +0.000 A 
ATOM      8  C   UNL     1      47.252   5.202  14.429  0.00  0.00    +0.000 A 
ATOM      9  C   UNL     1      45.975   4.812  13.985  0.00  0.00    +0.000 A 
BRANCH   8  10
ATOM     10  C   UNL     1      47.794   4.734  15.723  0.00  0.00    +0.000 A 
ATOM     11  C   UNL     1      47.517   3.461  16.242  0.00  0.00    +0.000 A 
ATOM     12  C   UNL     1      48.027   3.070  17.481  0.00  0.00    +0.000 A 
ATOM     13  C   UNL     1      48.819   3.963  18.178  0.00  0.00    +0.000 A 
ATOM     14  N   UNL     1      49.119   5.198  17.729  0.00  0.00    +0.000 NA
ATOM     15  C   UNL     1      48.599   5.548  16.527  0.00  0.00    +0.000 A 
ENDBRANCH   8  10
ENDBRANCH   1   4
BRANCH   1  16
ATOM     16  C   UNL     1      43.694   5.480  10.975  0.00  0.00    +0.000 C 
BRANCH  16  17
ATOM     17  N   UNL     1      43.473   4.432   9.968  0.00  0.00    +0.000 N 
ATOM     18  H   UNL     1      42.694   3.807  10.169  0.00  0.00    +0.000 HD
BRANCH  17  22
ATOM     19  C   UNL     1      46.477   2.476   7.751  0.00  0.00    +0.000 A 
ATOM     20  C   UNL     1      46.383   3.868   7.700  0.00  0.00    +0.000 A 
ATOM     21  C   UNL     1      45.409   4.534   8.454  0.00  0.00    +0.000 A 
ATOM     22  C   UNL     1      44.532   3.837   9.293  0.00  0.00    +0.000 A 
ATOM     23  C   UNL     1      44.640   2.440   9.333  0.00  0.00    +0.000 A 
ATOM     24  C   UNL     1      45.598   1.762   8.567  0.00  0.00    +0.000 A 
BRANCH  19  26
ATOM     25  N   UNL     1      48.542   2.400   6.463  0.00  0.00    +0.000 N 
ATOM     26  C   UNL     1      47.441   1.726   6.909  0.00  0.00    +0.000 C 
ATOM     27  O   UNL     1      47.275   0.542   6.642  0.00  0.00    +0.000 OA
ATOM     28  H   UNL     1      49.230   1.851   5.965  0.00  0.00    +0.000 HD
ATOM     29  H   UNL     1      48.837   3.279   6.861  0.00  0.00    +0.000 HD
ENDBRANCH  19  26
ENDBRANCH  17  22
ENDBRANCH  16  17
ENDBRANCH   1  16
TORSDOF 6
ENDMDL
MODEL 3
REMARK VINA RESULT:    -8.019      1.539      2.215
REMARK INTER + INTRA:         -11.969
REMARK INTER:                 -11.187
REMARK INTRA:                  -0.783
REMARK UNBOUND:                -1.137
REMARK  Name = 
REMARK  6 active torsions:
REMARK  status: ('A' for Active; 'I' for Inactive)
REMARK    1  A    between atoms: C_2  and  C_4
REMARK    2  A    between atoms: C_7  and  N_8
REMARK    3  A    between atoms: N_8  and  C_9
REMARK    4  A    between atoms: C_9  and  C_10
REMARK    5  A    between atoms: C_10  and  C_13
REMARK    6  A    between atoms: C_17  and  C_18
REMARK                            x       y       z     vdW  Elec       q    Type
REMARK                         _______ _______ _______ _____ _____    ______ ____
ROOT
ATOM      1  C   UNL     1      44.678   4.742  12.303  0.00  0.00    +0.000 C 
ATOM      2  F   UNL     1      44.271   4.543  13.592  0.00  0.00    +0.000 F 
ATOM      3  F   UNL     1      45.636   3.790  12.076  0.00  0.00    +0.000 F 
ENDROOT
BRANCH   1   4
ATOM      4  C   UNL     1      45.205   6.146  12.085  0.00  0.00    +0.000 A 
ATOM      5  C   UNL     1      44.330   7.205  11.835  0.00  0.00    +0.000 A 
ATOM      6  C   UNL     1      44.821   8.498  11.685  0.00  0.00    +0.000 A 
ATOM      7  C   UNL     1      46.192   8.744  11.796  0.00  0.00    +0.000 A 
ATOM      8  C   UNL     1      47.106   7.711  12.071  0.00  0.00    +0.000 A 
ATOM      9  C   UNL     1      46.585   6.410  12.196  0.00  0.00    +0.000 A 
BRANCH   8  10
ATOM     10  C   UNL     1      48.547   7.985  12.257  0.00  0.00    +0.000 A 
ATOM     11  C   UNL     1      49.511   7.651  11.295  0.00  0.00    +0.000 A 
ATOM     12  C   UNL     1      50.865   7.902  11.525  0.00  0.00    +0.000 A 
ATOM     13  C   UNL     1      51.230   8.497  12.718  0.00  0.00    +0.000 A 
ATOM     14  N   UNL     1      50.349   8.841  13.678  0.00  0.00    +0.000 NA
ATOM     15  C   UNL     1      49.044   8.573  13.426  0.00  0.00    +0.000 A 
ENDBRANCH   8  10
ENDBRANCH   1   4
BRANCH   1  16
ATOM     16  C   UNL     1      43.491   4.470  11.345  0.00  0.00    +0.000 C 
BRANCH  16  17
ATOM     17  N   UNL     1      43.810   4.745   9.936  0.00  0.00    +0.000 N 
ATOM     18  H   UNL     1      43.017   5.047   9.372  0.00  0.00    +0.000 HD
BRANCH  17  22
ATOM     19  C   UNL     1      46.462   2.360   7.690  0.00  0.00    +0.000 A 
ATOM     20  C   UNL     1      46.537   3.751   7.589  0.00  0.00    +0.000 A 
ATOM     21  C   UNL     1      45.682   4.557   8.352  0.00  0.00    +0.000 A 
ATOM     22  C   UNL     1      44.760   4.001   9.247  0.00  0.00    +0.000 A 
ATOM     23  C   UNL     1      44.698   2.604   9.336  0.00  0.00    +0.000 A 
ATOM     24  C   UNL     1      45.535   1.788   8.563  0.00  0.00    +0.000 A 
BRANCH  19  26
ATOM     25  N   UNL     1      48.321   2.041   6.150  0.00  0.00    +0.000 N 
ATOM     26  C   UNL     1      47.292   1.470   6.843  0.00  0.00    +0.000 C 
ATOM     27  O   UNL     1      47.085   0.263   6.783  0.00  0.00    +0.000 OA
ATOM     28  H   UNL     1      48.929   1.407   5.649  0.00  0.00    +0.000 HD
ATOM     29  H   UNL     1      48.674   2.962   6.366  0.00  0.00    +0.000 HD
ENDBRANCH  19  26
ENDBRANCH  17  22
ENDBRANCH  16  17
ENDBRANCH   1  16
TORSDOF 6
ENDMDL
MODEL 4
REMARK VINA RESULT:    -7.851      1.557      2.212
REMARK INTER + INTRA:         -11.742
REMARK INTER:                 -10.928
REMARK INTRA:                  -0.815
REMARK UNBOUND:                -1.137
REMARK  Name = 
REMARK  6 active torsions:
REMARK  status: ('A' for Active; 'I' for Inactive)
REMARK    1  A    between atoms: C_2  and  C_4
REMARK    2  A    between atoms: C_7  and  N_8
REMARK    3  A    between atoms: N_8  and  C_9
REMARK    4  A    between atoms: C_9  and  C_10
REMARK    5  A    between atoms: C_10  and  C_13
REMARK    6  A    between atoms: C_17  and  C_18
REMARK                            x       y       z     vdW  Elec       q    Type
REMARK                         _______ _______ _______ _____ _____    ______ ____
ROOT
ATOM      1  C   UNL     1      45.181   5.541  12.248  0.00  0.00    +0.000 C 
ATOM      2  F   UNL     1      44.078   5.822  13.005  0.00  0.00    +0.000 F 
ATOM      3  F   UNL     1      45.266   4.175  12.228  0.00  0.00    +0.000 F 
ENDROOT
BRANCH   1   4
ATOM      4  C   UNL     1      46.432   6.184  12.810  0.00  0.00    +0.000 A 
ATOM      5  C   UNL     1      47.085   5.627  13.913  0.00  0.00    +0.000 A 
ATOM      6  C   UNL     1      48.261   6.198  14.391  0.00  0.00    +0.000 A 
ATOM      7  C   UNL     1      48.801   7.322  13.761  0.00  0.00    +0.000 A 
ATOM      8  C   UNL     1      48.190   7.899  12.633  0.00  0.00    +0.000 A 
ATOM      9  C   UNL     1      46.990   7.317  12.184  0.00  0.00    +0.000 A 
BRANCH   8  10
ATOM     10  C   UNL     1      48.801   9.046  11.926  0.00  0.00    +0.000 A 
ATOM     11  C   UNL     1      48.061  10.167  11.524  0.00  0.00    +0.000 A 
ATOM     12  C   UNL     1      48.673  11.215  10.834  0.00  0.00    +0.000 A 
ATOM     13  C   UNL     1      50.026  11.124  10.566  0.00  0.00    +0.000 A 
ATOM     14  N   UNL     1      50.787  10.073  10.929  0.00  0.00    +0.000 NA
ATOM     15  C   UNL     1      50.158   9.069  11.588  0.00  0.00    +0.000 A 
ENDBRANCH   8  10
ENDBRANCH   1   4
BRANCH   1  16
ATOM     16  C   UNL     1      44.943   6.031  10.798  0.00  0.00    +0.000 C 
BRANCH  16  17
ATOM     17  N   UNL     1      44.145   5.094   9.994  0.00  0.00    +0.000 N 
ATOM     18  H   UNL     1      43.227   4.877  10.379  0.00  0.00    +0.000 HD
BRANCH  17  22
ATOM     19  C   UNL     1      46.211   2.024   7.975  0.00  0.00    +0.000 A 
ATOM     20  C   UNL     1      45.239   1.690   8.920  0.00  0.00    +0.000 A 
ATOM     21  C   UNL     1      44.524   2.699   9.578  0.00  0.00    +0.000 A 
ATOM     22  C   UNL     1      44.737   4.052   9.290  0.00  0.00    +0.000 A 
ATOM     23  C   UNL     1      45.716   4.370   8.338  0.00  0.00    +0.000 A 
ATOM     24  C   UNL     1      46.452   3.369   7.689  0.00  0.00    +0.000 A 
BRANCH  19  26
ATOM     25  N   UNL     1      46.787  -0.314   7.618  0.00  0.00    +0.000 N 
ATOM     26  C   UNL     1      47.046   0.992   7.314  0.00  0.00    +0.000 C 
ATOM     27  O   UNL     1      47.919   1.290   6.507  0.00  0.00    +0.000 OA
ATOM     28  H   UNL     1      47.306  -1.006   7.094  0.00  0.00    +0.000 HD
ATOM     29  H   UNL     1      45.933  -0.607   8.069  0.00  0.00    +0.000 HD
ENDBRANCH  19  26
ENDBRANCH  17  22
ENDBRANCH  16  17
ENDBRANCH   1  16
TORSDOF 6
ENDMDL
MODEL 5
REMARK VINA RESULT:    -7.611      3.452      7.139
REMARK INTER + INTRA:         -11.418
REMARK INTER:                 -10.429
REMARK INTRA:                  -0.989
REMARK UNBOUND:                -1.137
REMARK  Name = 
REMARK  6 active torsions:
REMARK  status: ('A' for Active; 'I' for Inactive)
REMARK    1  A    between atoms: C_2  and  C_4
REMARK    2  A    between atoms: C_7  and  N_8
REMARK    3  A    between atoms: N_8  and  C_9
REMARK    4  A    between atoms: C_9  and  C_10
REMARK    5  A    between atoms: C_10  and  C_13
REMARK    6  A    between atoms: C_17  and  C_18
REMARK                            x       y       z     vdW  Elec       q    Type
REMARK                         _______ _______ _______ _____ _____    ______ ____
ROOT
ATOM      1  C   UNL     1      45.447   7.222  11.838  0.00  0.00    +0.000 C 
ATOM      2  F   UNL     1      45.028   7.540  13.098  0.00  0.00    +0.000 F 
ATOM      3  F   UNL     1      45.066   8.278  11.054  0.00  0.00    +0.000 F 
ENDROOT
BRANCH   1   4
ATOM      4  C   UNL     1      44.858   5.911  11.358  0.00  0.00    +0.000 A 
ATOM      5  C   UNL     1      43.630   5.460  11.848  0.00  0.00    +0.000 A 
ATOM      6  C   UNL     1      43.076   4.279  11.363  0.00  0.00    +0.000 A 
ATOM      7  C   UNL     1      43.739   3.546  10.376  0.00  0.00    +0.000 A 
ATOM      8  C   UNL     1      44.965   3.977   9.838  0.00  0.00    +0.000 A 
ATOM      9  C   UNL     1      45.515   5.162  10.360  0.00  0.00    +0.000 A 
BRANCH   8  10
ATOM     10  C   UNL     1      45.630   3.237   8.743  0.00  0.00    +0.000 A 
ATOM     11  C   UNL     1      45.791   1.844   8.761  0.00  0.00    +0.000 A 
ATOM     12  C   UNL     1      46.450   1.189   7.720  0.00  0.00    +0.000 A 
ATOM     13  C   UNL     1      46.931   1.945   6.667  0.00  0.00    +0.000 A 
ATOM     14  N   UNL     1      46.805   3.285   6.595  0.00  0.00    +0.000 NA
ATOM     15  C   UNL     1      46.168   3.889   7.629  0.00  0.00    +0.000 A 
ENDBRANCH   8  10
ENDBRANCH   1   4
BRANCH   1  16
ATOM     16  C   UNL     1      46.995   7.142  11.820  0.00  0.00    +0.000 C 
BRANCH  16  17
ATOM     17  N   UNL     1      47.599   7.327  13.147  0.00  0.00    +0.000 N 
ATOM     18  H   UNL     1      48.384   7.976  13.171  0.00  0.00    +0.000 HD
BRANCH  17  22
ATOM     19  C   UNL     1      47.706   4.334  16.113  0.00  0.00    +0.000 A 
ATOM     20  C   UNL     1      47.045   4.083  14.908  0.00  0.00    +0.000 A 
ATOM     21  C   UNL     1      47.027   5.057  13.902  0.00  0.00    +0.000 A 
ATOM     22  C   UNL     1      47.685   6.282  14.059  0.00  0.00    +0.000 A 
ATOM     23  C   UNL     1      48.344   6.517  15.274  0.00  0.00    +0.000 A 
ATOM     24  C   UNL     1      48.352   5.558  16.295  0.00  0.00    +0.000 A 
BRANCH  19  26
ATOM     25  N   UNL     1      48.851   3.158  17.911  0.00  0.00    +0.000 N 
ATOM     26  C   UNL     1      47.683   3.363  17.233  0.00  0.00    +0.000 C 
ATOM     27  O   UNL     1      46.655   2.782  17.560  0.00  0.00    +0.000 OA
ATOM     28  H   UNL     1      48.796   2.560  18.725  0.00  0.00    +0.000 HD
ATOM     29  H   UNL     1      49.636   3.788  17.840  0.00  0.00    +0.000 HD
ENDBRANCH  19  26
ENDBRANCH  17  22
ENDBRANCH  16  17
ENDBRANCH   1  16
TORSDOF 6
ENDMDL
MODEL 6
REMARK VINA RESULT:    -7.368      3.117      7.098
REMARK INTER + INTRA:         -11.089
REMARK INTER:                 -10.139
REMARK INTRA:                  -0.950
REMARK UNBOUND:                -1.137
REMARK  Name = 
REMARK  6 active torsions:
REMARK  status: ('A' for Active; 'I' for Inactive)
REMARK    1  A    between atoms: C_2  and  C_4
REMARK    2  A    between atoms: C_7  and  N_8
REMARK    3  A    between atoms: N_8  and  C_9
REMARK    4  A    between atoms: C_9  and  C_10
REMARK    5  A    between atoms: C_10  and  C_13
REMARK    6  A    between atoms: C_17  and  C_18
REMARK                            x       y       z     vdW  Elec       q    Type
REMARK                         _______ _______ _______ _____ _____    ______ ____
ROOT
ATOM      1  C   UNL     1      44.465   6.375  11.394  0.00  0.00    +0.000 C 
ATOM      2  F   UNL     1      43.241   6.976  11.313  0.00  0.00    +0.000 F 
ATOM      3  F   UNL     1      45.291   7.131  10.605  0.00  0.00    +0.000 F 
ENDROOT
BRANCH   1   4
ATOM      4  C   UNL     1      44.418   4.927  10.950  0.00  0.00    +0.000 A 
ATOM      5  C   UNL     1      43.553   4.020  11.568  0.00  0.00    +0.000 A 
ATOM      6  C   UNL     1      43.482   2.705  11.119  0.00  0.00    +0.000 A 
ATOM      7  C   UNL     1      44.266   2.289  10.040  0.00  0.00    +0.000 A 
ATOM      8  C   UNL     1      45.132   3.176   9.374  0.00  0.00    +0.000 A 
ATOM      9  C   UNL     1      45.201   4.494   9.861  0.00  0.00    +0.000 A 
BRANCH   8  10
ATOM     10  C   UNL     1      45.908   2.751   8.188  0.00  0.00    +0.000 A 
ATOM     11  C   UNL     1      46.129   3.593   7.088  0.00  0.00    +0.000 A 
ATOM     12  C   UNL     1      46.844   3.142   5.978  0.00  0.00    +0.000 A 
ATOM     13  C   UNL     1      47.336   1.850   5.993  0.00  0.00    +0.000 A 
ATOM     14  N   UNL     1      47.156   0.998   7.021  0.00  0.00    +0.000 NA
ATOM     15  C   UNL     1      46.449   1.466   8.079  0.00  0.00    +0.000 A 
ENDBRANCH   8  10
ENDBRANCH   1   4
BRANCH   1  16
ATOM     16  C   UNL     1      44.980   6.462  12.853  0.00  0.00    +0.000 C 
BRANCH  16  17
ATOM     17  N   UNL     1      46.183   5.649  13.092  0.00  0.00    +0.000 N 
ATOM     18  H   UNL     1      46.034   4.833  13.683  0.00  0.00    +0.000 HD
BRANCH  17  22
ATOM     19  C   UNL     1      49.872   7.670  13.358  0.00  0.00    +0.000 A 
ATOM     20  C   UNL     1      49.303   7.126  14.512  0.00  0.00    +0.000 A 
ATOM     21  C   UNL     1      48.092   6.426  14.434  0.00  0.00    +0.000 A 
ATOM     22  C   UNL     1      47.440   6.228  13.211  0.00  0.00    +0.000 A 
ATOM     23  C   UNL     1      48.024   6.782  12.063  0.00  0.00    +0.000 A 
ATOM     24  C   UNL     1      49.225   7.501  12.133  0.00  0.00    +0.000 A 
BRANCH  19  26
ATOM     25  N   UNL     1      52.131   8.030  14.191  0.00  0.00    +0.000 N 
ATOM     26  C   UNL     1      51.109   8.485  13.408  0.00  0.00    +0.000 C 
ATOM     27  O   UNL     1      51.228   9.516  12.754  0.00  0.00    +0.000 OA
ATOM     28  H   UNL     1      52.997   8.550  14.144  0.00  0.00    +0.000 HD
ATOM     29  H   UNL     1      52.169   7.081  14.535  0.00  0.00    +0.000 HD
ENDBRANCH  19  26
ENDBRANCH  17  22
ENDBRANCH  16  17
ENDBRANCH   1  16
TORSDOF 6
ENDMDL
MODEL 7
REMARK VINA RESULT:    -7.014      4.277      7.652
REMARK INTER + INTRA:         -10.611
REMARK INTER:                  -9.424
REMARK INTRA:                  -1.187
REMARK UNBOUND:                -1.137
REMARK  Name = 
REMARK  6 active torsions:
REMARK  status: ('A' for Active; 'I' for Inactive)
REMARK    1  A    between atoms: C_2  and  C_4
REMARK    2  A    between atoms: C_7  and  N_8
REMARK    3  A    between atoms: N_8  and  C_9
REMARK    4  A    between atoms: C_9  and  C_10
REMARK    5  A    between atoms: C_10  and  C_13
REMARK    6  A    between atoms: C_17  and  C_18
REMARK                            x       y       z     vdW  Elec       q    Type
REMARK                         _______ _______ _______ _____ _____    ______ ____
ROOT
ATOM      1  C   UNL     1      48.858   8.134  12.286  0.00  0.00    +0.000 C 
ATOM      2  F   UNL     1      49.236   9.167  11.475  0.00  0.00    +0.000 F 
ATOM      3  F   UNL     1      49.684   7.094  11.953  0.00  0.00    +0.000 F 
ENDROOT
BRANCH   1   4
ATOM      4  C   UNL     1      47.395   7.782  12.110  0.00  0.00    +0.000 A 
ATOM      5  C   UNL     1      46.394   8.647  12.559  0.00  0.00    +0.000 A 
ATOM      6  C   UNL     1      45.055   8.336  12.348  0.00  0.00    +0.000 A 
ATOM      7  C   UNL     1      44.704   7.163  11.675  0.00  0.00    +0.000 A 
ATOM      8  C   UNL     1      45.680   6.276  11.185  0.00  0.00    +0.000 A 
ATOM      9  C   UNL     1      47.027   6.603  11.430  0.00  0.00    +0.000 A 
BRANCH   8  10
ATOM     10  C   UNL     1      45.309   5.071  10.411  0.00  0.00    +0.000 A 
ATOM     11  C   UNL     1      45.623   4.918   9.053  0.00  0.00    +0.000 A 
ATOM     12  C   UNL     1      45.229   3.776   8.355  0.00  0.00    +0.000 A 
ATOM     13  C   UNL     1      44.530   2.796   9.036  0.00  0.00    +0.000 A 
ATOM     14  N   UNL     1      44.202   2.888  10.340  0.00  0.00    +0.000 NA
ATOM     15  C   UNL     1      44.592   4.016  10.985  0.00  0.00    +0.000 A 
ENDBRANCH   8  10
ENDBRANCH   1   4
BRANCH   1  16
ATOM     16  C   UNL     1      49.134   8.517  13.762  0.00  0.00    +0.000 C 
BRANCH  16  17
ATOM     17  N   UNL     1      49.946   7.520  14.475  0.00  0.00    +0.000 N 
ATOM     18  H   UNL     1      50.719   7.136  13.935  0.00  0.00    +0.000 HD
BRANCH  17  22
ATOM     19  C   UNL     1      48.252   4.614  17.016  0.00  0.00    +0.000 A 
ATOM     20  C   UNL     1      49.444   5.240  17.388  0.00  0.00    +0.000 A 
ATOM     21  C   UNL     1      50.003   6.229  16.568  0.00  0.00    +0.000 A 
ATOM     22  C   UNL     1      49.378   6.634  15.383  0.00  0.00    +0.000 A 
ATOM     23  C   UNL     1      48.183   5.996  15.025  0.00  0.00    +0.000 A 
ATOM     24  C   UNL     1      47.625   4.991  15.827  0.00  0.00    +0.000 A 
BRANCH  19  26
ATOM     25  N   UNL     1      48.296   3.176  18.980  0.00  0.00    +0.000 N 
ATOM     26  C   UNL     1      47.669   3.509  17.813  0.00  0.00    +0.000 C 
ATOM     27  O   UNL     1      46.649   2.928  17.458  0.00  0.00    +0.000 OA
ATOM     28  H   UNL     1      47.836   2.481  19.552  0.00  0.00    +0.000 HD
ATOM     29  H   UNL     1      48.971   3.781  19.423  0.00  0.00    +0.000 HD
ENDBRANCH  19  26
ENDBRANCH  17  22
ENDBRANCH  16  17
ENDBRANCH   1  16
TORSDOF 6
ENDMDL
MODEL 8
REMARK VINA RESULT:    -6.637      3.542      7.789
REMARK INTER + INTRA:         -10.103
REMARK INTER:                  -9.218
REMARK INTRA:                  -0.885
REMARK UNBOUND:                -1.137
REMARK  Name = 
REMARK  6 active torsions:
REMARK  status: ('A' for Active; 'I' for Inactive)
REMARK    1  A    between atoms: C_2  and  C_4
REMARK    2  A    between atoms: C_7  and  N_8
REMARK    3  A    between atoms: N_8  and  C_9
REMARK    4  A    between atoms: C_9  and  C_10
REMARK    5  A    between atoms: C_10  and  C_13
REMARK    6  A    between atoms: C_17  and  C_18
REMARK                            x       y       z     vdW  Elec       q    Type
REMARK                         _______ _______ _______ _____ _____    ______ ____
ROOT
ATOM      1  C   UNL     1      44.783   6.093  11.867  0.00  0.00    +0.000 C 
ATOM      2  F   UNL     1      44.534   6.108  13.210  0.00  0.00    +0.000 F 
ATOM      3  F   UNL     1      43.929   7.019  11.331  0.00  0.00    +0.000 F 
ENDROOT
BRANCH   1   4
ATOM      4  C   UNL     1      44.582   4.716  11.268  0.00  0.00    +0.000 A 
ATOM      5  C   UNL     1      43.616   3.849  11.784  0.00  0.00    +0.000 A 
ATOM      6  C   UNL     1      43.406   2.606  11.195  0.00  0.00    +0.000 A 
ATOM      7  C   UNL     1      44.152   2.224  10.077  0.00  0.00    +0.000 A 
ATOM      8  C   UNL     1      45.117   3.076   9.511  0.00  0.00    +0.000 A 
ATOM      9  C   UNL     1      45.326   4.318  10.139  0.00  0.00    +0.000 A 
BRANCH   8  10
ATOM     10  C   UNL     1      45.856   2.699   8.286  0.00  0.00    +0.000 A 
ATOM     11  C   UNL     1      46.055   3.587   7.219  0.00  0.00    +0.000 A 
ATOM     12  C   UNL     1      46.734   3.181   6.070  0.00  0.00    +0.000 A 
ATOM     13  C   UNL     1      47.214   1.885   6.013  0.00  0.00    +0.000 A 
ATOM     14  N   UNL     1      47.053   0.989   7.006  0.00  0.00    +0.000 NA
ATOM     15  C   UNL     1      46.380   1.415   8.104  0.00  0.00    +0.000 A 
ENDBRANCH   8  10
ENDBRANCH   1   4
BRANCH   1  16
ATOM     16  C   UNL     1      46.235   6.571  11.612  0.00  0.00    +0.000 C 
BRANCH  16  17
ATOM     17  N   UNL     1      46.600   7.759  12.399  0.00  0.00    +0.000 N 
ATOM     18  H   UNL     1      46.708   8.613  11.854  0.00  0.00    +0.000 HD
BRANCH  17  22
ATOM     19  C   UNL     1      48.900   7.601  15.927  0.00  0.00    +0.000 A 
ATOM     20  C   UNL     1      48.605   6.417  15.246  0.00  0.00    +0.000 A 
ATOM     21  C   UNL     1      47.867   6.457  14.057  0.00  0.00    +0.000 A 
ATOM     22  C   UNL     1      47.434   7.669  13.506  0.00  0.00    +0.000 A 
ATOM     23  C   UNL     1      47.738   8.847  14.202  0.00  0.00    +0.000 A 
ATOM     24  C   UNL     1      48.459   8.817  15.403  0.00  0.00    +0.000 A 
BRANCH  19  26
ATOM     25  N   UNL     1      48.931   8.070  18.316  0.00  0.00    +0.000 N 
ATOM     26  C   UNL     1      49.609   7.597  17.229  0.00  0.00    +0.000 C 
ATOM     27  O   UNL     1      50.751   7.164  17.338  0.00  0.00    +0.000 OA
ATOM     28  H   UNL     1      49.397   7.978  19.208  0.00  0.00    +0.000 HD
ATOM     29  H   UNL     1      47.929   8.194  18.317  0.00  0.00    +0.000 HD
ENDBRANCH  19  26
ENDBRANCH  17  22
ENDBRANCH  16  17
ENDBRANCH   1  16
TORSDOF 6
ENDMDL
MODEL 9
REMARK VINA RESULT:    -6.627      3.974      6.046
REMARK INTER + INTRA:         -10.089
REMARK INTER:                  -8.758
REMARK INTRA:                  -1.331
REMARK UNBOUND:                -1.137
REMARK  Name = 
REMARK  6 active torsions:
REMARK  status: ('A' for Active; 'I' for Inactive)
REMARK    1  A    between atoms: C_2  and  C_4
REMARK    2  A    between atoms: C_7  and  N_8
REMARK    3  A    between atoms: N_8  and  C_9
REMARK    4  A    between atoms: C_9  and  C_10
REMARK    5  A    between atoms: C_10  and  C_13
REMARK    6  A    between atoms: C_17  and  C_18
REMARK                            x       y       z     vdW  Elec       q    Type
REMARK                         _______ _______ _______ _____ _____    ______ ____
ROOT
ATOM      1  C   UNL     1      48.184   8.225  12.511  0.00  0.00    +0.000 C 
ATOM      2  F   UNL     1      48.370   7.046  11.846  0.00  0.00    +0.000 F 
ATOM      3  F   UNL     1      49.014   9.122  11.892  0.00  0.00    +0.000 F 
ENDROOT
BRANCH   1   4
ATOM      4  C   UNL     1      48.483   8.096  13.990  0.00  0.00    +0.000 A 
ATOM      5  C   UNL     1      48.660   9.232  14.784  0.00  0.00    +0.000 A 
ATOM      6  C   UNL     1      48.885   9.102  16.150  0.00  0.00    +0.000 A 
ATOM      7  C   UNL     1      48.924   7.835  16.737  0.00  0.00    +0.000 A 
ATOM      8  C   UNL     1      48.727   6.666  15.980  0.00  0.00    +0.000 A 
ATOM      9  C   UNL     1      48.523   6.824  14.597  0.00  0.00    +0.000 A 
BRANCH   8  10
ATOM     10  C   UNL     1      48.699   5.330  16.615  0.00  0.00    +0.000 A 
ATOM     11  C   UNL     1      47.642   4.428  16.430  0.00  0.00    +0.000 A 
ATOM     12  C   UNL     1      47.642   3.188  17.071  0.00  0.00    +0.000 A 
ATOM     13  C   UNL     1      48.714   2.869  17.884  0.00  0.00    +0.000 A 
ATOM     14  N   UNL     1      49.757   3.694  18.098  0.00  0.00    +0.000 NA
ATOM     15  C   UNL     1      49.719   4.894  17.468  0.00  0.00    +0.000 A 
ENDBRANCH   8  10
ENDBRANCH   1   4
BRANCH   1  16
ATOM     16  C   UNL     1      46.723   8.701  12.308  0.00  0.00    +0.000 C 
BRANCH  16  17
ATOM     17  N   UNL     1      45.734   7.825  12.954  0.00  0.00    +0.000 N 
ATOM     18  H   UNL     1      45.739   7.856  13.972  0.00  0.00    +0.000 HD
BRANCH  17  22
ATOM     19  C   UNL     1      44.458   4.079  11.505  0.00  0.00    +0.000 A 
ATOM     20  C   UNL     1      44.527   5.165  10.630  0.00  0.00    +0.000 A 
ATOM     21  C   UNL     1      44.978   6.409  11.090  0.00  0.00    +0.000 A 
ATOM     22  C   UNL     1      45.394   6.591  12.414  0.00  0.00    +0.000 A 
ATOM     23  C   UNL     1      45.318   5.490  13.279  0.00  0.00    +0.000 A 
ATOM     24  C   UNL     1      44.850   4.246  12.834  0.00  0.00    +0.000 A 
BRANCH  19  26
ATOM     25  N   UNL     1      44.487   2.170   9.994  0.00  0.00    +0.000 N 
ATOM     26  C   UNL     1      43.912   2.767  11.079  0.00  0.00    +0.000 C 
ATOM     27  O   UNL     1      42.999   2.222  11.688  0.00  0.00    +0.000 OA
ATOM     28  H   UNL     1      44.162   1.238   9.772  0.00  0.00    +0.000 HD
ATOM     29  H   UNL     1      45.384   2.456   9.630  0.00  0.00    +0.000 HD
ENDBRANCH  19  26
ENDBRANCH  17  22
ENDBRANCH  16  17
ENDBRANCH   1  16
TORSDOF 6
ENDMDL
