MODEL 1
REMARK VINA RESULT:    -8.234      0.000      0.000
REMARK INTER + INTRA:         -11.519
REMARK INTER:                 -10.640
REMARK INTRA:                  -0.878
REMARK UNBOUND:                -0.878
REMARK  Name = 
REMARK  6 active torsions:
REMARK  status: ('A' for Active; 'I' for Inactive)
REMARK    1  A    between atoms: C_1  and  C_2
REMARK    2  A    between atoms: C_5  and  C_6
REMARK    3  A    between atoms: C_6  and  C_7
REMARK    4  A    between atoms: C_10  and  C_11
REMARK    5  A    between atoms: C_11  and  N_12
REMARK    6  A    between atoms: C_13  and  C_15
REMARK                            x       y       z     vdW  Elec       q    Type
REMARK                         _______ _______ _______ _____ _____    ______ ____
ROOT
ATOM      1  C   UNL     1      47.274   8.145  13.570  0.00  0.00    +0.000 C 
ENDROOT
BRANCH   1   5
ATOM      2  C   UNL     1      44.847   5.664  11.094  0.00  0.00    +0.000 A 
ATOM      3  C   UNL     1      44.478   6.996  11.266  0.00  0.00    +0.000 A 
ATOM      4  C   UNL     1      45.263   7.814  12.077  0.00  0.00    +0.000 A 
ATOM      5  C   UNL     1      46.393   7.293  12.707  0.00  0.00    +0.000 A 
ATOM      6  C   UNL     1      46.692   5.957  12.468  0.00  0.00    +0.000 A 
ATOM      7  N   UNL     1      45.948   5.138  11.686  0.00  0.00    +0.000 NA
BRANCH   2   8
ATOM      8  C   UNL     1      44.017   4.742  10.230  0.00  0.00    +0.000 C 
BRANCH   8  13
ATOM      9  C   UNL     1      47.342   1.670   6.661  0.00  0.00    +0.000 C 
ATOM     10  C   UNL     1      46.418   2.419   7.575  0.00  0.00    +0.000 A 
ATOM     11  C   UNL     1      45.675   1.755   8.546  0.00  0.00    +0.000 A 
ATOM     12  C   UNL     1      44.862   2.499   9.399  0.00  0.00    +0.000 A 
ATOM     13  C   UNL     1      44.805   3.888   9.271  0.00  0.00    +0.000 A 
ATOM     14  C   UNL     1      45.566   4.461   8.257  0.00  0.00    +0.000 A 
ATOM     15  N   UNL     1      46.362   3.761   7.413  0.00  0.00    +0.000 NA
ENDBRANCH   8  13
ENDBRANCH   2   8
ENDBRANCH   1   5
BRANCH   1  16
ATOM     16  N   UNL     1      47.657   7.459  14.780  0.00  0.00    +0.000 N 
ATOM     17  C   UNL     1      48.899   6.887  14.902  0.00  0.00    +0.000 C 
ATOM     18  O   UNL     1      49.742   6.980  14.013  0.00  0.00    +0.000 OA
ATOM     19  H   UNL     1      46.916   7.184  15.420  0.00  0.00    +0.000 HD
BRANCH  17  20
ATOM     20  C   UNL     1      49.197   6.208  16.170  0.00  0.00    +0.000 A 
ATOM     21  C   UNL     1      50.237   6.671  16.965  0.00  0.00    +0.000 A 
ATOM     22  S   UNL     1      50.433   5.795  18.415  0.00  0.00    +0.000 S 
ATOM     23  C   UNL     1      49.164   4.736  18.010  0.00  0.00    +0.000 A 
ATOM     24  N   UNL     1      48.826   3.706  18.831  0.00  0.00    +0.000 NA
ATOM     25  C   UNL     1      47.864   2.967  18.390  0.00  0.00    +0.000 A 
ATOM     26  N   UNL     1      47.204   3.167  17.206  0.00  0.00    +0.000 N 
ATOM     27  C   UNL     1      47.498   4.207  16.354  0.00  0.00    +0.000 A 
ATOM     28  O   UNL     1      46.870   4.376  15.315  0.00  0.00    +0.000 OA
ATOM     29  C   UNL     1      48.584   5.060  16.797  0.00  0.00    +0.000 A 
ATOM     30  H   UNL     1      46.450   2.558  16.925  0.00  0.00    +0.000 HD
ENDBRANCH  17  20
ENDBRANCH   1  16
TORSDOF 5
ENDMDL
MODEL 2
REMARK VINA RESULT:    -7.550      1.977      2.338
REMARK INTER + INTRA:         -10.636
REMARK INTER:                  -9.711
REMARK INTRA:                  -0.924
REMARK UNBOUND:                -0.878
REMARK  Name = 
REMARK  6 active torsions:
REMARK  status: ('A' for Active; 'I' for Inactive)
REMARK    1  A    between atoms: C_1  and  C_2
REMARK    2  A    between atoms: C_5  and  C_6
REMARK    3  A    between atoms: C_6  and  C_7
REMARK    4  A    between atoms: C_10  and  C_11
REMARK    5  A    between atoms: C_11  and  N_12
REMARK    6  A    between atoms: C_13  and  C_15
REMARK                            x       y       z     vdW  Elec       q    Type
REMARK                         _______ _______ _______ _____ _____    ______ ____
ROOT
ATOM      1  C   UNL     1      47.861   7.876  13.820  0.00  0.00    +0.000 C 
ENDROOT
BRANCH   1   5
ATOM      2  C   UNL     1      45.223   5.583  11.378  0.00  0.00    +0.000 A 
ATOM      3  C   UNL     1      45.141   6.972  11.324  0.00  0.00    +0.000 A 
ATOM      4  C   UNL     1      45.995   7.731  12.121  0.00  0.00    +0.000 A 
ATOM      5  C   UNL     1      46.910   7.096  12.962  0.00  0.00    +0.000 A 
ATOM      6  C   UNL     1      46.930   5.707  12.942  0.00  0.00    +0.000 A 
ATOM      7  N   UNL     1      46.112   4.943  12.179  0.00  0.00    +0.000 NA
BRANCH   2   8
ATOM      8  C   UNL     1      44.307   4.724  10.536  0.00  0.00    +0.000 C 
BRANCH   8  13
ATOM      9  C   UNL     1      47.256   1.872   6.488  0.00  0.00    +0.000 C 
ATOM     10  C   UNL     1      46.428   2.566   7.527  0.00  0.00    +0.000 A 
ATOM     11  C   UNL     1      45.738   1.845   8.496  0.00  0.00    +0.000 A 
ATOM     12  C   UNL     1      45.015   2.537   9.465  0.00  0.00    +0.000 A 
ATOM     13  C   UNL     1      44.994   3.933   9.454  0.00  0.00    +0.000 A 
ATOM     14  C   UNL     1      45.695   4.567   8.434  0.00  0.00    +0.000 A 
ATOM     15  N   UNL     1      46.403   3.919   7.478  0.00  0.00    +0.000 NA
ENDBRANCH   8  13
ENDBRANCH   2   8
ENDBRANCH   1   5
BRANCH   1  16
ATOM     16  N   UNL     1      47.863   7.398  15.182  0.00  0.00    +0.000 N 
ATOM     17  C   UNL     1      48.971   6.786  15.711  0.00  0.00    +0.000 C 
ATOM     18  O   UNL     1      50.011   6.665  15.067  0.00  0.00    +0.000 OA
ATOM     19  H   UNL     1      46.964   7.288  15.643  0.00  0.00    +0.000 HD
BRANCH  17  20
ATOM     20  C   UNL     1      48.878   6.330  17.104  0.00  0.00    +0.000 A 
ATOM     21  C   UNL     1      49.253   5.032  17.425  0.00  0.00    +0.000 A 
ATOM     22  S   UNL     1      49.117   4.669  19.085  0.00  0.00    +0.000 S 
ATOM     23  C   UNL     1      48.508   6.220  19.429  0.00  0.00    +0.000 A 
ATOM     24  N   UNL     1      48.150   6.565  20.694  0.00  0.00    +0.000 NA
ATOM     25  C   UNL     1      47.681   7.762  20.808  0.00  0.00    +0.000 A 
ATOM     26  N   UNL     1      47.543   8.650  19.773  0.00  0.00    +0.000 N 
ATOM     27  C   UNL     1      47.912   8.352  18.481  0.00  0.00    +0.000 A 
ATOM     28  O   UNL     1      47.803   9.178  17.582  0.00  0.00    +0.000 OA
ATOM     29  C   UNL     1      48.432   7.012  18.296  0.00  0.00    +0.000 A 
ATOM     30  H   UNL     1      47.180   9.577  19.933  0.00  0.00    +0.000 HD
ENDBRANCH  17  20
ENDBRANCH   1  16
TORSDOF 5
ENDMDL
MODEL 3
REMARK VINA RESULT:    -7.505      2.423      4.268
REMARK INTER + INTRA:         -10.577
REMARK INTER:                  -9.528
REMARK INTRA:                  -1.050
REMARK UNBOUND:                -0.878
REMARK  Name = 
REMARK  6 active torsions:
REMARK  status: ('A' for Active; 'I' for Inactive)
REMARK    1  A    between atoms: C_1  and  C_2
REMARK    2  A    between atoms: C_5  and  C_6
REMARK    3  A    between atoms: C_6  and  C_7
REMARK    4  A    between atoms: C_10  and  C_11
REMARK    5  A    between atoms: C_11  and  N_12
REMARK    6  A    between atoms: C_13  and  C_15
REMARK                            x       y       z     vdW  Elec       q    Type
REMARK                         _______ _______ _______ _____ _____    ______ ____
ROOT
ATOM      1  C   UNL     1      47.177   5.231  14.793  0.00  0.00    +0.000 C 
ENDROOT
BRANCH   1   5
ATOM      2  C   UNL     1      45.027   4.007  11.321  0.00  0.00    +0.000 A 
ATOM      3  C   UNL     1      45.282   5.364  11.501  0.00  0.00    +0.000 A 
ATOM      4  C   UNL     1      45.980   5.775  12.635  0.00  0.00    +0.000 A 
ATOM      5  C   UNL     1      46.405   4.831  13.571  0.00  0.00    +0.000 A 
ATOM      6  C   UNL     1      46.117   3.499  13.303  0.00  0.00    +0.000 A 
ATOM      7  N   UNL     1      45.440   3.070  12.211  0.00  0.00    +0.000 NA
BRANCH   2   8
ATOM      8  C   UNL     1      44.264   3.522  10.109  0.00  0.00    +0.000 C 
BRANCH   8  13
ATOM      9  C   UNL     1      47.787   2.316   5.709  0.00  0.00    +0.000 C 
ATOM     10  C   UNL     1      46.828   2.566   6.835  0.00  0.00    +0.000 A 
ATOM     11  C   UNL     1      46.475   1.550   7.716  0.00  0.00    +0.000 A 
ATOM     12  C   UNL     1      45.613   1.841   8.771  0.00  0.00    +0.000 A 
ATOM     13  C   UNL     1      45.120   3.138   8.930  0.00  0.00    +0.000 A 
ATOM     14  C   UNL     1      45.511   4.082   7.986  0.00  0.00    +0.000 A 
ATOM     15  N   UNL     1      46.345   3.825   6.951  0.00  0.00    +0.000 NA
ENDBRANCH   8  13
ENDBRANCH   2   8
ENDBRANCH   1   5
BRANCH   1  16
ATOM     16  N   UNL     1      47.779   6.533  14.640  0.00  0.00    +0.000 N 
ATOM     17  C   UNL     1      48.983   6.825  15.228  0.00  0.00    +0.000 C 
ATOM     18  O   UNL     1      49.613   5.982  15.863  0.00  0.00    +0.000 OA
ATOM     19  H   UNL     1      47.184   7.291  14.318  0.00  0.00    +0.000 HD
BRANCH  17  20
ATOM     20  C   UNL     1      49.516   8.178  15.018  0.00  0.00    +0.000 A 
ATOM     21  C   UNL     1      49.887   8.945  16.115  0.00  0.00    +0.000 A 
ATOM     22  S   UNL     1      50.515  10.475  15.702  0.00  0.00    +0.000 S 
ATOM     23  C   UNL     1      50.271  10.186  14.043  0.00  0.00    +0.000 A 
ATOM     24  N   UNL     1      50.577  11.133  13.117  0.00  0.00    +0.000 NA
ATOM     25  C   UNL     1      50.319  10.792  11.899  0.00  0.00    +0.000 A 
ATOM     26  N   UNL     1      49.788   9.587  11.521  0.00  0.00    +0.000 N 
ATOM     27  C   UNL     1      49.482   8.591  12.420  0.00  0.00    +0.000 A 
ATOM     28  O   UNL     1      49.034   7.513  12.048  0.00  0.00    +0.000 OA
ATOM     29  C   UNL     1      49.740   8.931  13.806  0.00  0.00    +0.000 A 
ATOM     30  H   UNL     1      49.621   9.378  10.548  0.00  0.00    +0.000 HD
ENDBRANCH  17  20
ENDBRANCH   1  16
TORSDOF 5
ENDMDL
MODEL 4
REMARK VINA RESULT:    -7.302      3.975      9.278
REMARK INTER + INTRA:         -10.315
REMARK INTER:                  -9.685
REMARK INTRA:                  -0.630
REMARK UNBOUND:                -0.878
REMARK  Name = 
REMARK  6 active torsions:
REMARK  status: ('A' for Active; 'I' for Inactive)
REMARK    1  A    between atoms: C_1  and  C_2
REMARK    2  A    between atoms: C_5  and  C_6
REMARK    3  A    between atoms: C_6  and  C_7
REMARK    4  A    between atoms: C_10  and  C_11
REMARK    5  A    between atoms: C_11  and  N_12
REMARK    6  A    between atoms: C_13  and  C_15
REMARK                            x       y       z     vdW  Elec       q    Type
REMARK                         _______ _______ _______ _____ _____    ______ ____
ROOT
ATOM      1  C   UNL     1      47.264   3.441  16.811  0.00  0.00    +0.000 C 
ENDROOT
BRANCH   1   5
ATOM      2  C   UNL     1      51.413   4.062  17.571  0.00  0.00    +0.000 A 
ATOM      3  C   UNL     1      50.948   2.755  17.451  0.00  0.00    +0.000 A 
ATOM      4  C   UNL     1      49.592   2.541  17.207  0.00  0.00    +0.000 A 
ATOM      5  C   UNL     1      48.725   3.628  17.094  0.00  0.00    +0.000 A 
ATOM      6  C   UNL     1      49.280   4.896  17.216  0.00  0.00    +0.000 A 
ATOM      7  N   UNL     1      50.591   5.135  17.454  0.00  0.00    +0.000 NA
BRANCH   2   8
ATOM      8  C   UNL     1      52.875   4.335  17.846  0.00  0.00    +0.000 C 
BRANCH   8  13
ATOM      9  C   UNL     1      55.608  -0.331  19.842  0.00  0.00    +0.000 C 
ATOM     10  C   UNL     1      54.956   0.894  19.273  0.00  0.00    +0.000 A 
ATOM     11  C   UNL     1      54.835   1.071  17.899  0.00  0.00    +0.000 A 
ATOM     12  C   UNL     1      54.185   2.206  17.418  0.00  0.00    +0.000 A 
ATOM     13  C   UNL     1      53.668   3.143  18.315  0.00  0.00    +0.000 A 
ATOM     14  C   UNL     1      53.857   2.893  19.670  0.00  0.00    +0.000 A 
ATOM     15  N   UNL     1      54.487   1.800  20.163  0.00  0.00    +0.000 NA
ENDBRANCH   8  13
ENDBRANCH   2   8
ENDBRANCH   1   5
BRANCH   1  16
ATOM     16  N   UNL     1      46.783   4.397  15.844  0.00  0.00    +0.000 N 
ATOM     17  C   UNL     1      46.848   4.132  14.499  0.00  0.00    +0.000 C 
ATOM     18  O   UNL     1      47.270   3.059  14.073  0.00  0.00    +0.000 OA
ATOM     19  H   UNL     1      46.644   5.354  16.158  0.00  0.00    +0.000 HD
BRANCH  17  20
ATOM     20  C   UNL     1      46.337   5.167  13.591  0.00  0.00    +0.000 A 
ATOM     21  C   UNL     1      47.106   6.295  13.337  0.00  0.00    +0.000 A 
ATOM     22  S   UNL     1      46.387   7.383  12.239  0.00  0.00    +0.000 S 
ATOM     23  C   UNL     1      44.999   6.408  12.099  0.00  0.00    +0.000 A 
ATOM     24  N   UNL     1      43.954   6.789  11.317  0.00  0.00    +0.000 NA
ATOM     25  C   UNL     1      42.957   5.969  11.322  0.00  0.00    +0.000 A 
ATOM     26  N   UNL     1      42.912   4.798  12.033  0.00  0.00    +0.000 N 
ATOM     27  C   UNL     1      43.953   4.362  12.821  0.00  0.00    +0.000 A 
ATOM     28  O   UNL     1      43.893   3.296  13.422  0.00  0.00    +0.000 OA
ATOM     29  C   UNL     1      45.094   5.257  12.861  0.00  0.00    +0.000 A 
ATOM     30  H   UNL     1      42.106   4.195  11.983  0.00  0.00    +0.000 HD
ENDBRANCH  17  20
ENDBRANCH   1  16
TORSDOF 5
ENDMDL
MODEL 5
REMARK VINA RESULT:    -7.112      2.865      3.724
REMARK INTER + INTRA:         -10.069
REMARK INTER:                  -9.113
REMARK INTRA:                  -0.956
REMARK UNBOUND:                -0.878
REMARK  Name = 
REMARK  6 active torsions:
REMARK  status: ('A' for Active; 'I' for Inactive)
REMARK    1  A    between atoms: C_1  and  C_2
REMARK    2  A    between atoms: C_5  and  C_6
REMARK    3  A    between atoms: C_6  and  C_7
REMARK    4  A    between atoms: C_10  and  C_11
REMARK    5  A    between atoms: C_11  and  N_12
REMARK    6  A    between atoms: C_13  and  C_15
REMARK                            x       y       z     vdW  Elec       q    Type
REMARK                         _______ _______ _______ _____ _____    ______ ____
ROOT
ATOM      1  C   UNL     1      47.901   4.959  15.338  0.00  0.00    +0.000 C 
ENDROOT
BRANCH   1   5
ATOM      2  C   UNL     1      45.265   4.279  12.057  0.00  0.00    +0.000 A 
ATOM      3  C   UNL     1      45.865   3.181  12.666  0.00  0.00    +0.000 A 
ATOM      4  C   UNL     1      46.732   3.392  13.737  0.00  0.00    +0.000 A 
ATOM      5  C   UNL     1      46.991   4.691  14.177  0.00  0.00    +0.000 A 
ATOM      6  C   UNL     1      46.338   5.725  13.518  0.00  0.00    +0.000 A 
ATOM      7  N   UNL     1      45.492   5.551  12.475  0.00  0.00    +0.000 NA
BRANCH   2   8
ATOM      8  C   UNL     1      44.326   4.093  10.887  0.00  0.00    +0.000 C 
BRANCH   8  13
ATOM      9  C   UNL     1      47.176   2.708   6.071  0.00  0.00    +0.000 C 
ATOM     10  C   UNL     1      46.378   3.019   7.302  0.00  0.00    +0.000 A 
ATOM     11  C   UNL     1      45.852   2.002   8.093  0.00  0.00    +0.000 A 
ATOM     12  C   UNL     1      45.152   2.340   9.249  0.00  0.00    +0.000 A 
ATOM     13  C   UNL     1      44.990   3.683   9.598  0.00  0.00    +0.000 A 
ATOM     14  C   UNL     1      45.531   4.629   8.734  0.00  0.00    +0.000 A 
ATOM     15  N   UNL     1      46.213   4.328   7.604  0.00  0.00    +0.000 NA
ENDBRANCH   8  13
ENDBRANCH   2   8
ENDBRANCH   1   5
BRANCH   1  16
ATOM     16  N   UNL     1      47.856   6.344  15.740  0.00  0.00    +0.000 N 
ATOM     17  C   UNL     1      49.004   7.093  15.815  0.00  0.00    +0.000 C 
ATOM     18  O   UNL     1      50.098   6.631  15.498  0.00  0.00    +0.000 OA
ATOM     19  H   UNL     1      47.016   6.671  16.210  0.00  0.00    +0.000 HD
BRANCH  17  20
ATOM     20  C   UNL     1      48.859   8.492  16.236  0.00  0.00    +0.000 A 
ATOM     21  C   UNL     1      49.357   9.505  15.426  0.00  0.00    +0.000 A 
ATOM     22  S   UNL     1      49.081  11.072  16.039  0.00  0.00    +0.000 S 
ATOM     23  C   UNL     1      48.327  10.452  17.433  0.00  0.00    +0.000 A 
ATOM     24  N   UNL     1      47.872  11.282  18.409  0.00  0.00    +0.000 NA
ATOM     25  C   UNL     1      47.344  10.678  19.420  0.00  0.00    +0.000 A 
ATOM     26  N   UNL     1      47.224   9.319  19.543  0.00  0.00    +0.000 N 
ATOM     27  C   UNL     1      47.650   8.441  18.572  0.00  0.00    +0.000 A 
ATOM     28  O   UNL     1      47.502   7.231  18.698  0.00  0.00    +0.000 OA
ATOM     29  C   UNL     1      48.265   9.070  17.419  0.00  0.00    +0.000 A 
ATOM     30  H   UNL     1      46.788   8.910  20.355  0.00  0.00    +0.000 HD
ENDBRANCH  17  20
ENDBRANCH   1  16
TORSDOF 5
ENDMDL
MODEL 6
REMARK VINA RESULT:    -6.859      2.971      4.198
REMARK INTER + INTRA:          -9.743
REMARK INTER:                  -8.843
REMARK INTRA:                  -0.900
REMARK UNBOUND:                -0.878
REMARK  Name = 
REMARK  6 active torsions:
REMARK  status: ('A' for Active; 'I' for Inactive)
REMARK    1  A    between atoms: C_1  and  C_2
REMARK    2  A    between atoms: C_5  and  C_6
REMARK    3  A    between atoms: C_6  and  C_7
REMARK    4  A    between atoms: C_10  and  C_11
REMARK    5  A    between atoms: C_11  and  N_12
REMARK    6  A    between atoms: C_13  and  C_15
REMARK                            x       y       z     vdW  Elec       q    Type
REMARK                         _______ _______ _______ _____ _____    ______ ____
ROOT
ATOM      1  C   UNL     1      47.118   6.083  14.308  0.00  0.00    +0.000 C 
ENDROOT
BRANCH   1   5
ATOM      2  C   UNL     1      45.063   4.169  11.100  0.00  0.00    +0.000 A 
ATOM      3  C   UNL     1      45.388   5.516  10.971  0.00  0.00    +0.000 A 
ATOM      4  C   UNL     1      46.056   6.152  12.016  0.00  0.00    +0.000 A 
ATOM      5  C   UNL     1      46.382   5.440  13.171  0.00  0.00    +0.000 A 
ATOM      6  C   UNL     1      46.029   4.097  13.206  0.00  0.00    +0.000 A 
ATOM      7  N   UNL     1      45.380   3.452  12.208  0.00  0.00    +0.000 NA
BRANCH   2   8
ATOM      8  C   UNL     1      44.330   3.445   9.993  0.00  0.00    +0.000 C 
BRANCH   8  13
ATOM      9  C   UNL     1      47.819   2.268   5.557  0.00  0.00    +0.000 C 
ATOM     10  C   UNL     1      46.873   2.507   6.697  0.00  0.00    +0.000 A 
ATOM     11  C   UNL     1      46.614   1.514   7.635  0.00  0.00    +0.000 A 
ATOM     12  C   UNL     1      45.760   1.797   8.700  0.00  0.00    +0.000 A 
ATOM     13  C   UNL     1      45.182   3.063   8.810  0.00  0.00    +0.000 A 
ATOM     14  C   UNL     1      45.481   3.984   7.812  0.00  0.00    +0.000 A 
ATOM     15  N   UNL     1      46.305   3.734   6.766  0.00  0.00    +0.000 NA
ENDBRANCH   8  13
ENDBRANCH   2   8
ENDBRANCH   1   5
BRANCH   1  16
ATOM     16  N   UNL     1      48.359   6.674  13.871  0.00  0.00    +0.000 N 
ATOM     17  C   UNL     1      48.544   8.033  13.910  0.00  0.00    +0.000 C 
ATOM     18  O   UNL     1      47.685   8.788  14.360  0.00  0.00    +0.000 OA
ATOM     19  H   UNL     1      48.978   6.102  13.301  0.00  0.00    +0.000 HD
BRANCH  17  20
ATOM     20  C   UNL     1      49.840   8.542  13.442  0.00  0.00    +0.000 A 
ATOM     21  C   UNL     1      49.885   9.380  12.336  0.00  0.00    +0.000 A 
ATOM     22  S   UNL     1      51.458   9.909  11.941  0.00  0.00    +0.000 S 
ATOM     23  C   UNL     1      52.140   9.000  13.207  0.00  0.00    +0.000 A 
ATOM     24  N   UNL     1      53.484   8.985  13.410  0.00  0.00    +0.000 NA
ATOM     25  C   UNL     1      53.867   8.235  14.389  0.00  0.00    +0.000 A 
ATOM     26  N   UNL     1      53.028   7.503  15.188  0.00  0.00    +0.000 N 
ATOM     27  C   UNL     1      51.660   7.505  15.033  0.00  0.00    +0.000 A 
ATOM     28  O   UNL     1      50.934   6.862  15.782  0.00  0.00    +0.000 OA
ATOM     29  C   UNL     1      51.179   8.321  13.936  0.00  0.00    +0.000 A 
ATOM     30  H   UNL     1      53.392   6.946  15.945  0.00  0.00    +0.000 HD
ENDBRANCH  17  20
ENDBRANCH   1  16
TORSDOF 5
ENDMDL
MODEL 7
REMARK VINA RESULT:    -6.848      1.832      2.587
REMARK INTER + INTRA:          -9.728
REMARK INTER:                  -9.002
REMARK INTRA:                  -0.726
REMARK UNBOUND:                -0.878
REMARK  Name = 
REMARK  6 active torsions:
REMARK  status: ('A' for Active; 'I' for Inactive)
REMARK    1  A    between atoms: C_1  and  C_2
REMARK    2  A    between atoms: C_5  and  C_6
REMARK    3  A    between atoms: C_6  and  C_7
REMARK    4  A    between atoms: C_10  and  C_11
REMARK    5  A    between atoms: C_11  and  N_12
REMARK    6  A    between atoms: C_13  and  C_15
REMARK                            x       y       z     vdW  Elec       q    Type
REMARK                         _______ _______ _______ _____ _____    ______ ____
ROOT
ATOM      1  C   UNL     1      47.609   7.365  14.044  0.00  0.00    +0.000 C 
ENDROOT
BRANCH   1   5
ATOM      2  C   UNL     1      45.269   5.148  11.253  0.00  0.00    +0.000 A 
ATOM      3  C   UNL     1      45.619   6.458  10.935  0.00  0.00    +0.000 A 
ATOM      4  C   UNL     1      46.381   7.192  11.843  0.00  0.00    +0.000 A 
ATOM      5  C   UNL     1      46.773   6.615  13.051  0.00  0.00    +0.000 A 
ATOM      6  C   UNL     1      46.389   5.299  13.278  0.00  0.00    +0.000 A 
ATOM      7  N   UNL     1      45.649   4.561  12.416  0.00  0.00    +0.000 NA
BRANCH   2   8
ATOM      8  C   UNL     1      44.436   4.322  10.300  0.00  0.00    +0.000 C 
BRANCH   8  13
ATOM      9  C   UNL     1      47.138   1.086   6.368  0.00  0.00    +0.000 C 
ATOM     10  C   UNL     1      46.498   1.974   7.394  0.00  0.00    +0.000 A 
ATOM     11  C   UNL     1      46.497   3.357   7.246  0.00  0.00    +0.000 A 
ATOM     12  C   UNL     1      45.854   4.138   8.204  0.00  0.00    +0.000 A 
ATOM     13  C   UNL     1      45.224   3.527   9.291  0.00  0.00    +0.000 A 
ATOM     14  C   UNL     1      45.299   2.140   9.367  0.00  0.00    +0.000 A 
ATOM     15  N   UNL     1      45.918   1.359   8.451  0.00  0.00    +0.000 NA
ENDBRANCH   8  13
ENDBRANCH   2   8
ENDBRANCH   1   5
BRANCH   1  16
ATOM     16  N   UNL     1      48.125   6.492  15.071  0.00  0.00    +0.000 N 
ATOM     17  C   UNL     1      48.676   7.004  16.219  0.00  0.00    +0.000 C 
ATOM     18  O   UNL     1      48.706   8.213  16.437  0.00  0.00    +0.000 OA
ATOM     19  H   UNL     1      48.310   5.525  14.818  0.00  0.00    +0.000 HD
BRANCH  17  20
ATOM     20  C   UNL     1      49.177   6.038  17.205  0.00  0.00    +0.000 A 
ATOM     21  C   UNL     1      48.286   5.426  18.077  0.00  0.00    +0.000 A 
ATOM     22  S   UNL     1      49.020   4.309  19.136  0.00  0.00    +0.000 S 
ATOM     23  C   UNL     1      50.563   4.637  18.499  0.00  0.00    +0.000 A 
ATOM     24  N   UNL     1      51.669   4.023  18.997  0.00  0.00    +0.000 NA
ATOM     25  C   UNL     1      52.776   4.382  18.438  0.00  0.00    +0.000 A 
ATOM     26  N   UNL     1      52.878   5.296  17.422  0.00  0.00    +0.000 N 
ATOM     27  C   UNL     1      51.784   5.926  16.873  0.00  0.00    +0.000 A 
ATOM     28  O   UNL     1      51.906   6.718  15.945  0.00  0.00    +0.000 OA
ATOM     29  C   UNL     1      50.516   5.568  17.476  0.00  0.00    +0.000 A 
ATOM     30  H   UNL     1      53.774   5.523  17.020  0.00  0.00    +0.000 HD
ENDBRANCH  17  20
ENDBRANCH   1  16
TORSDOF 5
ENDMDL
MODEL 8
REMARK VINA RESULT:    -6.781      3.530      9.056
REMARK INTER + INTRA:          -9.642
REMARK INTER:                  -8.864
REMARK INTRA:                  -0.778
REMARK UNBOUND:                -0.878
REMARK  Name = 
REMARK  6 active torsions:
REMARK  status: ('A' for Active; 'I' for Inactive)
REMARK    1  A    between atoms: C_1  and  C_2
REMARK    2  A    between atoms: C_5  and  C_6
REMARK    3  A    between atoms: C_6  and  C_7
REMARK    4  A    between atoms: C_10  and  C_11
REMARK    5  A    between atoms: C_11  and  N_12
REMARK    6  A    between atoms: C_13  and  C_15
REMARK                            x       y       z     vdW  Elec       q    Type
REMARK                         _______ _______ _______ _____ _____    ______ ____
ROOT
ATOM      1  C   UNL     1      47.166   3.371  16.897  0.00  0.00    +0.000 C 
ENDROOT
BRANCH   1   5
ATOM      2  C   UNL     1      51.332   3.736  17.728  0.00  0.00    +0.000 A 
ATOM      3  C   UNL     1      50.845   2.504  17.300  0.00  0.00    +0.000 A 
ATOM      4  C   UNL     1      49.484   2.373  17.030  0.00  0.00    +0.000 A 
ATOM      5  C   UNL     1      48.632   3.466  17.196  0.00  0.00    +0.000 A 
ATOM      6  C   UNL     1      49.208   4.659  17.615  0.00  0.00    +0.000 A 
ATOM      7  N   UNL     1      50.525   4.816  17.887  0.00  0.00    +0.000 NA
BRANCH   2   8
ATOM      8  C   UNL     1      52.800   3.916  18.042  0.00  0.00    +0.000 C 
BRANCH   8  13
ATOM      9  C   UNL     1      55.116   9.165  17.478  0.00  0.00    +0.000 C 
ATOM     10  C   UNL     1      54.459   7.820  17.573  0.00  0.00    +0.000 A 
ATOM     11  C   UNL     1      54.130   7.100  16.429  0.00  0.00    +0.000 A 
ATOM     12  C   UNL     1      53.559   5.837  16.568  0.00  0.00    +0.000 A 
ATOM     13  C   UNL     1      53.326   5.314  17.842  0.00  0.00    +0.000 A 
ATOM     14  C   UNL     1      53.667   6.117  18.925  0.00  0.00    +0.000 A 
ATOM     15  N   UNL     1      54.221   7.348  18.818  0.00  0.00    +0.000 NA
ENDBRANCH   8  13
ENDBRANCH   2   8
ENDBRANCH   1   5
BRANCH   1  16
ATOM     16  N   UNL     1      46.755   4.365  15.934  0.00  0.00    +0.000 N 
ATOM     17  C   UNL     1      46.878   4.133  14.587  0.00  0.00    +0.000 C 
ATOM     18  O   UNL     1      47.293   3.060  14.152  0.00  0.00    +0.000 OA
ATOM     19  H   UNL     1      46.625   5.317  16.266  0.00  0.00    +0.000 HD
BRANCH  17  20
ATOM     20  C   UNL     1      46.436   5.203  13.684  0.00  0.00    +0.000 A 
ATOM     21  C   UNL     1      47.277   6.281  13.438  0.00  0.00    +0.000 A 
ATOM     22  S   UNL     1      46.631   7.419  12.345  0.00  0.00    +0.000 S 
ATOM     23  C   UNL     1      45.184   6.537  12.197  0.00  0.00    +0.000 A 
ATOM     24  N   UNL     1      44.168   6.988  11.416  0.00  0.00    +0.000 NA
ATOM     25  C   UNL     1      43.120   6.234  11.414  0.00  0.00    +0.000 A 
ATOM     26  N   UNL     1      42.998   5.065  12.118  0.00  0.00    +0.000 N 
ATOM     27  C   UNL     1      44.007   4.558  12.904  0.00  0.00    +0.000 A 
ATOM     28  O   UNL     1      43.878   3.494  13.499  0.00  0.00    +0.000 OA
ATOM     29  C   UNL     1      45.203   5.377  12.952  0.00  0.00    +0.000 A 
ATOM     30  H   UNL     1      42.155   4.514  12.063  0.00  0.00    +0.000 HD
ENDBRANCH  17  20
ENDBRANCH   1  16
TORSDOF 5
ENDMDL
MODEL 9
REMARK VINA RESULT:    -6.571      3.275      4.985
REMARK INTER + INTRA:          -9.370
REMARK INTER:                  -8.408
REMARK INTRA:                  -0.961
REMARK UNBOUND:                -0.878
REMARK  Name = 
REMARK  6 active torsions:
REMARK  status: ('A' for Active; 'I' for Inactive)
REMARK    1  A    between atoms: C_1  and  C_2
REMARK    2  A    between atoms: C_5  and  C_6
REMARK    3  A    between atoms: C_6  and  C_7
REMARK    4  A    between atoms: C_10  and  C_11
REMARK    5  A    between atoms: C_11  and  N_12
REMARK    6  A    between atoms: C_13  and  C_15
REMARK                            x       y       z     vdW  Elec       q    Type
REMARK                         _______ _______ _______ _____ _____    ______ ____
ROOT
ATOM      1  C   UNL     1      48.369   6.543  14.764  0.00  0.00    +0.000 C 
ENDROOT
BRANCH   1   5
ATOM      2  C   UNL     1      45.490   5.052  11.994  0.00  0.00    +0.000 A 
ATOM      3  C   UNL     1      45.987   4.188  12.966  0.00  0.00    +0.000 A 
ATOM      4  C   UNL     1      46.932   4.664  13.874  0.00  0.00    +0.000 A 
ATOM      5  C   UNL     1      47.369   5.987  13.794  0.00  0.00    +0.000 A 
ATOM      6  C   UNL     1      46.810   6.780  12.800  0.00  0.00    +0.000 A 
ATOM      7  N   UNL     1      45.892   6.345  11.904  0.00  0.00    +0.000 NA
BRANCH   2   8
ATOM      8  C   UNL     1      44.472   4.570  10.985  0.00  0.00    +0.000 C 
BRANCH   8  13
ATOM      9  C   UNL     1      47.023   2.422   6.283  0.00  0.00    +0.000 C 
ATOM     10  C   UNL     1      46.298   2.934   7.492  0.00  0.00    +0.000 A 
ATOM     11  C   UNL     1      45.723   2.060   8.409  0.00  0.00    +0.000 A 
ATOM     12  C   UNL     1      45.095   2.583   9.538  0.00  0.00    +0.000 A 
ATOM     13  C   UNL     1      45.054   3.965   9.734  0.00  0.00    +0.000 A 
ATOM     14  C   UNL     1      45.636   4.760   8.753  0.00  0.00    +0.000 A 
ATOM     15  N   UNL     1      46.249   4.278   7.646  0.00  0.00    +0.000 NA
ENDBRANCH   8  13
ENDBRANCH   2   8
ENDBRANCH   1   5
BRANCH   1  16
ATOM     16  N   UNL     1      49.546   7.035  14.090  0.00  0.00    +0.000 N 
ATOM     17  C   UNL     1      50.480   7.783  14.761  0.00  0.00    +0.000 C 
ATOM     18  O   UNL     1      50.375   8.020  15.963  0.00  0.00    +0.000 OA
ATOM     19  H   UNL     1      49.539   7.041  13.074  0.00  0.00    +0.000 HD
BRANCH  17  20
ATOM     20  C   UNL     1      51.644   8.242  13.992  0.00  0.00    +0.000 A 
ATOM     21  C   UNL     1      52.916   8.110  14.533  0.00  0.00    +0.000 A 
ATOM     22  S   UNL     1      54.159   8.659  13.502  0.00  0.00    +0.000 S 
ATOM     23  C   UNL     1      53.038   9.136  12.315  0.00  0.00    +0.000 A 
ATOM     24  N   UNL     1      53.451   9.725  11.161  0.00  0.00    +0.000 NA
ATOM     25  C   UNL     1      52.496  10.058  10.360  0.00  0.00    +0.000 A 
ATOM     26  N   UNL     1      51.163   9.851  10.604  0.00  0.00    +0.000 N 
ATOM     27  C   UNL     1      50.700   9.239  11.748  0.00  0.00    +0.000 A 
ATOM     28  O   UNL     1      49.503   9.042  11.924  0.00  0.00    +0.000 OA
ATOM     29  C   UNL     1      51.735   8.858  12.689  0.00  0.00    +0.000 A 
ATOM     30  H   UNL     1      50.466  10.124   9.929  0.00  0.00    +0.000 HD
ENDBRANCH  17  20
ENDBRANCH   1  16
TORSDOF 5
ENDMDL
