MODEL 1
REMARK VINA RESULT:    -7.105      0.000      0.000
REMARK INTER + INTRA:          -9.297
REMARK INTER:                  -8.975
REMARK INTRA:                  -0.322
REMARK UNBOUND:                -0.322
REMARK  Name = 
REMARK  5 active torsions:
REMARK  status: ('A' for Active; 'I' for Inactive)
REMARK    1  A    between atoms: N_1  and  C_2
REMARK    2  A    between atoms: C_2  and  C_3
REMARK    3  A    between atoms: C_6  and  O_7
REMARK    4  A    between atoms: O_7  and  C_8
REMARK    5  A    between atoms: C_8  and  C_9
REMARK                            x       y       z     vdW  Elec       q    Type
REMARK                         _______ _______ _______ _____ _____    ______ ____
ROOT
ATOM      1  C   UNL     1      46.604   2.340   7.540  0.00  0.00    +0.000 A 
ATOM      2  C   UNL     1      45.824   1.649   8.476  0.00  0.00    +0.000 A 
ATOM      3  C   UNL     1      44.884   2.341   9.241  0.00  0.00    +0.000 A 
ATOM      4  C   UNL     1      44.737   3.700   9.027  0.00  0.00    +0.000 A 
ATOM      5  N   UNL     1      45.476   4.397   8.139  0.00  0.00    +0.000 NA
ATOM      6  C   UNL     1      46.385   3.706   7.422  0.00  0.00    +0.000 A 
ENDROOT
BRANCH   1   7
ATOM      7  C   UNL     1      47.651   1.657   6.709  0.00  0.00    +0.000 C 
BRANCH   7   8
ATOM      8  N   UNL     1      48.714   2.570   6.309  0.00  0.00    +0.000 NA
ATOM      9  H   UNL     1      49.597   2.249   6.704  0.00  0.00    +0.000 HD
ATOM     10  H   UNL     1      48.538   3.488   6.713  0.00  0.00    +0.000 HD
ENDBRANCH   7   8
ENDBRANCH   1   7
BRANCH   4  11
ATOM     11  O   UNL     1      43.812   4.382   9.793  0.00  0.00    +0.000 OA
BRANCH  11  12
ATOM     12  C   UNL     1      43.619   3.750  11.070  0.00  0.00    +0.000 C 
BRANCH  12  13
ATOM     13  C   UNL     1      44.320   4.557  12.182  0.00  0.00    +0.000 C 
ATOM     14  C   UNL     1      44.826   5.903  11.644  0.00  0.00    +0.000 C 
ATOM     15  C   UNL     1      45.575   6.688  12.717  0.00  0.00    +0.000 C 
ATOM     16  C   UNL     1      46.667   5.831  13.348  0.00  0.00    +0.000 C 
ATOM     17  C   UNL     1      46.109   4.495  13.831  0.00  0.00    +0.000 C 
ATOM     18  N   UNL     1      45.438   3.775  12.751  0.00  0.00    +0.000 NA
ATOM     19  H   UNL     1      45.086   2.886  13.106  0.00  0.00    +0.000 HD
ENDBRANCH  12  13
ENDBRANCH  11  12
ENDBRANCH   4  11
TORSDOF 5
ENDMDL
MODEL 2
REMARK VINA RESULT:    -6.953      1.384      1.960
REMARK INTER + INTRA:          -9.104
REMARK INTER:                  -8.808
REMARK INTRA:                  -0.296
REMARK UNBOUND:                -0.322
REMARK  Name = 
REMARK  5 active torsions:
REMARK  status: ('A' for Active; 'I' for Inactive)
REMARK    1  A    between atoms: N_1  and  C_2
REMARK    2  A    between atoms: C_2  and  C_3
REMARK    3  A    between atoms: C_6  and  O_7
REMARK    4  A    between atoms: O_7  and  C_8
REMARK    5  A    between atoms: C_8  and  C_9
REMARK                            x       y       z     vdW  Elec       q    Type
REMARK                         _______ _______ _______ _____ _____    ______ ____
ROOT
ATOM      1  C   UNL     1      46.583   2.376   7.689  0.00  0.00    +0.000 A 
ATOM      2  C   UNL     1      45.726   1.769   8.615  0.00  0.00    +0.000 A 
ATOM      3  C   UNL     1      44.817   2.547   9.333  0.00  0.00    +0.000 A 
ATOM      4  C   UNL     1      44.776   3.907   9.081  0.00  0.00    +0.000 A 
ATOM      5  N   UNL     1      45.590   4.524   8.201  0.00  0.00    +0.000 NA
ATOM      6  C   UNL     1      46.468   3.751   7.531  0.00  0.00    +0.000 A 
ENDROOT
BRANCH   1   7
ATOM      7  C   UNL     1      47.602   1.598   6.909  0.00  0.00    +0.000 C 
BRANCH   7   8
ATOM      8  N   UNL     1      48.616   2.461   6.318  0.00  0.00    +0.000 NA
ATOM      9  H   UNL     1      49.005   2.004   5.494  0.00  0.00    +0.000 HD
ATOM     10  H   UNL     1      49.389   2.570   6.974  0.00  0.00    +0.000 HD
ENDBRANCH   7   8
ENDBRANCH   1   7
BRANCH   4  11
ATOM     11  O   UNL     1      43.880   4.674   9.799  0.00  0.00    +0.000 OA
BRANCH  11  12
ATOM     12  C   UNL     1      44.314   4.852  11.159  0.00  0.00    +0.000 C 
BRANCH  12  13
ATOM     13  C   UNL     1      45.017   6.215  11.326  0.00  0.00    +0.000 C 
ATOM     14  C   UNL     1      45.837   6.250  12.624  0.00  0.00    +0.000 C 
ATOM     15  C   UNL     1      46.491   7.613  12.834  0.00  0.00    +0.000 C 
ATOM     16  C   UNL     1      45.458   8.729  12.732  0.00  0.00    +0.000 C 
ATOM     17  C   UNL     1      44.654   8.619  11.440  0.00  0.00    +0.000 C 
ATOM     18  N   UNL     1      44.022   7.307  11.315  0.00  0.00    +0.000 NA
ATOM     19  H   UNL     1      43.487   7.272  10.447  0.00  0.00    +0.000 HD
ENDBRANCH  12  13
ENDBRANCH  11  12
ENDBRANCH   4  11
TORSDOF 5
ENDMDL
MODEL 3
REMARK VINA RESULT:    -6.707      1.578      5.769
REMARK INTER + INTRA:          -8.794
REMARK INTER:                  -8.410
REMARK INTRA:                  -0.384
REMARK UNBOUND:                -0.322
REMARK  Name = 
REMARK  5 active torsions:
REMARK  status: ('A' for Active; 'I' for Inactive)
REMARK    1  A    between atoms: N_1  and  C_2
REMARK    2  A    between atoms: C_2  and  C_3
REMARK    3  A    between atoms: C_6  and  O_7
REMARK    4  A    between atoms: O_7  and  C_8
REMARK    5  A    between atoms: C_8  and  C_9
REMARK                            x       y       z     vdW  Elec       q    Type
REMARK                         _______ _______ _______ _____ _____    ______ ____
ROOT
ATOM      1  C   UNL     1      46.582   5.517  12.861  0.00  0.00    +0.000 A 
ATOM      2  C   UNL     1      46.334   6.215  11.672  0.00  0.00    +0.000 A 
ATOM      3  C   UNL     1      45.491   5.664  10.706  0.00  0.00    +0.000 A 
ATOM      4  C   UNL     1      44.901   4.441  10.973  0.00  0.00    +0.000 A 
ATOM      5  N   UNL     1      45.123   3.740  12.104  0.00  0.00    +0.000 NA
ATOM      6  C   UNL     1      45.952   4.289  13.014  0.00  0.00    +0.000 A 
ENDROOT
BRANCH   1   7
ATOM      7  C   UNL     1      47.502   6.045  13.923  0.00  0.00    +0.000 C 
BRANCH   7   8
ATOM      8  N   UNL     1      47.589   5.147  15.068  0.00  0.00    +0.000 NA
ATOM      9  H   UNL     1      48.569   4.944  15.259  0.00  0.00    +0.000 HD
ATOM     10  H   UNL     1      47.155   4.256  14.830  0.00  0.00    +0.000 HD
ENDBRANCH   7   8
ENDBRANCH   1   7
BRANCH   4  11
ATOM     11  O   UNL     1      44.074   3.895  10.011  0.00  0.00    +0.000 OA
BRANCH  11  12
ATOM     12  C   UNL     1      44.463   2.549   9.687  0.00  0.00    +0.000 C 
BRANCH  12  13
ATOM     13  C   UNL     1      45.689   2.553   8.749  0.00  0.00    +0.000 C 
ATOM     14  C   UNL     1      45.441   3.456   7.532  0.00  0.00    +0.000 C 
ATOM     15  C   UNL     1      46.621   3.424   6.564  0.00  0.00    +0.000 C 
ATOM     16  C   UNL     1      46.979   1.988   6.199  0.00  0.00    +0.000 C 
ATOM     17  C   UNL     1      47.178   1.134   7.448  0.00  0.00    +0.000 C 
ATOM     18  N   UNL     1      46.002   1.176   8.315  0.00  0.00    +0.000 NA
ATOM     19  H   UNL     1      46.165   0.589   9.133  0.00  0.00    +0.000 HD
ENDBRANCH  12  13
ENDBRANCH  11  12
ENDBRANCH   4  11
TORSDOF 5
ENDMDL
MODEL 4
REMARK VINA RESULT:    -6.156      2.067      5.801
REMARK INTER + INTRA:          -8.098
REMARK INTER:                  -7.690
REMARK INTRA:                  -0.408
REMARK UNBOUND:                -0.322
REMARK  Name = 
REMARK  5 active torsions:
REMARK  status: ('A' for Active; 'I' for Inactive)
REMARK    1  A    between atoms: N_1  and  C_2
REMARK    2  A    between atoms: C_2  and  C_3
REMARK    3  A    between atoms: C_6  and  O_7
REMARK    4  A    between atoms: O_7  and  C_8
REMARK    5  A    between atoms: C_8  and  C_9
REMARK                            x       y       z     vdW  Elec       q    Type
REMARK                         _______ _______ _______ _____ _____    ______ ____
ROOT
ATOM      1  C   UNL     1      44.780   6.992  11.582  0.00  0.00    +0.000 A 
ATOM      2  C   UNL     1      43.595   6.330  11.237  0.00  0.00    +0.000 A 
ATOM      3  C   UNL     1      43.598   4.944  11.069  0.00  0.00    +0.000 A 
ATOM      4  C   UNL     1      44.784   4.262  11.278  0.00  0.00    +0.000 A 
ATOM      5  N   UNL     1      45.943   4.869  11.605  0.00  0.00    +0.000 NA
ATOM      6  C   UNL     1      45.915   6.209  11.748  0.00  0.00    +0.000 A 
ENDROOT
BRANCH   1   7
ATOM      7  C   UNL     1      44.846   8.482  11.748  0.00  0.00    +0.000 C 
BRANCH   7   8
ATOM      8  N   UNL     1      43.814   9.165  10.979  0.00  0.00    +0.000 NA
ATOM      9  H   UNL     1      43.024   9.371  11.589  0.00  0.00    +0.000 HD
ATOM     10  H   UNL     1      43.461   8.537  10.258  0.00  0.00    +0.000 HD
ENDBRANCH   7   8
ENDBRANCH   1   7
BRANCH   4  11
ATOM     11  O   UNL     1      44.784   2.892  11.102  0.00  0.00    +0.000 OA
BRANCH  11  12
ATOM     12  C   UNL     1      44.424   2.535   9.756  0.00  0.00    +0.000 C 
BRANCH  12  13
ATOM     13  C   UNL     1      45.673   2.520   8.850  0.00  0.00    +0.000 C 
ATOM     14  C   UNL     1      45.506   3.495   7.675  0.00  0.00    +0.000 C 
ATOM     15  C   UNL     1      46.708   3.448   6.736  0.00  0.00    +0.000 C 
ATOM     16  C   UNL     1      47.000   2.015   6.306  0.00  0.00    +0.000 C 
ATOM     17  C   UNL     1      47.120   1.091   7.514  0.00  0.00    +0.000 C 
ATOM     18  N   UNL     1      45.925   1.152   8.354  0.00  0.00    +0.000 NA
ATOM     19  H   UNL     1      46.036   0.517   9.144  0.00  0.00    +0.000 HD
ENDBRANCH  12  13
ENDBRANCH  11  12
ENDBRANCH   4  11
TORSDOF 5
ENDMDL
MODEL 5
REMARK VINA RESULT:    -6.116      1.489      5.858
REMARK INTER + INTRA:          -8.047
REMARK INTER:                  -7.670
REMARK INTRA:                  -0.377
REMARK UNBOUND:                -0.322
REMARK  Name = 
REMARK  5 active torsions:
REMARK  status: ('A' for Active; 'I' for Inactive)
REMARK    1  A    between atoms: N_1  and  C_2
REMARK    2  A    between atoms: C_2  and  C_3
REMARK    3  A    between atoms: C_6  and  O_7
REMARK    4  A    between atoms: O_7  and  C_8
REMARK    5  A    between atoms: C_8  and  C_9
REMARK                            x       y       z     vdW  Elec       q    Type
REMARK                         _______ _______ _______ _____ _____    ______ ____
ROOT
ATOM      1  C   UNL     1      46.760   4.976  13.849  0.00  0.00    +0.000 A 
ATOM      2  C   UNL     1      45.884   3.997  13.361  0.00  0.00    +0.000 A 
ATOM      3  C   UNL     1      45.321   4.141  12.092  0.00  0.00    +0.000 A 
ATOM      4  C   UNL     1      45.672   5.249  11.341  0.00  0.00    +0.000 A 
ATOM      5  N   UNL     1      46.506   6.212  11.783  0.00  0.00    +0.000 NA
ATOM      6  C   UNL     1      47.026   6.055  13.017  0.00  0.00    +0.000 A 
ENDROOT
BRANCH   1   7
ATOM      7  C   UNL     1      47.374   4.891  15.216  0.00  0.00    +0.000 C 
BRANCH   7   8
ATOM      8  N   UNL     1      46.931   3.709  15.943  0.00  0.00    +0.000 NA
ATOM      9  H   UNL     1      47.557   3.547  16.731  0.00  0.00    +0.000 HD
ATOM     10  H   UNL     1      47.015   2.892  15.340  0.00  0.00    +0.000 HD
ENDBRANCH   7   8
ENDBRANCH   1   7
BRANCH   4  11
ATOM     11  O   UNL     1      45.106   5.392  10.089  0.00  0.00    +0.000 OA
BRANCH  11  12
ATOM     12  C   UNL     1      44.284   4.260   9.753  0.00  0.00    +0.000 C 
BRANCH  12  13
ATOM     13  C   UNL     1      44.906   3.471   8.582  0.00  0.00    +0.000 C 
ATOM     14  C   UNL     1      45.492   2.139   9.072  0.00  0.00    +0.000 C 
ATOM     15  C   UNL     1      46.165   1.374   7.935  0.00  0.00    +0.000 C 
ATOM     16  C   UNL     1      47.174   2.259   7.213  0.00  0.00    +0.000 C 
ATOM     17  C   UNL     1      46.541   3.579   6.782  0.00  0.00    +0.000 C 
ATOM     18  N   UNL     1      45.948   4.282   7.919  0.00  0.00    +0.000 NA
ATOM     19  H   UNL     1      45.543   5.161   7.598  0.00  0.00    +0.000 HD
ENDBRANCH  12  13
ENDBRANCH  11  12
ENDBRANCH   4  11
TORSDOF 5
ENDMDL
MODEL 6
REMARK VINA RESULT:    -5.872      4.024      6.409
REMARK INTER + INTRA:          -7.738
REMARK INTER:                  -7.449
REMARK INTRA:                  -0.289
REMARK UNBOUND:                -0.322
REMARK  Name = 
REMARK  5 active torsions:
REMARK  status: ('A' for Active; 'I' for Inactive)
REMARK    1  A    between atoms: N_1  and  C_2
REMARK    2  A    between atoms: C_2  and  C_3
REMARK    3  A    between atoms: C_6  and  O_7
REMARK    4  A    between atoms: O_7  and  C_8
REMARK    5  A    between atoms: C_8  and  C_9
REMARK                            x       y       z     vdW  Elec       q    Type
REMARK                         _______ _______ _______ _____ _____    ______ ____
ROOT
ATOM      1  C   UNL     1      45.003   5.007  12.076  0.00  0.00    +0.000 A 
ATOM      2  C   UNL     1      45.812   5.774  12.925  0.00  0.00    +0.000 A 
ATOM      3  C   UNL     1      46.693   5.140  13.802  0.00  0.00    +0.000 A 
ATOM      4  C   UNL     1      46.756   3.758  13.783  0.00  0.00    +0.000 A 
ATOM      5  N   UNL     1      45.986   2.990  12.984  0.00  0.00    +0.000 NA
ATOM      6  C   UNL     1      45.135   3.627  12.156  0.00  0.00    +0.000 A 
ENDROOT
BRANCH   1   7
ATOM      7  C   UNL     1      44.015   5.630  11.133  0.00  0.00    +0.000 C 
BRANCH   7   8
ATOM      8  N   UNL     1      42.842   6.143  11.828  0.00  0.00    +0.000 NA
ATOM      9  H   UNL     1      43.059   7.060  12.216  0.00  0.00    +0.000 HD
ATOM     10  H   UNL     1      42.632   5.541  12.623  0.00  0.00    +0.000 HD
ENDBRANCH   7   8
ENDBRANCH   1   7
BRANCH   4  11
ATOM     11  O   UNL     1      47.623   3.135  14.659  0.00  0.00    +0.000 OA
BRANCH  11  12
ATOM     12  C   UNL     1      47.378   3.539  16.017  0.00  0.00    +0.000 C 
BRANCH  12  13
ATOM     13  C   UNL     1      48.559   3.129  16.923  0.00  0.00    +0.000 C 
ATOM     14  C   UNL     1      49.365   4.361  17.359  0.00  0.00    +0.000 C 
ATOM     15  C   UNL     1      50.571   3.966  18.207  0.00  0.00    +0.000 C 
ATOM     16  C   UNL     1      51.407   2.908  17.496  0.00  0.00    +0.000 C 
ATOM     17  C   UNL     1      50.544   1.728  17.057  0.00  0.00    +0.000 C 
ATOM     18  N   UNL     1      49.429   2.165  16.219  0.00  0.00    +0.000 NA
ATOM     19  H   UNL     1      48.881   1.353  15.937  0.00  0.00    +0.000 HD
ENDBRANCH  12  13
ENDBRANCH  11  12
ENDBRANCH   4  11
TORSDOF 5
ENDMDL
MODEL 7
REMARK VINA RESULT:    -5.823      3.974      7.774
REMARK INTER + INTRA:          -7.677
REMARK INTER:                  -7.408
REMARK INTRA:                  -0.269
REMARK UNBOUND:                -0.322
REMARK  Name = 
REMARK  5 active torsions:
REMARK  status: ('A' for Active; 'I' for Inactive)
REMARK    1  A    between atoms: N_1  and  C_2
REMARK    2  A    between atoms: C_2  and  C_3
REMARK    3  A    between atoms: C_6  and  O_7
REMARK    4  A    between atoms: O_7  and  C_8
REMARK    5  A    between atoms: C_8  and  C_9
REMARK                            x       y       z     vdW  Elec       q    Type
REMARK                         _______ _______ _______ _____ _____    ______ ____
ROOT
ATOM      1  C   UNL     1      48.712   3.791  18.032  0.00  0.00    +0.000 A 
ATOM      2  C   UNL     1      47.720   4.625  17.499  0.00  0.00    +0.000 A 
ATOM      3  C   UNL     1      47.253   4.406  16.202  0.00  0.00    +0.000 A 
ATOM      4  C   UNL     1      47.775   3.341  15.489  0.00  0.00    +0.000 A 
ATOM      5  N   UNL     1      48.734   2.524  15.969  0.00  0.00    +0.000 NA
ATOM      6  C   UNL     1      49.177   2.765  17.219  0.00  0.00    +0.000 A 
ENDROOT
BRANCH   1   7
ATOM      7  C   UNL     1      49.274   3.994  19.409  0.00  0.00    +0.000 C 
BRANCH   7   8
ATOM      8  N   UNL     1      48.334   3.596  20.448  0.00  0.00    +0.000 NA
ATOM      9  H   UNL     1      48.707   3.868  21.357  0.00  0.00    +0.000 HD
ATOM     10  H   UNL     1      48.260   2.580  20.464  0.00  0.00    +0.000 HD
ENDBRANCH   7   8
ENDBRANCH   1   7
BRANCH   4  11
ATOM     11  O   UNL     1      47.316   3.134  14.203  0.00  0.00    +0.000 OA
BRANCH  11  12
ATOM     12  C   UNL     1      46.664   4.305  13.682  0.00  0.00    +0.000 C 
BRANCH  12  13
ATOM     13  C   UNL     1      45.684   3.920  12.554  0.00  0.00    +0.000 C 
ATOM     14  C   UNL     1      45.480   5.093  11.585  0.00  0.00    +0.000 C 
ATOM     15  C   UNL     1      44.466   4.748  10.497  0.00  0.00    +0.000 C 
ATOM     16  C   UNL     1      43.171   4.229  11.111  0.00  0.00    +0.000 C 
ATOM     17  C   UNL     1      43.443   3.090  12.090  0.00  0.00    +0.000 C 
ATOM     18  N   UNL     1      44.391   3.493  13.128  0.00  0.00    +0.000 NA
ATOM     19  H   UNL     1      44.542   2.713  13.767  0.00  0.00    +0.000 HD
ENDBRANCH  12  13
ENDBRANCH  11  12
ENDBRANCH   4  11
TORSDOF 5
ENDMDL
MODEL 8
REMARK VINA RESULT:    -5.765      2.055      6.213
REMARK INTER + INTRA:          -7.603
REMARK INTER:                  -7.234
REMARK INTRA:                  -0.370
REMARK UNBOUND:                -0.322
REMARK  Name = 
REMARK  5 active torsions:
REMARK  status: ('A' for Active; 'I' for Inactive)
REMARK    1  A    between atoms: N_1  and  C_2
REMARK    2  A    between atoms: C_2  and  C_3
REMARK    3  A    between atoms: C_6  and  O_7
REMARK    4  A    between atoms: O_7  and  C_8
REMARK    5  A    between atoms: C_8  and  C_9
REMARK                            x       y       z     vdW  Elec       q    Type
REMARK                         _______ _______ _______ _____ _____    ______ ____
ROOT
ATOM      1  C   UNL     1      46.675   7.891  13.038  0.00  0.00    +0.000 A 
ATOM      2  C   UNL     1      45.537   8.093  12.247  0.00  0.00    +0.000 A 
ATOM      3  C   UNL     1      44.810   6.996  11.784  0.00  0.00    +0.000 A 
ATOM      4  C   UNL     1      45.231   5.729  12.151  0.00  0.00    +0.000 A 
ATOM      5  N   UNL     1      46.325   5.499  12.906  0.00  0.00    +0.000 NA
ATOM      6  C   UNL     1      47.016   6.577  13.328  0.00  0.00    +0.000 A 
ENDROOT
BRANCH   1   7
ATOM      7  C   UNL     1      47.514   9.030  13.541  0.00  0.00    +0.000 C 
BRANCH   7   8
ATOM      8  N   UNL     1      47.448   9.160  14.990  0.00  0.00    +0.000 NA
ATOM      9  H   UNL     1      47.678  10.118  15.251  0.00  0.00    +0.000 HD
ATOM     10  H   UNL     1      48.164   8.571  15.414  0.00  0.00    +0.000 HD
ENDBRANCH   7   8
ENDBRANCH   1   7
BRANCH   4  11
ATOM     11  O   UNL     1      44.513   4.646  11.684  0.00  0.00    +0.000 OA
BRANCH  11  12
ATOM     12  C   UNL     1      43.818   4.962  10.465  0.00  0.00    +0.000 C 
BRANCH  12  13
ATOM     13  C   UNL     1      44.253   4.008   9.333  0.00  0.00    +0.000 C 
ATOM     14  C   UNL     1      44.633   2.630   9.896  0.00  0.00    +0.000 C 
ATOM     15  C   UNL     1      45.123   1.694   8.795  0.00  0.00    +0.000 C 
ATOM     16  C   UNL     1      46.232   2.351   7.982  0.00  0.00    +0.000 C 
ATOM     17  C   UNL     1      45.807   3.728   7.481  0.00  0.00    +0.000 C 
ATOM     18  N   UNL     1      45.385   4.590   8.584  0.00  0.00    +0.000 NA
ATOM     19  H   UNL     1      45.118   5.502   8.215  0.00  0.00    +0.000 HD
ENDBRANCH  12  13
ENDBRANCH  11  12
ENDBRANCH   4  11
TORSDOF 5
ENDMDL
MODEL 9
REMARK VINA RESULT:    -5.504      3.897      6.105
REMARK INTER + INTRA:          -7.274
REMARK INTER:                  -7.036
REMARK INTRA:                  -0.239
REMARK UNBOUND:                -0.322
REMARK  Name = 
REMARK  5 active torsions:
REMARK  status: ('A' for Active; 'I' for Inactive)
REMARK    1  A    between atoms: N_1  and  C_2
REMARK    2  A    between atoms: C_2  and  C_3
REMARK    3  A    between atoms: C_6  and  O_7
REMARK    4  A    between atoms: O_7  and  C_8
REMARK    5  A    between atoms: C_8  and  C_9
REMARK                            x       y       z     vdW  Elec       q    Type
REMARK                         _______ _______ _______ _____ _____    ______ ____
ROOT
ATOM      1  C   UNL     1      44.795   4.564  11.719  0.00  0.00    +0.000 A 
ATOM      2  C   UNL     1      45.394   5.689  12.299  0.00  0.00    +0.000 A 
ATOM      3  C   UNL     1      46.354   5.527  13.299  0.00  0.00    +0.000 A 
ATOM      4  C   UNL     1      46.703   4.240  13.669  0.00  0.00    +0.000 A 
ATOM      5  N   UNL     1      46.142   3.135  13.136  0.00  0.00    +0.000 NA
ATOM      6  C   UNL     1      45.208   3.321  12.181  0.00  0.00    +0.000 A 
ENDROOT
BRANCH   1   7
ATOM      7  C   UNL     1      43.736   4.675  10.661  0.00  0.00    +0.000 C 
BRANCH   7   8
ATOM      8  N   UNL     1      43.025   5.945  10.729  0.00  0.00    +0.000 NA
ATOM      9  H   UNL     1      43.669   6.701  10.500  0.00  0.00    +0.000 HD
ATOM     10  H   UNL     1      42.723   6.110  11.689  0.00  0.00    +0.000 HD
ENDBRANCH   7   8
ENDBRANCH   1   7
BRANCH   4  11
ATOM     11  O   UNL     1      47.647   4.084  14.665  0.00  0.00    +0.000 OA
BRANCH  11  12
ATOM     12  C   UNL     1      47.029   3.857  15.943  0.00  0.00    +0.000 C 
BRANCH  12  13
ATOM     13  C   UNL     1      47.724   4.698  17.035  0.00  0.00    +0.000 C 
ATOM     14  C   UNL     1      49.009   4.010  17.518  0.00  0.00    +0.000 C 
ATOM     15  C   UNL     1      49.676   4.800  18.641  0.00  0.00    +0.000 C 
ATOM     16  C   UNL     1      48.682   5.095  19.758  0.00  0.00    +0.000 C 
ATOM     17  C   UNL     1      47.415   5.745  19.210  0.00  0.00    +0.000 C 
ATOM     18  N   UNL     1      46.802   4.925  18.166  0.00  0.00    +0.000 NA
ATOM     19  H   UNL     1      45.956   5.384  17.831  0.00  0.00    +0.000 HD
ENDBRANCH  12  13
ENDBRANCH  11  12
ENDBRANCH   4  11
TORSDOF 5
ENDMDL
