MODEL 1
REMARK VINA RESULT:    -7.840      0.000      0.000
REMARK INTER + INTRA:         -11.506
REMARK INTER:                 -10.590
REMARK INTRA:                  -0.916
REMARK UNBOUND:                -0.916
REMARK  Name = 
REMARK  7 active torsions:
REMARK  status: ('A' for Active; 'I' for Inactive)
REMARK    1  A    between atoms: C_1  and  C_2
REMARK    2  A    between atoms: C_2  and  C_3
REMARK    3  A    between atoms: C_2  and  C_15
REMARK    4  A    between atoms: C_3  and  N_4
REMARK    5  A    between atoms: N_4  and  C_5
REMARK    6  A    between atoms: C_8  and  C_9
REMARK    7  A    between atoms: C_19  and  C_20
REMARK                            x       y       z     vdW  Elec       q    Type
REMARK                         _______ _______ _______ _____ _____    ______ ____
ROOT
ATOM      1  N   UNL     1      44.074   5.168  10.051  0.00  0.00    +0.000 N 
ATOM      2  H   UNL     1      43.450   5.653   9.411  0.00  0.00    +0.000 HD
ENDROOT
BRANCH   1   3
ATOM      3  C   UNL     1      44.850   4.249   9.326  0.00  0.00    +0.000 A 
ATOM      4  N   UNL     1      45.655   4.723   8.348  0.00  0.00    +0.000 NA
ATOM      5  C   UNL     1      46.409   3.847   7.644  0.00  0.00    +0.000 A 
ATOM      6  C   UNL     1      46.423   2.484   7.867  0.00  0.00    +0.000 A 
ATOM      7  C   UNL     1      45.615   1.994   8.895  0.00  0.00    +0.000 A 
ATOM      8  C   UNL     1      44.820   2.880   9.628  0.00  0.00    +0.000 A 
ATOM      9 BR   UNL     1      43.722   2.176  11.007  0.00  0.00    +0.000 Br
BRANCH   6  10
ATOM     10  C   UNL     1      47.248   1.545   7.072  0.00  0.00    +0.000 C 
ATOM     11  N   UNL     1      48.282   2.037   6.325  0.00  0.00    +0.000 N 
ATOM     12  O   UNL     1      47.009   0.344   7.073  0.00  0.00    +0.000 OA
ATOM     13  H   UNL     1      48.541   3.005   6.223  0.00  0.00    +0.000 HD
ATOM     14  H   UNL     1      48.803   1.361   5.779  0.00  0.00    +0.000 HD
ENDBRANCH   6  10
ENDBRANCH   1   3
BRANCH   1  15
ATOM     15  C   UNL     1      44.862   6.090  10.858  0.00  0.00    +0.000 C 
BRANCH  15  17
ATOM     16  C   UNL     1      43.454   5.286  12.856  0.00  0.00    +0.000 C 
ATOM     17  C   UNL     1      44.791   5.624  12.279  0.00  0.00    +0.000 C 
BRANCH  17  18
ATOM     18  C   UNL     1      45.956   5.780  13.158  0.00  0.00    +0.000 A 
ATOM     19  C   UNL     1      46.788   6.894  13.024  0.00  0.00    +0.000 A 
ATOM     20  C   UNL     1      47.917   7.041  13.829  0.00  0.00    +0.000 A 
ATOM     21  C   UNL     1      48.214   6.084  14.796  0.00  0.00    +0.000 A 
ATOM     22  C   UNL     1      47.383   4.969  14.970  0.00  0.00    +0.000 A 
ATOM     23  C   UNL     1      46.261   4.819  14.134  0.00  0.00    +0.000 A 
BRANCH  22  24
ATOM     24  C   UNL     1      47.664   3.947  16.045  0.00  0.00    +0.000 C 
ATOM     25  F   UNL     1      48.780   4.220  16.777  0.00  0.00    +0.000 F 
ATOM     26  F   UNL     1      46.646   3.847  16.944  0.00  0.00    +0.000 F 
ATOM     27  F   UNL     1      47.843   2.695  15.542  0.00  0.00    +0.000 F 
ENDBRANCH  22  24
ENDBRANCH  17  18
ENDBRANCH  15  17
ENDBRANCH   1  15
TORSDOF 6
ENDMDL
MODEL 2
REMARK VINA RESULT:    -7.431      2.714      3.268
REMARK INTER + INTRA:         -10.953
REMARK INTER:                  -9.969
REMARK INTRA:                  -0.984
REMARK UNBOUND:                -0.916
REMARK  Name = 
REMARK  7 active torsions:
REMARK  status: ('A' for Active; 'I' for Inactive)
REMARK    1  A    between atoms: C_1  and  C_2
REMARK    2  A    between atoms: C_2  and  C_3
REMARK    3  A    between atoms: C_2  and  C_15
REMARK    4  A    between atoms: C_3  and  N_4
REMARK    5  A    between atoms: N_4  and  C_5
REMARK    6  A    between atoms: C_8  and  C_9
REMARK    7  A    between atoms: C_19  and  C_20
REMARK                            x       y       z     vdW  Elec       q    Type
REMARK                         _______ _______ _______ _____ _____    ______ ____
ROOT
ATOM      1  N   UNL     1      44.202   5.247  10.016  0.00  0.00    +0.000 N 
ATOM      2  H   UNL     1      43.451   5.602   9.428  0.00  0.00    +0.000 HD
ENDROOT
BRANCH   1   3
ATOM      3  C   UNL     1      44.948   4.306   9.287  0.00  0.00    +0.000 A 
ATOM      4  N   UNL     1      45.752   4.756   8.297  0.00  0.00    +0.000 NA
ATOM      5  C   UNL     1      46.477   3.859   7.590  0.00  0.00    +0.000 A 
ATOM      6  C   UNL     1      46.463   2.497   7.822  0.00  0.00    +0.000 A 
ATOM      7  C   UNL     1      45.656   2.032   8.862  0.00  0.00    +0.000 A 
ATOM      8  C   UNL     1      44.890   2.940   9.598  0.00  0.00    +0.000 A 
ATOM      9 BR   UNL     1      43.792   2.270  10.994  0.00  0.00    +0.000 Br
BRANCH   6  10
ATOM     10  C   UNL     1      47.258   1.535   7.024  0.00  0.00    +0.000 C 
ATOM     11  N   UNL     1      48.316   1.993   6.291  0.00  0.00    +0.000 N 
ATOM     12  O   UNL     1      46.970   0.345   7.009  0.00  0.00    +0.000 OA
ATOM     13  H   UNL     1      48.615   2.951   6.202  0.00  0.00    +0.000 HD
ATOM     14  H   UNL     1      48.815   1.303   5.742  0.00  0.00    +0.000 HD
ENDBRANCH   6  10
ENDBRANCH   1   3
BRANCH   1  15
ATOM     15  C   UNL     1      45.008   6.317  10.587  0.00  0.00    +0.000 C 
BRANCH  15  17
ATOM     16  C   UNL     1      44.189   5.492  12.883  0.00  0.00    +0.000 C 
ATOM     17  C   UNL     1      45.310   5.950  12.006  0.00  0.00    +0.000 C 
BRANCH  17  18
ATOM     18  C   UNL     1      46.606   6.312  12.593  0.00  0.00    +0.000 A 
ATOM     19  C   UNL     1      46.982   5.790  13.833  0.00  0.00    +0.000 A 
ATOM     20  C   UNL     1      48.195   6.150  14.419  0.00  0.00    +0.000 A 
ATOM     21  C   UNL     1      49.059   7.018  13.758  0.00  0.00    +0.000 A 
ATOM     22  C   UNL     1      48.720   7.537  12.501  0.00  0.00    +0.000 A 
ATOM     23  C   UNL     1      47.481   7.188  11.932  0.00  0.00    +0.000 A 
BRANCH  22  24
ATOM     24  C   UNL     1      49.665   8.442  11.749  0.00  0.00    +0.000 C 
ATOM     25  F   UNL     1      50.448   7.785  10.847  0.00  0.00    +0.000 F 
ATOM     26  F   UNL     1      49.011   9.403  11.041  0.00  0.00    +0.000 F 
ATOM     27  F   UNL     1      50.522   9.105  12.574  0.00  0.00    +0.000 F 
ENDBRANCH  22  24
ENDBRANCH  17  18
ENDBRANCH  15  17
ENDBRANCH   1  15
TORSDOF 6
ENDMDL
MODEL 3
REMARK VINA RESULT:    -7.393      1.320      1.941
REMARK INTER + INTRA:         -10.902
REMARK INTER:                  -9.991
REMARK INTRA:                  -0.911
REMARK UNBOUND:                -0.916
REMARK  Name = 
REMARK  7 active torsions:
REMARK  status: ('A' for Active; 'I' for Inactive)
REMARK    1  A    between atoms: C_1  and  C_2
REMARK    2  A    between atoms: C_2  and  C_3
REMARK    3  A    between atoms: C_2  and  C_15
REMARK    4  A    between atoms: C_3  and  N_4
REMARK    5  A    between atoms: N_4  and  C_5
REMARK    6  A    between atoms: C_8  and  C_9
REMARK    7  A    between atoms: C_19  and  C_20
REMARK                            x       y       z     vdW  Elec       q    Type
REMARK                         _______ _______ _______ _____ _____    ______ ____
ROOT
ATOM      1  N   UNL     1      44.369   5.272  10.084  0.00  0.00    +0.000 N 
ATOM      2  H   UNL     1      43.556   5.601   9.567  0.00  0.00    +0.000 HD
ENDROOT
BRANCH   1   3
ATOM      3  C   UNL     1      45.093   4.378   9.277  0.00  0.00    +0.000 A 
ATOM      4  N   UNL     1      45.903   4.891   8.323  0.00  0.00    +0.000 NA
ATOM      5  C   UNL     1      46.607   4.039   7.542  0.00  0.00    +0.000 A 
ATOM      6  C   UNL     1      46.564   2.663   7.661  0.00  0.00    +0.000 A 
ATOM      7  C   UNL     1      45.749   2.132   8.664  0.00  0.00    +0.000 A 
ATOM      8  C   UNL     1      45.006   2.993   9.475  0.00  0.00    +0.000 A 
ATOM      9 BR   UNL     1      43.897   2.234  10.816  0.00  0.00    +0.000 Br
BRANCH   6  10
ATOM     10  C   UNL     1      47.335   1.753   6.783  0.00  0.00    +0.000 C 
ATOM     11  N   UNL     1      48.325   2.269   5.996  0.00  0.00    +0.000 N 
ATOM     12  O   UNL     1      47.088   0.554   6.752  0.00  0.00    +0.000 OA
ATOM     13  H   UNL     1      48.584   3.240   5.916  0.00  0.00    +0.000 HD
ATOM     14  H   UNL     1      48.809   1.614   5.394  0.00  0.00    +0.000 HD
ENDBRANCH   6  10
ENDBRANCH   1   3
BRANCH   1  15
ATOM     15  C   UNL     1      45.172   6.369  10.607  0.00  0.00    +0.000 C 
BRANCH  15  17
ATOM     16  C   UNL     1      44.784   5.249  12.891  0.00  0.00    +0.000 C 
ATOM     17  C   UNL     1      45.704   5.946  11.940  0.00  0.00    +0.000 C 
BRANCH  17  18
ATOM     18  C   UNL     1      46.996   6.463  12.407  0.00  0.00    +0.000 A 
ATOM     19  C   UNL     1      47.846   7.125  11.519  0.00  0.00    +0.000 A 
ATOM     20  C   UNL     1      49.091   7.593  11.938  0.00  0.00    +0.000 A 
ATOM     21  C   UNL     1      49.489   7.426  13.263  0.00  0.00    +0.000 A 
ATOM     22  C   UNL     1      48.645   6.788  14.183  0.00  0.00    +0.000 A 
ATOM     23  C   UNL     1      47.403   6.297  13.740  0.00  0.00    +0.000 A 
BRANCH  22  24
ATOM     24  C   UNL     1      49.041   6.641  15.631  0.00  0.00    +0.000 C 
ATOM     25  F   UNL     1      48.526   5.529  16.227  0.00  0.00    +0.000 F 
ATOM     26  F   UNL     1      50.391   6.557  15.794  0.00  0.00    +0.000 F 
ATOM     27  F   UNL     1      48.638   7.694  16.394  0.00  0.00    +0.000 F 
ENDBRANCH  22  24
ENDBRANCH  17  18
ENDBRANCH  15  17
ENDBRANCH   1  15
TORSDOF 6
ENDMDL
MODEL 4
REMARK VINA RESULT:    -7.010      4.688      6.940
REMARK INTER + INTRA:         -10.384
REMARK INTER:                  -9.251
REMARK INTRA:                  -1.133
REMARK UNBOUND:                -0.916
REMARK  Name = 
REMARK  7 active torsions:
REMARK  status: ('A' for Active; 'I' for Inactive)
REMARK    1  A    between atoms: C_1  and  C_2
REMARK    2  A    between atoms: C_2  and  C_3
REMARK    3  A    between atoms: C_2  and  C_15
REMARK    4  A    between atoms: C_3  and  N_4
REMARK    5  A    between atoms: N_4  and  C_5
REMARK    6  A    between atoms: C_8  and  C_9
REMARK    7  A    between atoms: C_19  and  C_20
REMARK                            x       y       z     vdW  Elec       q    Type
REMARK                         _______ _______ _______ _____ _____    ______ ____
ROOT
ATOM      1  N   UNL     1      44.863   6.963  12.407  0.00  0.00    +0.000 N 
ATOM      2  H   UNL     1      44.594   6.211  13.037  0.00  0.00    +0.000 HD
ENDROOT
BRANCH   1   3
ATOM      3  C   UNL     1      46.235   7.220  12.558  0.00  0.00    +0.000 A 
ATOM      4  N   UNL     1      46.692   8.458  12.259  0.00  0.00    +0.000 NA
ATOM      5  C   UNL     1      48.012   8.717  12.404  0.00  0.00    +0.000 A 
ATOM      6  C   UNL     1      48.937   7.795  12.854  0.00  0.00    +0.000 A 
ATOM      7  C   UNL     1      48.465   6.525  13.191  0.00  0.00    +0.000 A 
ATOM      8  C   UNL     1      47.106   6.232  13.040  0.00  0.00    +0.000 A 
ATOM      9 BR   UNL     1      46.504   4.490  13.492  0.00  0.00    +0.000 Br
BRANCH   6  10
ATOM     10  C   UNL     1      50.380   8.101  12.991  0.00  0.00    +0.000 C 
ATOM     11  N   UNL     1      51.053   7.655  14.092  0.00  0.00    +0.000 N 
ATOM     12  O   UNL     1      50.966   8.753  12.135  0.00  0.00    +0.000 OA
ATOM     13  H   UNL     1      50.663   7.146  14.870  0.00  0.00    +0.000 HD
ATOM     14  H   UNL     1      52.032   7.909  14.155  0.00  0.00    +0.000 HD
ENDBRANCH   6  10
ENDBRANCH   1   3
BRANCH   1  15
ATOM     15  C   UNL     1      44.467   6.697  11.030  0.00  0.00    +0.000 C 
BRANCH  15  17
ATOM     16  C   UNL     1      42.600   5.216  12.004  0.00  0.00    +0.000 C 
ATOM     17  C   UNL     1      43.709   5.406  11.019  0.00  0.00    +0.000 C 
BRANCH  17  18
ATOM     18  C   UNL     1      44.232   4.259  10.267  0.00  0.00    +0.000 A 
ATOM     19  C   UNL     1      43.808   2.966  10.580  0.00  0.00    +0.000 A 
ATOM     20  C   UNL     1      44.320   1.863   9.896  0.00  0.00    +0.000 A 
ATOM     21  C   UNL     1      45.246   2.045   8.872  0.00  0.00    +0.000 A 
ATOM     22  C   UNL     1      45.670   3.334   8.519  0.00  0.00    +0.000 A 
ATOM     23  C   UNL     1      45.166   4.436   9.234  0.00  0.00    +0.000 A 
BRANCH  22  24
ATOM     24  C   UNL     1      46.637   3.552   7.382  0.00  0.00    +0.000 C 
ATOM     25  F   UNL     1      47.665   2.657   7.360  0.00  0.00    +0.000 F 
ATOM     26  F   UNL     1      46.035   3.454   6.164  0.00  0.00    +0.000 F 
ATOM     27  F   UNL     1      47.215   4.784   7.414  0.00  0.00    +0.000 F 
ENDBRANCH  22  24
ENDBRANCH  17  18
ENDBRANCH  15  17
ENDBRANCH   1  15
TORSDOF 6
ENDMDL
MODEL 5
REMARK VINA RESULT:    -6.860      5.240      7.976
REMARK INTER + INTRA:         -10.183
REMARK INTER:                  -9.472
REMARK INTRA:                  -0.710
REMARK UNBOUND:                -0.916
REMARK  Name = 
REMARK  7 active torsions:
REMARK  status: ('A' for Active; 'I' for Inactive)
REMARK    1  A    between atoms: C_1  and  C_2
REMARK    2  A    between atoms: C_2  and  C_3
REMARK    3  A    between atoms: C_2  and  C_15
REMARK    4  A    between atoms: C_3  and  N_4
REMARK    5  A    between atoms: N_4  and  C_5
REMARK    6  A    between atoms: C_8  and  C_9
REMARK    7  A    between atoms: C_19  and  C_20
REMARK                            x       y       z     vdW  Elec       q    Type
REMARK                         _______ _______ _______ _____ _____    ______ ____
ROOT
ATOM      1  N   UNL     1      46.864   5.338  13.361  0.00  0.00    +0.000 N 
ATOM      2  H   UNL     1      47.516   5.969  12.899  0.00  0.00    +0.000 HD
ENDROOT
BRANCH   1   3
ATOM      3  C   UNL     1      47.294   5.122  14.680  0.00  0.00    +0.000 A 
ATOM      4  N   UNL     1      46.771   4.076  15.360  0.00  0.00    +0.000 NA
ATOM      5  C   UNL     1      47.180   3.857  16.631  0.00  0.00    +0.000 A 
ATOM      6  C   UNL     1      48.119   4.630  17.287  0.00  0.00    +0.000 A 
ATOM      7  C   UNL     1      48.682   5.693  16.578  0.00  0.00    +0.000 A 
ATOM      8  C   UNL     1      48.266   5.944  15.268  0.00  0.00    +0.000 A 
ATOM      9 BR   UNL     1      49.042   7.408  14.341  0.00  0.00    +0.000 Br
BRANCH   6  10
ATOM     10  C   UNL     1      48.539   4.376  18.684  0.00  0.00    +0.000 C 
ATOM     11  N   UNL     1      48.448   3.108  19.186  0.00  0.00    +0.000 N 
ATOM     12  O   UNL     1      48.957   5.286  19.389  0.00  0.00    +0.000 OA
ATOM     13  H   UNL     1      48.086   2.298  18.708  0.00  0.00    +0.000 HD
ATOM     14  H   UNL     1      48.723   2.986  20.153  0.00  0.00    +0.000 HD
ENDBRANCH   6  10
ENDBRANCH   1   3
BRANCH   1  15
ATOM     15  C   UNL     1      45.486   5.802  13.264  0.00  0.00    +0.000 C 
BRANCH  15  17
ATOM     16  C   UNL     1      44.769   7.351  11.339  0.00  0.00    +0.000 C 
ATOM     17  C   UNL     1      45.172   5.992  11.813  0.00  0.00    +0.000 C 
BRANCH  17  18
ATOM     18  C   UNL     1      44.980   4.821  10.949  0.00  0.00    +0.000 A 
ATOM     19  C   UNL     1      44.085   3.816  11.323  0.00  0.00    +0.000 A 
ATOM     20  C   UNL     1      43.914   2.682  10.529  0.00  0.00    +0.000 A 
ATOM     21  C   UNL     1      44.622   2.553   9.337  0.00  0.00    +0.000 A 
ATOM     22  C   UNL     1      45.508   3.557   8.924  0.00  0.00    +0.000 A 
ATOM     23  C   UNL     1      45.690   4.684   9.746  0.00  0.00    +0.000 A 
BRANCH  22  24
ATOM     24  C   UNL     1      46.247   3.455   7.612  0.00  0.00    +0.000 C 
ATOM     25  F   UNL     1      45.427   3.285   6.536  0.00  0.00    +0.000 F 
ATOM     26  F   UNL     1      46.985   4.567   7.344  0.00  0.00    +0.000 F 
ATOM     27  F   UNL     1      47.121   2.411   7.583  0.00  0.00    +0.000 F 
ENDBRANCH  22  24
ENDBRANCH  17  18
ENDBRANCH  15  17
ENDBRANCH   1  15
TORSDOF 6
ENDMDL
MODEL 6
REMARK VINA RESULT:    -6.826      4.691      6.930
REMARK INTER + INTRA:         -10.136
REMARK INTER:                  -9.422
REMARK INTRA:                  -0.714
REMARK UNBOUND:                -0.916
REMARK  Name = 
REMARK  7 active torsions:
REMARK  status: ('A' for Active; 'I' for Inactive)
REMARK    1  A    between atoms: C_1  and  C_2
REMARK    2  A    between atoms: C_2  and  C_3
REMARK    3  A    between atoms: C_2  and  C_15
REMARK    4  A    between atoms: C_3  and  N_4
REMARK    5  A    between atoms: N_4  and  C_5
REMARK    6  A    between atoms: C_8  and  C_9
REMARK    7  A    between atoms: C_19  and  C_20
REMARK                            x       y       z     vdW  Elec       q    Type
REMARK                         _______ _______ _______ _____ _____    ______ ____
ROOT
ATOM      1  N   UNL     1      45.215   4.543  13.169  0.00  0.00    +0.000 N 
ATOM      2  H   UNL     1      44.957   4.448  14.148  0.00  0.00    +0.000 HD
ENDROOT
BRANCH   1   3
ATOM      3  C   UNL     1      46.333   5.387  13.069  0.00  0.00    +0.000 A 
ATOM      4  N   UNL     1      46.444   6.176  11.975  0.00  0.00    +0.000 NA
ATOM      5  C   UNL     1      47.517   6.994  11.870  0.00  0.00    +0.000 A 
ATOM      6  C   UNL     1      48.514   7.090  12.821  0.00  0.00    +0.000 A 
ATOM      7  C   UNL     1      48.388   6.298  13.965  0.00  0.00    +0.000 A 
ATOM      8  C   UNL     1      47.293   5.438  14.089  0.00  0.00    +0.000 A 
ATOM      9 BR   UNL     1      47.164   4.364  15.650  0.00  0.00    +0.000 Br
BRANCH   6  10
ATOM     10  C   UNL     1      49.684   7.985  12.674  0.00  0.00    +0.000 C 
ATOM     11  N   UNL     1      50.631   7.694  11.733  0.00  0.00    +0.000 N 
ATOM     12  O   UNL     1      49.813   8.971  13.389  0.00  0.00    +0.000 OA
ATOM     13  H   UNL     1      50.643   6.893  11.122  0.00  0.00    +0.000 HD
ATOM     14  H   UNL     1      51.426   8.320  11.685  0.00  0.00    +0.000 HD
ENDBRANCH   6  10
ENDBRANCH   1   3
BRANCH   1  15
ATOM     15  C   UNL     1      45.396   3.253  12.518  0.00  0.00    +0.000 C 
BRANCH  15  17
ATOM     16  C   UNL     1      43.125   2.816  11.389  0.00  0.00    +0.000 C 
ATOM     17  C   UNL     1      44.553   3.245  11.281  0.00  0.00    +0.000 C 
BRANCH  17  18
ATOM     18  C   UNL     1      45.189   3.370   9.964  0.00  0.00    +0.000 A 
ATOM     19  C   UNL     1      45.281   4.621   9.348  0.00  0.00    +0.000 A 
ATOM     20  C   UNL     1      45.854   4.752   8.083  0.00  0.00    +0.000 A 
ATOM     21  C   UNL     1      46.365   3.633   7.430  0.00  0.00    +0.000 A 
ATOM     22  C   UNL     1      46.310   2.370   8.035  0.00  0.00    +0.000 A 
ATOM     23  C   UNL     1      45.706   2.247   9.300  0.00  0.00    +0.000 A 
BRANCH  22  24
ATOM     24  C   UNL     1      46.901   1.156   7.361  0.00  0.00    +0.000 C 
ATOM     25  F   UNL     1      46.499   1.000   6.068  0.00  0.00    +0.000 F 
ATOM     26  F   UNL     1      48.262   1.195   7.323  0.00  0.00    +0.000 F 
ATOM     27  F   UNL     1      46.578  -0.004   7.995  0.00  0.00    +0.000 F 
ENDBRANCH  22  24
ENDBRANCH  17  18
ENDBRANCH  15  17
ENDBRANCH   1  15
TORSDOF 6
ENDMDL
MODEL 7
REMARK VINA RESULT:    -6.578      1.637      2.048
REMARK INTER + INTRA:          -9.800
REMARK INTER:                  -8.980
REMARK INTRA:                  -0.821
REMARK UNBOUND:                -0.916
REMARK  Name = 
REMARK  7 active torsions:
REMARK  status: ('A' for Active; 'I' for Inactive)
REMARK    1  A    between atoms: C_1  and  C_2
REMARK    2  A    between atoms: C_2  and  C_3
REMARK    3  A    between atoms: C_2  and  C_15
REMARK    4  A    between atoms: C_3  and  N_4
REMARK    5  A    between atoms: N_4  and  C_5
REMARK    6  A    between atoms: C_8  and  C_9
REMARK    7  A    between atoms: C_19  and  C_20
REMARK                            x       y       z     vdW  Elec       q    Type
REMARK                         _______ _______ _______ _____ _____    ______ ____
ROOT
ATOM      1  N   UNL     1      44.407   3.316  10.926  0.00  0.00    +0.000 N 
ATOM      2  H   UNL     1      43.934   4.217  10.921  0.00  0.00    +0.000 HD
ENDROOT
BRANCH   1   3
ATOM      3  C   UNL     1      45.129   3.172   9.729  0.00  0.00    +0.000 A 
ATOM      4  N   UNL     1      45.244   1.934   9.197  0.00  0.00    +0.000 NA
ATOM      5  C   UNL     1      45.935   1.783   8.044  0.00  0.00    +0.000 A 
ATOM      6  C   UNL     1      46.528   2.824   7.355  0.00  0.00    +0.000 A 
ATOM      7  C   UNL     1      46.387   4.108   7.887  0.00  0.00    +0.000 A 
ATOM      8  C   UNL     1      45.686   4.284   9.083  0.00  0.00    +0.000 A 
ATOM      9 BR   UNL     1      45.528   6.042   9.784  0.00  0.00    +0.000 Br
BRANCH   6  10
ATOM     10  C   UNL     1      47.291   2.629   6.100  0.00  0.00    +0.000 C 
ATOM     11  N   UNL     1      48.618   2.314   6.171  0.00  0.00    +0.000 N 
ATOM     12  O   UNL     1      46.747   2.756   5.010  0.00  0.00    +0.000 OA
ATOM     13  H   UNL     1      49.170   2.224   7.009  0.00  0.00    +0.000 HD
ATOM     14  H   UNL     1      49.104   2.215   5.288  0.00  0.00    +0.000 HD
ENDBRANCH   6  10
ENDBRANCH   1   3
BRANCH   1  15
ATOM     15  C   UNL     1      45.216   3.125  12.122  0.00  0.00    +0.000 C 
BRANCH  15  17
ATOM     16  C   UNL     1      43.751   5.109  12.858  0.00  0.00    +0.000 C 
ATOM     17  C   UNL     1      45.011   4.318  13.003  0.00  0.00    +0.000 C 
BRANCH  17  18
ATOM     18  C   UNL     1      46.139   4.860  13.770  0.00  0.00    +0.000 A 
ATOM     19  C   UNL     1      46.811   5.997  13.316  0.00  0.00    +0.000 A 
ATOM     20  C   UNL     1      47.905   6.506  14.016  0.00  0.00    +0.000 A 
ATOM     21  C   UNL     1      48.323   5.896  15.195  0.00  0.00    +0.000 A 
ATOM     22  C   UNL     1      47.651   4.769  15.689  0.00  0.00    +0.000 A 
ATOM     23  C   UNL     1      46.566   4.250  14.960  0.00  0.00    +0.000 A 
BRANCH  22  24
ATOM     24  C   UNL     1      48.062   4.124  16.990  0.00  0.00    +0.000 C 
ATOM     25  F   UNL     1      47.026   3.558  17.669  0.00  0.00    +0.000 F 
ATOM     26  F   UNL     1      48.975   3.129  16.810  0.00  0.00    +0.000 F 
ATOM     27  F   UNL     1      48.638   5.006  17.853  0.00  0.00    +0.000 F 
ENDBRANCH  22  24
ENDBRANCH  17  18
ENDBRANCH  15  17
ENDBRANCH   1  15
TORSDOF 6
ENDMDL
MODEL 8
REMARK VINA RESULT:    -6.571      5.616      7.900
REMARK INTER + INTRA:          -9.792
REMARK INTER:                  -9.078
REMARK INTRA:                  -0.714
REMARK UNBOUND:                -0.916
REMARK  Name = 
REMARK  7 active torsions:
REMARK  status: ('A' for Active; 'I' for Inactive)
REMARK    1  A    between atoms: C_1  and  C_2
REMARK    2  A    between atoms: C_2  and  C_3
REMARK    3  A    between atoms: C_2  and  C_15
REMARK    4  A    between atoms: C_3  and  N_4
REMARK    5  A    between atoms: N_4  and  C_5
REMARK    6  A    between atoms: C_8  and  C_9
REMARK    7  A    between atoms: C_19  and  C_20
REMARK                            x       y       z     vdW  Elec       q    Type
REMARK                         _______ _______ _______ _____ _____    ______ ____
ROOT
ATOM      1  N   UNL     1      47.942   4.839  16.707  0.00  0.00    +0.000 N 
ATOM      2  H   UNL     1      47.365   4.914  17.542  0.00  0.00    +0.000 HD
ENDROOT
BRANCH   1   3
ATOM      3  C   UNL     1      49.001   3.951  16.960  0.00  0.00    +0.000 A 
ATOM      4  N   UNL     1      48.904   2.688  16.485  0.00  0.00    +0.000 NA
ATOM      5  C   UNL     1      49.919   1.825  16.722  0.00  0.00    +0.000 A 
ATOM      6  C   UNL     1      51.069   2.153  17.413  0.00  0.00    +0.000 A 
ATOM      7  C   UNL     1      51.185   3.464  17.880  0.00  0.00    +0.000 A 
ATOM      8  C   UNL     1      50.144   4.369  17.657  0.00  0.00    +0.000 A 
ATOM      9 BR   UNL     1      50.329   6.138  18.321  0.00  0.00    +0.000 Br
BRANCH   6  10
ATOM     10  C   UNL     1      52.160   1.184  17.669  0.00  0.00    +0.000 C 
ATOM     11  N   UNL     1      51.853  -0.037  18.200  0.00  0.00    +0.000 N 
ATOM     12  O   UNL     1      53.324   1.470  17.419  0.00  0.00    +0.000 OA
ATOM     13  H   UNL     1      50.940  -0.359  18.477  0.00  0.00    +0.000 HD
ATOM     14  H   UNL     1      52.633  -0.658  18.380  0.00  0.00    +0.000 HD
ENDBRANCH   6  10
ENDBRANCH   1   3
BRANCH   1  15
ATOM     15  C   UNL     1      47.162   4.497  15.526  0.00  0.00    +0.000 C 
BRANCH  15  17
ATOM     16  C   UNL     1      48.363   6.659  14.815  0.00  0.00    +0.000 C 
ATOM     17  C   UNL     1      47.469   5.512  14.469  0.00  0.00    +0.000 C 
BRANCH  17  18
ATOM     18  C   UNL     1      46.682   5.537  13.231  0.00  0.00    +0.000 A 
ATOM     19  C   UNL     1      47.094   6.329  12.157  0.00  0.00    +0.000 A 
ATOM     20  C   UNL     1      46.340   6.389  10.985  0.00  0.00    +0.000 A 
ATOM     21  C   UNL     1      45.175   5.636  10.866  0.00  0.00    +0.000 A 
ATOM     22  C   UNL     1      44.750   4.813  11.918  0.00  0.00    +0.000 A 
ATOM     23  C   UNL     1      45.506   4.781  13.105  0.00  0.00    +0.000 A 
BRANCH  22  24
ATOM     24  C   UNL     1      43.516   3.954  11.788  0.00  0.00    +0.000 C 
ATOM     25  F   UNL     1      42.352   4.659  11.862  0.00  0.00    +0.000 F 
ATOM     26  F   UNL     1      43.471   3.288  10.601  0.00  0.00    +0.000 F 
ATOM     27  F   UNL     1      43.438   2.999  12.755  0.00  0.00    +0.000 F 
ENDBRANCH  22  24
ENDBRANCH  17  18
ENDBRANCH  15  17
ENDBRANCH   1  15
TORSDOF 6
ENDMDL
MODEL 9
REMARK VINA RESULT:    -6.274      3.085      4.824
REMARK INTER + INTRA:          -9.390
REMARK INTER:                  -8.544
REMARK INTRA:                  -0.846
REMARK UNBOUND:                -0.916
REMARK  Name = 
REMARK  7 active torsions:
REMARK  status: ('A' for Active; 'I' for Inactive)
REMARK    1  A    between atoms: C_1  and  C_2
REMARK    2  A    between atoms: C_2  and  C_3
REMARK    3  A    between atoms: C_2  and  C_15
REMARK    4  A    between atoms: C_3  and  N_4
REMARK    5  A    between atoms: N_4  and  C_5
REMARK    6  A    between atoms: C_8  and  C_9
REMARK    7  A    between atoms: C_19  and  C_20
REMARK                            x       y       z     vdW  Elec       q    Type
REMARK                         _______ _______ _______ _____ _____    ______ ____
ROOT
ATOM      1  N   UNL     1      47.269   7.010  14.032  0.00  0.00    +0.000 N 
ATOM      2  H   UNL     1      46.959   7.952  13.803  0.00  0.00    +0.000 HD
ENDROOT
BRANCH   1   3
ATOM      3  C   UNL     1      46.508   6.086  13.298  0.00  0.00    +0.000 A 
ATOM      4  N   UNL     1      46.689   4.768  13.545  0.00  0.00    +0.000 NA
ATOM      5  C   UNL     1      45.960   3.869  12.845  0.00  0.00    +0.000 A 
ATOM      6  C   UNL     1      45.021   4.209  11.890  0.00  0.00    +0.000 A 
ATOM      7  C   UNL     1      44.812   5.569  11.652  0.00  0.00    +0.000 A 
ATOM      8  C   UNL     1      45.562   6.515  12.356  0.00  0.00    +0.000 A 
ATOM      9 BR   UNL     1      45.262   8.354  11.994  0.00  0.00    +0.000 Br
BRANCH   6  10
ATOM     10  C   UNL     1      44.245   3.203  11.128  0.00  0.00    +0.000 C 
ATOM     11  N   UNL     1      44.886   2.434  10.198  0.00  0.00    +0.000 N 
ATOM     12  O   UNL     1      43.044   3.062  11.319  0.00  0.00    +0.000 OA
ATOM     13  H   UNL     1      45.857   2.493   9.936  0.00  0.00    +0.000 HD
ATOM     14  H   UNL     1      44.311   1.777   9.684  0.00  0.00    +0.000 HD
ENDBRANCH   6  10
ENDBRANCH   1   3
BRANCH   1  15
ATOM     15  C   UNL     1      48.707   6.848  13.865  0.00  0.00    +0.000 C 
BRANCH  15  17
ATOM     16  C   UNL     1      50.711   7.742  15.208  0.00  0.00    +0.000 C 
ATOM     17  C   UNL     1      49.351   7.122  15.188  0.00  0.00    +0.000 C 
BRANCH  17  18
ATOM     18  C   UNL     1      48.792   6.529  16.409  0.00  0.00    +0.000 A 
ATOM     19  C   UNL     1      48.427   7.348  17.480  0.00  0.00    +0.000 A 
ATOM     20  C   UNL     1      47.925   6.798  18.659  0.00  0.00    +0.000 A 
ATOM     21  C   UNL     1      47.757   5.420  18.769  0.00  0.00    +0.000 A 
ATOM     22  C   UNL     1      48.091   4.576  17.701  0.00  0.00    +0.000 A 
ATOM     23  C   UNL     1      48.621   5.141  16.527  0.00  0.00    +0.000 A 
BRANCH  22  24
ATOM     24  C   UNL     1      47.871   3.085  17.788  0.00  0.00    +0.000 C 
ATOM     25  F   UNL     1      46.571   2.715  17.621  0.00  0.00    +0.000 F 
ATOM     26  F   UNL     1      48.575   2.402  16.844  0.00  0.00    +0.000 F 
ATOM     27  F   UNL     1      48.256   2.568  18.987  0.00  0.00    +0.000 F 
ENDBRANCH  22  24
ENDBRANCH  17  18
ENDBRANCH  15  17
ENDBRANCH   1  15
TORSDOF 6
ENDMDL
