MODEL 1
REMARK VINA RESULT:    -7.912      0.000      0.000
REMARK INTER + INTRA:         -11.211
REMARK INTER:                 -10.456
REMARK INTRA:                  -0.755
REMARK UNBOUND:                -0.755
REMARK  Name = 
REMARK  7 active torsions:
REMARK  status: ('A' for Active; 'I' for Inactive)
REMARK    1  A    between atoms: C_1  and  O_2
REMARK    2  A    between atoms: O_2  and  C_3
REMARK    3  A    between atoms: N_10  and  C_11
REMARK    4  A    between atoms: C_11  and  C_12
REMARK    5  A    between atoms: C_15  and  C_16
REMARK    6  A    between atoms: C_16  and  C_17
REMARK    7  A    between atoms: C_17  and  N_18
REMARK                            x       y       z     vdW  Elec       q    Type
REMARK                         _______ _______ _______ _____ _____    ______ ____
ROOT
ATOM      1  C   UNL     1      43.801   4.706  10.516  0.00  0.00    +0.000 C 
ENDROOT
BRANCH   1   9
ATOM      2  C   UNL     1      47.282   4.747  14.513  0.00  0.00    +0.000 A 
ATOM      3  C   UNL     1      46.734   3.631  13.890  0.00  0.00    +0.000 A 
ATOM      4  C   UNL     1      45.890   3.761  12.770  0.00  0.00    +0.000 A 
ATOM      5  C   UNL     1      45.595   5.052  12.302  0.00  0.00    +0.000 A 
ATOM      6  C   UNL     1      46.156   6.183  12.905  0.00  0.00    +0.000 A 
ATOM      7  C   UNL     1      45.705   7.316  12.177  0.00  0.00    +0.000 A 
ATOM      8  C   UNL     1      44.865   6.874  11.189  0.00  0.00    +0.000 A 
ATOM      9  N   UNL     1      44.768   5.503  11.282  0.00  0.00    +0.000 N 
ATOM     10  C   UNL     1      46.993   6.026  14.032  0.00  0.00    +0.000 A 
BRANCH   2  12
ATOM     11  C   UNL     1      47.566   3.966  16.724  0.00  0.00    +0.000 C 
ATOM     12  O   UNL     1      48.086   4.706  15.624  0.00  0.00    +0.000 OA
ENDBRANCH   2  12
ENDBRANCH   1   9
BRANCH   1  13
ATOM     13  C   UNL     1      44.475   3.815   9.502  0.00  0.00    +0.000 A 
ATOM     14  C   UNL     1      44.423   2.422   9.635  0.00  0.00    +0.000 A 
ATOM     15  C   UNL     1      45.226   1.603   8.837  0.00  0.00    +0.000 A 
ATOM     16  C   UNL     1      46.088   2.162   7.887  0.00  0.00    +0.000 A 
ATOM     17  C   UNL     1      46.028   3.540   7.650  0.00  0.00    +0.000 A 
ATOM     18  C   UNL     1      45.229   4.359   8.453  0.00  0.00    +0.000 A 
BRANCH  16  19
ATOM     19  C   UNL     1      47.151   1.311   7.229  0.00  0.00    +0.000 C 
BRANCH  19  20
ATOM     20  C   UNL     1      48.346   2.087   6.676  0.00  0.00    +0.000 C 
BRANCH  20  21
ATOM     21  N   UNL     1      48.388   1.990   5.215  0.00  0.00    +0.000 NA
ATOM     22  H   UNL     1      49.357   1.940   4.900  0.00  0.00    +0.000 HD
ATOM     23  H   UNL     1      47.997   2.836   4.805  0.00  0.00    +0.000 HD
ENDBRANCH  20  21
ENDBRANCH  19  20
ENDBRANCH  16  19
ENDBRANCH   1  13
TORSDOF 6
ENDMDL
MODEL 2
REMARK VINA RESULT:    -7.719      1.290      1.947
REMARK INTER + INTRA:         -10.956
REMARK INTER:                 -10.177
REMARK INTRA:                  -0.779
REMARK UNBOUND:                -0.755
REMARK  Name = 
REMARK  7 active torsions:
REMARK  status: ('A' for Active; 'I' for Inactive)
REMARK    1  A    between atoms: C_1  and  O_2
REMARK    2  A    between atoms: O_2  and  C_3
REMARK    3  A    between atoms: N_10  and  C_11
REMARK    4  A    between atoms: C_11  and  C_12
REMARK    5  A    between atoms: C_15  and  C_16
REMARK    6  A    between atoms: C_16  and  C_17
REMARK    7  A    between atoms: C_17  and  N_18
REMARK                            x       y       z     vdW  Elec       q    Type
REMARK                         _______ _______ _______ _____ _____    ______ ____
ROOT
ATOM      1  C   UNL     1      43.782   4.775  10.238  0.00  0.00    +0.000 C 
ENDROOT
BRANCH   1   9
ATOM      2  C   UNL     1      47.975   6.414  13.037  0.00  0.00    +0.000 A 
ATOM      3  C   UNL     1      47.598   6.835  11.766  0.00  0.00    +0.000 A 
ATOM      4  C   UNL     1      46.401   6.388  11.173  0.00  0.00    +0.000 A 
ATOM      5  C   UNL     1      45.597   5.486  11.890  0.00  0.00    +0.000 A 
ATOM      6  C   UNL     1      45.953   5.071  13.177  0.00  0.00    +0.000 A 
ATOM      7  C   UNL     1      44.922   4.211  13.641  0.00  0.00    +0.000 A 
ATOM      8  C   UNL     1      43.995   4.086  12.639  0.00  0.00    +0.000 A 
ATOM      9  N   UNL     1      44.419   4.831  11.561  0.00  0.00    +0.000 N 
ATOM     10  C   UNL     1      47.162   5.527  13.746  0.00  0.00    +0.000 A 
BRANCH   2  12
ATOM     11  C   UNL     1      49.037   6.937  15.081  0.00  0.00    +0.000 C 
ATOM     12  O   UNL     1      49.136   6.779  13.669  0.00  0.00    +0.000 OA
ENDBRANCH   2  12
ENDBRANCH   1   9
BRANCH   1  13
ATOM     13  C   UNL     1      44.508   3.848   9.296  0.00  0.00    +0.000 A 
ATOM     14  C   UNL     1      44.455   2.461   9.482  0.00  0.00    +0.000 A 
ATOM     15  C   UNL     1      45.299   1.615   8.758  0.00  0.00    +0.000 A 
ATOM     16  C   UNL     1      46.205   2.140   7.829  0.00  0.00    +0.000 A 
ATOM     17  C   UNL     1      46.150   3.507   7.534  0.00  0.00    +0.000 A 
ATOM     18  C   UNL     1      45.311   4.354   8.263  0.00  0.00    +0.000 A 
BRANCH  16  19
ATOM     19  C   UNL     1      47.301   1.270   7.259  0.00  0.00    +0.000 C 
BRANCH  19  20
ATOM     20  C   UNL     1      48.461   2.033   6.617  0.00  0.00    +0.000 C 
BRANCH  20  21
ATOM     21  N   UNL     1      48.361   1.983   5.157  0.00  0.00    +0.000 NA
ATOM     22  H   UNL     1      48.233   2.924   4.787  0.00  0.00    +0.000 HD
ATOM     23  H   UNL     1      47.531   1.456   4.890  0.00  0.00    +0.000 HD
ENDBRANCH  20  21
ENDBRANCH  19  20
ENDBRANCH  16  19
ENDBRANCH   1  13
TORSDOF 6
ENDMDL
MODEL 3
REMARK VINA RESULT:    -7.431      1.746      2.923
REMARK INTER + INTRA:         -10.575
REMARK INTER:                  -9.844
REMARK INTRA:                  -0.731
REMARK UNBOUND:                -0.755
REMARK  Name = 
REMARK  7 active torsions:
REMARK  status: ('A' for Active; 'I' for Inactive)
REMARK    1  A    between atoms: C_1  and  O_2
REMARK    2  A    between atoms: O_2  and  C_3
REMARK    3  A    between atoms: N_10  and  C_11
REMARK    4  A    between atoms: C_11  and  C_12
REMARK    5  A    between atoms: C_15  and  C_16
REMARK    6  A    between atoms: C_16  and  C_17
REMARK    7  A    between atoms: C_17  and  N_18
REMARK                            x       y       z     vdW  Elec       q    Type
REMARK                         _______ _______ _______ _____ _____    ______ ____
ROOT
ATOM      1  C   UNL     1      43.715   4.478  10.994  0.00  0.00    +0.000 C 
ENDROOT
BRANCH   1   9
ATOM      2  C   UNL     1      46.356   8.819  12.502  0.00  0.00    +0.000 A 
ATOM      3  C   UNL     1      45.235   8.762  11.681  0.00  0.00    +0.000 A 
ATOM      4  C   UNL     1      44.570   7.545  11.437  0.00  0.00    +0.000 A 
ATOM      5  C   UNL     1      45.076   6.376  12.029  0.00  0.00    +0.000 A 
ATOM      6  C   UNL     1      46.190   6.421  12.873  0.00  0.00    +0.000 A 
ATOM      7  C   UNL     1      46.416   5.100  13.341  0.00  0.00    +0.000 A 
ATOM      8  C   UNL     1      45.485   4.281  12.759  0.00  0.00    +0.000 A 
ATOM      9  N   UNL     1      44.690   5.046  11.934  0.00  0.00    +0.000 N 
ATOM     10  C   UNL     1      46.844   7.653  13.097  0.00  0.00    +0.000 A 
BRANCH   2  12
ATOM     11  C   UNL     1      48.395   9.742  13.258  0.00  0.00    +0.000 C 
ATOM     12  O   UNL     1      47.076   9.956  12.765  0.00  0.00    +0.000 OA
ENDBRANCH   2  12
ENDBRANCH   1   9
BRANCH   1  13
ATOM     13  C   UNL     1      44.380   3.722   9.871  0.00  0.00    +0.000 A 
ATOM     14  C   UNL     1      44.272   2.328   9.791  0.00  0.00    +0.000 A 
ATOM     15  C   UNL     1      45.063   1.605   8.895  0.00  0.00    +0.000 A 
ATOM     16  C   UNL     1      45.971   2.264   8.057  0.00  0.00    +0.000 A 
ATOM     17  C   UNL     1      45.969   3.664   8.030  0.00  0.00    +0.000 A 
ATOM     18  C   UNL     1      45.182   4.386   8.931  0.00  0.00    +0.000 A 
BRANCH  16  19
ATOM     19  C   UNL     1      47.017   1.478   7.300  0.00  0.00    +0.000 C 
BRANCH  19  20
ATOM     20  C   UNL     1      48.127   2.322   6.672  0.00  0.00    +0.000 C 
BRANCH  20  21
ATOM     21  N   UNL     1      48.434   1.843   5.323  0.00  0.00    +0.000 NA
ATOM     22  H   UNL     1      49.096   1.069   5.373  0.00  0.00    +0.000 HD
ATOM     23  H   UNL     1      48.897   2.581   4.796  0.00  0.00    +0.000 HD
ENDBRANCH  20  21
ENDBRANCH  19  20
ENDBRANCH  16  19
ENDBRANCH   1  13
TORSDOF 6
ENDMDL
MODEL 4
REMARK VINA RESULT:    -6.572      1.684      2.206
REMARK INTER + INTRA:          -9.440
REMARK INTER:                  -9.013
REMARK INTRA:                  -0.427
REMARK UNBOUND:                -0.755
REMARK  Name = 
REMARK  7 active torsions:
REMARK  status: ('A' for Active; 'I' for Inactive)
REMARK    1  A    between atoms: C_1  and  O_2
REMARK    2  A    between atoms: O_2  and  C_3
REMARK    3  A    between atoms: N_10  and  C_11
REMARK    4  A    between atoms: C_11  and  C_12
REMARK    5  A    between atoms: C_15  and  C_16
REMARK    6  A    between atoms: C_16  and  C_17
REMARK    7  A    between atoms: C_17  and  N_18
REMARK                            x       y       z     vdW  Elec       q    Type
REMARK                         _______ _______ _______ _____ _____    ______ ____
ROOT
ATOM      1  C   UNL     1      44.442   4.902  11.729  0.00  0.00    +0.000 C 
ENDROOT
BRANCH   1   9
ATOM      2  C   UNL     1      48.206   7.848  14.020  0.00  0.00    +0.000 A 
ATOM      3  C   UNL     1      48.181   6.462  13.902  0.00  0.00    +0.000 A 
ATOM      4  C   UNL     1      47.163   5.809  13.180  0.00  0.00    +0.000 A 
ATOM      5  C   UNL     1      46.154   6.590  12.593  0.00  0.00    +0.000 A 
ATOM      6  C   UNL     1      46.178   7.985  12.686  0.00  0.00    +0.000 A 
ATOM      7  C   UNL     1      45.062   8.474  11.956  0.00  0.00    +0.000 A 
ATOM      8  C   UNL     1      44.369   7.395  11.474  0.00  0.00    +0.000 A 
ATOM      9  N   UNL     1      45.009   6.248  11.888  0.00  0.00    +0.000 N 
ATOM     10  C   UNL     1      47.205   8.616  13.421  0.00  0.00    +0.000 A 
BRANCH   2  12
ATOM     11  C   UNL     1      48.622   9.407  15.745  0.00  0.00    +0.000 C 
ATOM     12  O   UNL     1      49.143   8.555  14.730  0.00  0.00    +0.000 OA
ENDBRANCH   2  12
ENDBRANCH   1   9
BRANCH   1  13
ATOM     13  C   UNL     1      44.748   4.311  10.376  0.00  0.00    +0.000 A 
ATOM     14  C   UNL     1      44.320   3.017  10.052  0.00  0.00    +0.000 A 
ATOM     15  C   UNL     1      44.790   2.383   8.899  0.00  0.00    +0.000 A 
ATOM     16  C   UNL     1      45.689   3.033   8.046  0.00  0.00    +0.000 A 
ATOM     17  C   UNL     1      45.996   4.377   8.289  0.00  0.00    +0.000 A 
ATOM     18  C   UNL     1      45.532   5.009   9.445  0.00  0.00    +0.000 A 
BRANCH  16  19
ATOM     19  C   UNL     1      46.409   2.259   6.966  0.00  0.00    +0.000 C 
BRANCH  19  20
ATOM     20  C   UNL     1      47.867   2.664   6.747  0.00  0.00    +0.000 C 
BRANCH  20  21
ATOM     21  N   UNL     1      48.514   1.756   5.797  0.00  0.00    +0.000 NA
ATOM     22  H   UNL     1      49.330   2.209   5.387  0.00  0.00    +0.000 HD
ATOM     23  H   UNL     1      47.878   1.559   5.026  0.00  0.00    +0.000 HD
ENDBRANCH  20  21
ENDBRANCH  19  20
ENDBRANCH  16  19
ENDBRANCH   1  13
TORSDOF 6
ENDMDL
MODEL 5
REMARK VINA RESULT:    -6.434      3.086      6.485
REMARK INTER + INTRA:          -9.258
REMARK INTER:                  -8.586
REMARK INTRA:                  -0.671
REMARK UNBOUND:                -0.755
REMARK  Name = 
REMARK  7 active torsions:
REMARK  status: ('A' for Active; 'I' for Inactive)
REMARK    1  A    between atoms: C_1  and  O_2
REMARK    2  A    between atoms: O_2  and  C_3
REMARK    3  A    between atoms: N_10  and  C_11
REMARK    4  A    between atoms: C_11  and  C_12
REMARK    5  A    between atoms: C_15  and  C_16
REMARK    6  A    between atoms: C_16  and  C_17
REMARK    7  A    between atoms: C_17  and  N_18
REMARK                            x       y       z     vdW  Elec       q    Type
REMARK                         _______ _______ _______ _____ _____    ______ ____
ROOT
ATOM      1  C   UNL     1      43.660   6.143  11.376  0.00  0.00    +0.000 C 
ENDROOT
BRANCH   1   9
ATOM      2  C   UNL     1      45.898   2.709   8.016  0.00  0.00    +0.000 A 
ATOM      3  C   UNL     1      46.096   4.085   8.064  0.00  0.00    +0.000 A 
ATOM      4  C   UNL     1      45.510   4.871   9.076  0.00  0.00    +0.000 A 
ATOM      5  C   UNL     1      44.700   4.236  10.031  0.00  0.00    +0.000 A 
ATOM      6  C   UNL     1      44.509   2.851  10.007  0.00  0.00    +0.000 A 
ATOM      7  C   UNL     1      43.691   2.520  11.119  0.00  0.00    +0.000 A 
ATOM      8  C   UNL     1      43.369   3.684  11.767  0.00  0.00    +0.000 A 
ATOM      9  N   UNL     1      43.951   4.732  11.090  0.00  0.00    +0.000 N 
ATOM     10  C   UNL     1      45.101   2.085   8.979  0.00  0.00    +0.000 A 
BRANCH   2  12
ATOM     11  C   UNL     1      47.823   1.913   6.903  0.00  0.00    +0.000 C 
ATOM     12  O   UNL     1      46.407   1.880   7.049  0.00  0.00    +0.000 OA
ENDBRANCH   2  12
ENDBRANCH   1   9
BRANCH   1  13
ATOM     13  C   UNL     1      44.847   6.861  11.968  0.00  0.00    +0.000 A 
ATOM     14  C   UNL     1      45.025   8.234  11.758  0.00  0.00    +0.000 A 
ATOM     15  C   UNL     1      46.227   8.855  12.107  0.00  0.00    +0.000 A 
ATOM     16  C   UNL     1      47.269   8.116  12.679  0.00  0.00    +0.000 A 
ATOM     17  C   UNL     1      47.036   6.781  13.027  0.00  0.00    +0.000 A 
ATOM     18  C   UNL     1      45.836   6.158  12.672  0.00  0.00    +0.000 A 
BRANCH  16  19
ATOM     19  C   UNL     1      48.652   8.715  12.794  0.00  0.00    +0.000 C 
BRANCH  19  20
ATOM     20  C   UNL     1      49.757   7.718  13.146  0.00  0.00    +0.000 C 
BRANCH  20  21
ATOM     21  N   UNL     1      50.488   7.316  11.942  0.00  0.00    +0.000 NA
ATOM     22  H   UNL     1      51.491   7.339  12.122  0.00  0.00    +0.000 HD
ATOM     23  H   UNL     1      50.316   7.990  11.198  0.00  0.00    +0.000 HD
ENDBRANCH  20  21
ENDBRANCH  19  20
ENDBRANCH  16  19
ENDBRANCH   1  13
TORSDOF 6
ENDMDL
MODEL 6
REMARK VINA RESULT:    -5.763      3.528      6.566
REMARK INTER + INTRA:          -8.371
REMARK INTER:                  -7.760
REMARK INTRA:                  -0.611
REMARK UNBOUND:                -0.755
REMARK  Name = 
REMARK  7 active torsions:
REMARK  status: ('A' for Active; 'I' for Inactive)
REMARK    1  A    between atoms: C_1  and  O_2
REMARK    2  A    between atoms: O_2  and  C_3
REMARK    3  A    between atoms: N_10  and  C_11
REMARK    4  A    between atoms: C_11  and  C_12
REMARK    5  A    between atoms: C_15  and  C_16
REMARK    6  A    between atoms: C_16  and  C_17
REMARK    7  A    between atoms: C_17  and  N_18
REMARK                            x       y       z     vdW  Elec       q    Type
REMARK                         _______ _______ _______ _____ _____    ______ ____
ROOT
ATOM      1  C   UNL     1      45.202   6.883  12.869  0.00  0.00    +0.000 C 
ENDROOT
BRANCH   1   9
ATOM      2  C   UNL     1      45.271   3.825   8.539  0.00  0.00    +0.000 A 
ATOM      3  C   UNL     1      45.853   5.079   8.690  0.00  0.00    +0.000 A 
ATOM      4  C   UNL     1      45.843   5.745   9.931  0.00  0.00    +0.000 A 
ATOM      5  C   UNL     1      45.211   5.120  11.019  0.00  0.00    +0.000 A 
ATOM      6  C   UNL     1      44.639   3.851  10.888  0.00  0.00    +0.000 A 
ATOM      7  C   UNL     1      44.132   3.484  12.162  0.00  0.00    +0.000 A 
ATOM      8  C   UNL     1      44.360   4.526  13.022  0.00  0.00    +0.000 A 
ATOM      9  N   UNL     1      44.984   5.536  12.324  0.00  0.00    +0.000 N 
ATOM     10  C   UNL     1      44.656   3.207   9.631  0.00  0.00    +0.000 A 
BRANCH   2  12
ATOM     11  C   UNL     1      46.427   3.085   6.617  0.00  0.00    +0.000 C 
ATOM     12  O   UNL     1      45.212   3.127   7.360  0.00  0.00    +0.000 OA
ENDBRANCH   2  12
ENDBRANCH   1   9
BRANCH   1  13
ATOM     13  C   UNL     1      46.635   7.330  12.726  0.00  0.00    +0.000 A 
ATOM     14  C   UNL     1      46.939   8.582  12.178  0.00  0.00    +0.000 A 
ATOM     15  C   UNL     1      48.254   8.907  11.837  0.00  0.00    +0.000 A 
ATOM     16  C   UNL     1      49.290   7.989  12.045  0.00  0.00    +0.000 A 
ATOM     17  C   UNL     1      49.010   6.802  12.732  0.00  0.00    +0.000 A 
ATOM     18  C   UNL     1      47.693   6.474  13.068  0.00  0.00    +0.000 A 
BRANCH  16  19
ATOM     19  C   UNL     1      50.649   8.221  11.426  0.00  0.00    +0.000 C 
BRANCH  19  20
ATOM     20  C   UNL     1      51.769   8.519  12.424  0.00  0.00    +0.000 C 
BRANCH  20  21
ATOM     21  N   UNL     1      52.975   7.761  12.082  0.00  0.00    +0.000 NA
ATOM     22  H   UNL     1      53.434   8.186  11.277  0.00  0.00    +0.000 HD
ATOM     23  H   UNL     1      52.716   6.818  11.799  0.00  0.00    +0.000 HD
ENDBRANCH  20  21
ENDBRANCH  19  20
ENDBRANCH  16  19
ENDBRANCH   1  13
TORSDOF 6
ENDMDL
MODEL 7
REMARK VINA RESULT:    -5.693      3.152      4.336
REMARK INTER + INTRA:          -8.279
REMARK INTER:                  -7.755
REMARK INTRA:                  -0.524
REMARK UNBOUND:                -0.755
REMARK  Name = 
REMARK  7 active torsions:
REMARK  status: ('A' for Active; 'I' for Inactive)
REMARK    1  A    between atoms: C_1  and  O_2
REMARK    2  A    between atoms: O_2  and  C_3
REMARK    3  A    between atoms: N_10  and  C_11
REMARK    4  A    between atoms: C_11  and  C_12
REMARK    5  A    between atoms: C_15  and  C_16
REMARK    6  A    between atoms: C_16  and  C_17
REMARK    7  A    between atoms: C_17  and  N_18
REMARK                            x       y       z     vdW  Elec       q    Type
REMARK                         _______ _______ _______ _____ _____    ______ ____
ROOT
ATOM      1  C   UNL     1      45.702   6.202  12.894  0.00  0.00    +0.000 C 
ENDROOT
BRANCH   1   9
ATOM      2  C   UNL     1      49.730   9.391  11.588  0.00  0.00    +0.000 A 
ATOM      3  C   UNL     1      49.767   8.007  11.729  0.00  0.00    +0.000 A 
ATOM      4  C   UNL     1      48.596   7.268  11.986  0.00  0.00    +0.000 A 
ATOM      5  C   UNL     1      47.382   7.963  12.117  0.00  0.00    +0.000 A 
ATOM      6  C   UNL     1      47.327   9.351  11.957  0.00  0.00    +0.000 A 
ATOM      7  C   UNL     1      45.967   9.737  12.101  0.00  0.00    +0.000 A 
ATOM      8  C   UNL     1      45.237   8.611  12.379  0.00  0.00    +0.000 A 
ATOM      9  N   UNL     1      46.098   7.536  12.424  0.00  0.00    +0.000 N 
ATOM     10  C   UNL     1      48.516  10.071  11.707  0.00  0.00    +0.000 A 
BRANCH   2  12
ATOM     11  C   UNL     1      50.683  11.148  10.330  0.00  0.00    +0.000 C 
ATOM     12  O   UNL     1      50.827  10.183  11.368  0.00  0.00    +0.000 OA
ENDBRANCH   2  12
ENDBRANCH   1   9
BRANCH   1  13
ATOM     13  C   UNL     1      45.255   5.310  11.762  0.00  0.00    +0.000 A 
ATOM     14  C   UNL     1      44.548   4.130  12.024  0.00  0.00    +0.000 A 
ATOM     15  C   UNL     1      44.330   3.194  11.009  0.00  0.00    +0.000 A 
ATOM     16  C   UNL     1      44.808   3.425   9.714  0.00  0.00    +0.000 A 
ATOM     17  C   UNL     1      45.378   4.668   9.419  0.00  0.00    +0.000 A 
ATOM     18  C   UNL     1      45.602   5.602  10.435  0.00  0.00    +0.000 A 
BRANCH  16  19
ATOM     19  C   UNL     1      44.824   2.306   8.698  0.00  0.00    +0.000 C 
BRANCH  19  20
ATOM     20  C   UNL     1      46.185   2.042   8.053  0.00  0.00    +0.000 C 
BRANCH  20  21
ATOM     21  N   UNL     1      46.467   0.605   8.024  0.00  0.00    +0.000 NA
ATOM     22  H   UNL     1      46.017   0.148   8.816  0.00  0.00    +0.000 HD
ATOM     23  H   UNL     1      47.467   0.451   8.135  0.00  0.00    +0.000 HD
ENDBRANCH  20  21
ENDBRANCH  19  20
ENDBRANCH  16  19
ENDBRANCH   1  13
TORSDOF 6
ENDMDL
MODEL 8
REMARK VINA RESULT:    -5.266      4.051      6.461
REMARK INTER + INTRA:          -7.714
REMARK INTER:                  -7.112
REMARK INTRA:                  -0.601
REMARK UNBOUND:                -0.755
REMARK  Name = 
REMARK  7 active torsions:
REMARK  status: ('A' for Active; 'I' for Inactive)
REMARK    1  A    between atoms: C_1  and  O_2
REMARK    2  A    between atoms: O_2  and  C_3
REMARK    3  A    between atoms: N_10  and  C_11
REMARK    4  A    between atoms: C_11  and  C_12
REMARK    5  A    between atoms: C_15  and  C_16
REMARK    6  A    between atoms: C_16  and  C_17
REMARK    7  A    between atoms: C_17  and  N_18
REMARK                            x       y       z     vdW  Elec       q    Type
REMARK                         _______ _______ _______ _____ _____    ______ ____
ROOT
ATOM      1  C   UNL     1      47.144   7.697  13.444  0.00  0.00    +0.000 C 
ENDROOT
BRANCH   1   9
ATOM      2  C   UNL     1      44.665   3.780  10.873  0.00  0.00    +0.000 A 
ATOM      3  C   UNL     1      44.845   5.088  10.435  0.00  0.00    +0.000 A 
ATOM      4  C   UNL     1      45.611   6.007  11.179  0.00  0.00    +0.000 A 
ATOM      5  C   UNL     1      46.179   5.579  12.390  0.00  0.00    +0.000 A 
ATOM      6  C   UNL     1      46.023   4.261  12.832  0.00  0.00    +0.000 A 
ATOM      7  C   UNL     1      46.748   4.137  14.047  0.00  0.00    +0.000 A 
ATOM      8  C   UNL     1      47.288   5.361  14.342  0.00  0.00    +0.000 A 
ATOM      9  N   UNL     1      46.917   6.248  13.356  0.00  0.00    +0.000 N 
ATOM     10  C   UNL     1      45.244   3.360  12.072  0.00  0.00    +0.000 A 
BRANCH   2  12
ATOM     11  C   UNL     1      44.584   2.123   9.191  0.00  0.00    +0.000 C 
ATOM     12  O   UNL     1      43.910   2.836  10.224  0.00  0.00    +0.000 OA
ENDBRANCH   2  12
ENDBRANCH   1   9
BRANCH   1  13
ATOM     13  C   UNL     1      48.249   8.156  12.526  0.00  0.00    +0.000 A 
ATOM     14  C   UNL     1      49.329   7.314  12.237  0.00  0.00    +0.000 A 
ATOM     15  C   UNL     1      50.457   7.807  11.577  0.00  0.00    +0.000 A 
ATOM     16  C   UNL     1      50.522   9.150  11.187  0.00  0.00    +0.000 A 
ATOM     17  C   UNL     1      49.384   9.951  11.338  0.00  0.00    +0.000 A 
ATOM     18  C   UNL     1      48.258   9.459  12.004  0.00  0.00    +0.000 A 
BRANCH  16  19
ATOM     19  C   UNL     1      51.834   9.749  10.734  0.00  0.00    +0.000 C 
BRANCH  19  20
ATOM     20  C   UNL     1      52.911   8.731  10.360  0.00  0.00    +0.000 C 
BRANCH  20  21
ATOM     21  N   UNL     1      52.822   8.390   8.938  0.00  0.00    +0.000 NA
ATOM     22  H   UNL     1      53.010   9.217   8.372  0.00  0.00    +0.000 HD
ATOM     23  H   UNL     1      51.871   8.101   8.716  0.00  0.00    +0.000 HD
ENDBRANCH  20  21
ENDBRANCH  19  20
ENDBRANCH  16  19
ENDBRANCH   1  13
TORSDOF 6
ENDMDL
MODEL 9
REMARK VINA RESULT:    -5.121      3.395      5.296
REMARK INTER + INTRA:          -7.523
REMARK INTER:                  -6.804
REMARK INTRA:                  -0.719
REMARK UNBOUND:                -0.755
REMARK  Name = 
REMARK  7 active torsions:
REMARK  status: ('A' for Active; 'I' for Inactive)
REMARK    1  A    between atoms: C_1  and  O_2
REMARK    2  A    between atoms: O_2  and  C_3
REMARK    3  A    between atoms: N_10  and  C_11
REMARK    4  A    between atoms: C_11  and  C_12
REMARK    5  A    between atoms: C_15  and  C_16
REMARK    6  A    between atoms: C_16  and  C_17
REMARK    7  A    between atoms: C_17  and  N_18
REMARK                            x       y       z     vdW  Elec       q    Type
REMARK                         _______ _______ _______ _____ _____    ______ ____
ROOT
ATOM      1  C   UNL     1      48.641   6.637  13.082  0.00  0.00    +0.000 C 
ENDROOT
BRANCH   1   9
ATOM      2  C   UNL     1      48.466   7.171  18.353  0.00  0.00    +0.000 A 
ATOM      3  C   UNL     1      48.611   5.990  17.634  0.00  0.00    +0.000 A 
ATOM      4  C   UNL     1      48.741   6.000  16.232  0.00  0.00    +0.000 A 
ATOM      5  C   UNL     1      48.701   7.235  15.566  0.00  0.00    +0.000 A 
ATOM      6  C   UNL     1      48.576   8.433  16.277  0.00  0.00    +0.000 A 
ATOM      7  C   UNL     1      48.616   9.491  15.330  0.00  0.00    +0.000 A 
ATOM      8  C   UNL     1      48.721   8.935  14.082  0.00  0.00    +0.000 A 
ATOM      9  N   UNL     1      48.738   7.564  14.218  0.00  0.00    +0.000 N 
ATOM     10  C   UNL     1      48.440   8.396  17.682  0.00  0.00    +0.000 A 
BRANCH   2  12
ATOM     11  C   UNL     1      47.504   6.214  20.287  0.00  0.00    +0.000 C 
ATOM     12  O   UNL     1      48.304   7.244  19.713  0.00  0.00    +0.000 OA
ENDBRANCH   2  12
ENDBRANCH   1   9
BRANCH   1  13
ATOM     13  C   UNL     1      47.217   6.222  12.807  0.00  0.00    +0.000 A 
ATOM     14  C   UNL     1      46.699   5.047  13.365  0.00  0.00    +0.000 A 
ATOM     15  C   UNL     1      45.468   4.542  12.939  0.00  0.00    +0.000 A 
ATOM     16  C   UNL     1      44.730   5.207  11.953  0.00  0.00    +0.000 A 
ATOM     17  C   UNL     1      45.174   6.458  11.508  0.00  0.00    +0.000 A 
ATOM     18  C   UNL     1      46.409   6.960  11.930  0.00  0.00    +0.000 A 
BRANCH  16  19
ATOM     19  C   UNL     1      43.552   4.526  11.294  0.00  0.00    +0.000 C 
BRANCH  19  20
ATOM     20  C   UNL     1      43.812   3.091  10.837  0.00  0.00    +0.000 C 
BRANCH  20  21
ATOM     21  N   UNL     1      43.039   2.147  11.648  0.00  0.00    +0.000 NA
ATOM     22  H   UNL     1      42.560   2.646  12.397  0.00  0.00    +0.000 HD
ATOM     23  H   UNL     1      43.670   1.489  12.101  0.00  0.00    +0.000 HD
ENDBRANCH  20  21
ENDBRANCH  19  20
ENDBRANCH  16  19
ENDBRANCH   1  13
TORSDOF 6
ENDMDL
