MODEL 1
REMARK VINA RESULT:    -9.103      0.000      0.000
REMARK INTER + INTRA:         -12.704
REMARK INTER:                 -12.030
REMARK INTRA:                  -0.674
REMARK UNBOUND:                -0.674
REMARK  Name = 
REMARK  6 active torsions:
REMARK  status: ('A' for Active; 'I' for Inactive)
REMARK    1  A    between atoms: C_2  and  C_3
REMARK    2  A    between atoms: C_6  and  N_7
REMARK    3  A    between atoms: N_7  and  C_8
REMARK    4  A    between atoms: C_8  and  C_9
REMARK    5  A    between atoms: C_13  and  C_14
REMARK    6  A    between atoms: C_18  and  O_19
REMARK                            x       y       z     vdW  Elec       q    Type
REMARK                         _______ _______ _______ _____ _____    ______ ____
ROOT
ATOM      1  C   UNL     1      45.587   5.178  12.011  0.00  0.00    +0.000 A 
ATOM      2  C   UNL     1      46.157   6.297  11.373  0.00  0.00    +0.000 A 
ATOM      3  C   UNL     1      47.128   7.059  12.013  0.00  0.00    +0.000 A 
ATOM      4  C   UNL     1      47.575   6.678  13.276  0.00  0.00    +0.000 A 
ATOM      5  C   UNL     1      47.121   5.494  13.885  0.00  0.00    +0.000 A 
ATOM      6  C   UNL     1      46.172   4.729  13.199  0.00  0.00    +0.000 A 
ENDROOT
BRANCH   5   7
ATOM      7  C   UNL     1      47.507   5.134  15.257  0.00  0.00    +0.000 A 
ATOM      8  C   UNL     1      48.535   5.790  15.942  0.00  0.00    +0.000 A 
ATOM      9  N   UNL     1      48.975   5.459  17.182  0.00  0.00    +0.000 NA
ATOM     10  C   UNL     1      48.348   4.425  17.782  0.00  0.00    +0.000 A 
ATOM     11  C   UNL     1      47.318   3.710  17.199  0.00  0.00    +0.000 A 
ATOM     12  C   UNL     1      46.905   4.061  15.923  0.00  0.00    +0.000 A 
BRANCH  11  13
ATOM     13  O   UNL     1      46.691   2.665  17.804  0.00  0.00    +0.000 OA
ATOM     14  H   UNL     1      47.196   1.854  17.634  0.00  0.00    +0.000 HD
ENDBRANCH  11  13
ENDBRANCH   5   7
BRANCH   1  15
ATOM     15  C   UNL     1      44.218   4.665  11.595  0.00  0.00    +0.000 C 
ATOM     16  C   UNL     1      43.378   3.695  12.408  0.00  0.00    +0.000 C 
ATOM     17  C   UNL     1      43.180   5.147  12.620  0.00  0.00    +0.000 C 
BRANCH  15  18
ATOM     18  N   UNL     1      43.998   4.614  10.152  0.00  0.00    +0.000 N 
ATOM     19  H   UNL     1      43.044   4.698   9.813  0.00  0.00    +0.000 HD
BRANCH  18  23
ATOM     20  C   UNL     1      46.647   2.648   7.516  0.00  0.00    +0.000 A 
ATOM     21  C   UNL     1      45.913   1.885   8.415  0.00  0.00    +0.000 A 
ATOM     22  C   UNL     1      45.028   2.512   9.297  0.00  0.00    +0.000 A 
ATOM     23  C   UNL     1      44.833   3.905   9.264  0.00  0.00    +0.000 A 
ATOM     24  C   UNL     1      45.598   4.650   8.361  0.00  0.00    +0.000 A 
ATOM     25  C   UNL     1      46.502   4.039   7.494  0.00  0.00    +0.000 A 
BRANCH  20  27
ATOM     26  N   UNL     1      48.349   1.511   5.918  0.00  0.00    +0.000 NA
ATOM     27  C   UNL     1      47.584   2.021   6.638  0.00  0.00    +0.000 C 
ENDBRANCH  20  27
ENDBRANCH  18  23
ENDBRANCH  15  18
ENDBRANCH   1  15
TORSDOF 6
ENDMDL
MODEL 2
REMARK VINA RESULT:    -8.491      1.136      1.375
REMARK INTER + INTRA:         -11.895
REMARK INTER:                 -11.068
REMARK INTRA:                  -0.827
REMARK UNBOUND:                -0.674
REMARK  Name = 
REMARK  6 active torsions:
REMARK  status: ('A' for Active; 'I' for Inactive)
REMARK    1  A    between atoms: C_2  and  C_3
REMARK    2  A    between atoms: C_6  and  N_7
REMARK    3  A    between atoms: N_7  and  C_8
REMARK    4  A    between atoms: C_8  and  C_9
REMARK    5  A    between atoms: C_13  and  C_14
REMARK    6  A    between atoms: C_18  and  O_19
REMARK                            x       y       z     vdW  Elec       q    Type
REMARK                         _______ _______ _______ _____ _____    ______ ____
ROOT
ATOM      1  C   UNL     1      45.429   5.347  12.013  0.00  0.00    +0.000 A 
ATOM      2  C   UNL     1      45.775   6.614  11.504  0.00  0.00    +0.000 A 
ATOM      3  C   UNL     1      46.686   7.422  12.174  0.00  0.00    +0.000 A 
ATOM      4  C   UNL     1      47.297   6.950  13.333  0.00  0.00    +0.000 A 
ATOM      5  C   UNL     1      47.072   5.641  13.796  0.00  0.00    +0.000 A 
ATOM      6  C   UNL     1      46.179   4.839  13.078  0.00  0.00    +0.000 A 
ENDROOT
BRANCH   5   7
ATOM      7  C   UNL     1      47.631   5.166  15.070  0.00  0.00    +0.000 A 
ATOM      8  C   UNL     1      47.295   3.923  15.618  0.00  0.00    +0.000 A 
ATOM      9  N   UNL     1      47.729   3.462  16.817  0.00  0.00    +0.000 NA
ATOM     10  C   UNL     1      48.556   4.275  17.507  0.00  0.00    +0.000 A 
ATOM     11  C   UNL     1      48.955   5.522  17.058  0.00  0.00    +0.000 A 
ATOM     12  C   UNL     1      48.479   5.972  15.837  0.00  0.00    +0.000 A 
BRANCH  11  13
ATOM     13  O   UNL     1      49.785   6.343  17.758  0.00  0.00    +0.000 OA
ATOM     14  H   UNL     1      50.702   6.066  17.606  0.00  0.00    +0.000 HD
ENDBRANCH  11  13
ENDBRANCH   5   7
BRANCH   1  15
ATOM     15  C   UNL     1      44.112   4.693  11.628  0.00  0.00    +0.000 C 
ATOM     16  C   UNL     1      43.385   3.660  12.472  0.00  0.00    +0.000 C 
ATOM     17  C   UNL     1      43.046   5.088  12.661  0.00  0.00    +0.000 C 
BRANCH  15  18
ATOM     18  N   UNL     1      43.878   4.592  10.190  0.00  0.00    +0.000 N 
ATOM     19  H   UNL     1      42.918   4.631   9.860  0.00  0.00    +0.000 HD
BRANCH  18  23
ATOM     20  C   UNL     1      46.572   2.638   7.591  0.00  0.00    +0.000 A 
ATOM     21  C   UNL     1      45.814   1.870   8.465  0.00  0.00    +0.000 A 
ATOM     22  C   UNL     1      44.913   2.492   9.334  0.00  0.00    +0.000 A 
ATOM     23  C   UNL     1      44.728   3.888   9.313  0.00  0.00    +0.000 A 
ATOM     24  C   UNL     1      45.518   4.637   8.435  0.00  0.00    +0.000 A 
ATOM     25  C   UNL     1      46.437   4.030   7.581  0.00  0.00    +0.000 A 
BRANCH  20  27
ATOM     26  N   UNL     1      48.307   1.507   6.023  0.00  0.00    +0.000 NA
ATOM     27  C   UNL     1      47.525   2.015   6.727  0.00  0.00    +0.000 C 
ENDBRANCH  20  27
ENDBRANCH  18  23
ENDBRANCH  15  18
ENDBRANCH   1  15
TORSDOF 6
ENDMDL
MODEL 3
REMARK VINA RESULT:    -7.975      2.400      3.123
REMARK INTER + INTRA:         -11.213
REMARK INTER:                 -10.468
REMARK INTRA:                  -0.745
REMARK UNBOUND:                -0.674
REMARK  Name = 
REMARK  6 active torsions:
REMARK  status: ('A' for Active; 'I' for Inactive)
REMARK    1  A    between atoms: C_2  and  C_3
REMARK    2  A    between atoms: C_6  and  N_7
REMARK    3  A    between atoms: N_7  and  C_8
REMARK    4  A    between atoms: C_8  and  C_9
REMARK    5  A    between atoms: C_13  and  C_14
REMARK    6  A    between atoms: C_18  and  O_19
REMARK                            x       y       z     vdW  Elec       q    Type
REMARK                         _______ _______ _______ _____ _____    ______ ____
ROOT
ATOM      1  C   UNL     1      44.836   6.289  11.626  0.00  0.00    +0.000 A 
ATOM      2  C   UNL     1      44.243   7.529  11.320  0.00  0.00    +0.000 A 
ATOM      3  C   UNL     1      44.846   8.719  11.712  0.00  0.00    +0.000 A 
ATOM      4  C   UNL     1      46.073   8.680  12.369  0.00  0.00    +0.000 A 
ATOM      5  C   UNL     1      46.754   7.467  12.574  0.00  0.00    +0.000 A 
ATOM      6  C   UNL     1      46.139   6.290  12.134  0.00  0.00    +0.000 A 
ENDROOT
BRANCH   5   7
ATOM      7  C   UNL     1      47.999   7.401  13.354  0.00  0.00    +0.000 A 
ATOM      8  C   UNL     1      48.169   6.513  14.420  0.00  0.00    +0.000 A 
ATOM      9  N   UNL     1      49.268   6.453  15.212  0.00  0.00    +0.000 NA
ATOM     10  C   UNL     1      50.263   7.317  14.920  0.00  0.00    +0.000 A 
ATOM     11  C   UNL     1      50.202   8.235  13.887  0.00  0.00    +0.000 A 
ATOM     12  C   UNL     1      49.057   8.283  13.107  0.00  0.00    +0.000 A 
BRANCH  11  13
ATOM     13  O   UNL     1      51.204   9.109  13.597  0.00  0.00    +0.000 OA
ATOM     14  H   UNL     1      51.873   9.065  14.299  0.00  0.00    +0.000 HD
ENDBRANCH  11  13
ENDBRANCH   5   7
BRANCH   1  15
ATOM     15  C   UNL     1      43.995   5.024  11.690  0.00  0.00    +0.000 C 
ATOM     16  C   UNL     1      43.989   4.052  12.857  0.00  0.00    +0.000 C 
ATOM     17  C   UNL     1      43.000   5.154  12.854  0.00  0.00    +0.000 C 
BRANCH  15  18
ATOM     18  N   UNL     1      43.681   4.434  10.392  0.00  0.00    +0.000 N 
ATOM     19  H   UNL     1      42.763   4.017  10.267  0.00  0.00    +0.000 HD
BRANCH  18  23
ATOM     20  C   UNL     1      46.460   2.603   7.791  0.00  0.00    +0.000 A 
ATOM     21  C   UNL     1      46.341   3.986   7.773  0.00  0.00    +0.000 A 
ATOM     22  C   UNL     1      45.430   4.617   8.625  0.00  0.00    +0.000 A 
ATOM     23  C   UNL     1      44.655   3.876   9.537  0.00  0.00    +0.000 A 
ATOM     24  C   UNL     1      44.782   2.484   9.522  0.00  0.00    +0.000 A 
ATOM     25  C   UNL     1      45.669   1.842   8.659  0.00  0.00    +0.000 A 
BRANCH  20  27
ATOM     26  N   UNL     1      48.092   1.405   6.166  0.00  0.00    +0.000 NA
ATOM     27  C   UNL     1      47.358   1.945   6.895  0.00  0.00    +0.000 C 
ENDBRANCH  20  27
ENDBRANCH  18  23
ENDBRANCH  15  18
ENDBRANCH   1  15
TORSDOF 6
ENDMDL
MODEL 4
REMARK VINA RESULT:    -7.727      3.184      4.403
REMARK INTER + INTRA:         -10.885
REMARK INTER:                 -10.137
REMARK INTRA:                  -0.749
REMARK UNBOUND:                -0.674
REMARK  Name = 
REMARK  6 active torsions:
REMARK  status: ('A' for Active; 'I' for Inactive)
REMARK    1  A    between atoms: C_2  and  C_3
REMARK    2  A    between atoms: C_6  and  N_7
REMARK    3  A    between atoms: N_7  and  C_8
REMARK    4  A    between atoms: C_8  and  C_9
REMARK    5  A    between atoms: C_13  and  C_14
REMARK    6  A    between atoms: C_18  and  O_19
REMARK                            x       y       z     vdW  Elec       q    Type
REMARK                         _______ _______ _______ _____ _____    ______ ____
ROOT
ATOM      1  C   UNL     1      45.091   5.383  12.535  0.00  0.00    +0.000 A 
ATOM      2  C   UNL     1      46.193   4.655  13.025  0.00  0.00    +0.000 A 
ATOM      3  C   UNL     1      47.410   5.285  13.260  0.00  0.00    +0.000 A 
ATOM      4  C   UNL     1      47.520   6.658  13.055  0.00  0.00    +0.000 A 
ATOM      5  C   UNL     1      46.405   7.435  12.692  0.00  0.00    +0.000 A 
ATOM      6  C   UNL     1      45.186   6.777  12.500  0.00  0.00    +0.000 A 
ENDROOT
BRANCH   5   7
ATOM      7  C   UNL     1      46.530   8.865  12.376  0.00  0.00    +0.000 A 
ATOM      8  C   UNL     1      45.464   9.616  11.870  0.00  0.00    +0.000 A 
ATOM      9  N   UNL     1      45.539  10.919  11.501  0.00  0.00    +0.000 NA
ATOM     10  C   UNL     1      46.740  11.516  11.657  0.00  0.00    +0.000 A 
ATOM     11  C   UNL     1      47.859  10.870  12.151  0.00  0.00    +0.000 A 
ATOM     12  C   UNL     1      47.753   9.533  12.501  0.00  0.00    +0.000 A 
BRANCH  11  13
ATOM     13  O   UNL     1      49.070  11.472  12.302  0.00  0.00    +0.000 OA
ATOM     14  H   UNL     1      49.334  11.417  13.234  0.00  0.00    +0.000 HD
ENDBRANCH  11  13
ENDBRANCH   5   7
BRANCH   1  15
ATOM     15  C   UNL     1      43.966   4.677  11.794  0.00  0.00    +0.000 C 
ATOM     16  C   UNL     1      43.285   3.406  12.273  0.00  0.00    +0.000 C 
ATOM     17  C   UNL     1      42.704   4.709  12.670  0.00  0.00    +0.000 C 
BRANCH  15  18
ATOM     18  N   UNL     1      43.976   4.865  10.347  0.00  0.00    +0.000 N 
ATOM     19  H   UNL     1      43.135   5.228   9.907  0.00  0.00    +0.000 HD
BRANCH  18  23
ATOM     20  C   UNL     1      46.480   2.677   7.743  0.00  0.00    +0.000 A 
ATOM     21  C   UNL     1      45.662   1.981   8.622  0.00  0.00    +0.000 A 
ATOM     22  C   UNL     1      44.822   2.682   9.493  0.00  0.00    +0.000 A 
ATOM     23  C   UNL     1      44.759   4.088   9.468  0.00  0.00    +0.000 A 
ATOM     24  C   UNL     1      45.606   4.763   8.584  0.00  0.00    +0.000 A 
ATOM     25  C   UNL     1      46.465   4.076   7.729  0.00  0.00    +0.000 A 
BRANCH  20  27
ATOM     26  N   UNL     1      48.102   1.399   6.169  0.00  0.00    +0.000 NA
ATOM     27  C   UNL     1      47.371   1.972   6.877  0.00  0.00    +0.000 C 
ENDBRANCH  20  27
ENDBRANCH  18  23
ENDBRANCH  15  18
ENDBRANCH   1  15
TORSDOF 6
ENDMDL
MODEL 5
REMARK VINA RESULT:    -7.425      2.929      4.024
REMARK INTER + INTRA:         -10.486
REMARK INTER:                  -9.654
REMARK INTRA:                  -0.832
REMARK UNBOUND:                -0.674
REMARK  Name = 
REMARK  6 active torsions:
REMARK  status: ('A' for Active; 'I' for Inactive)
REMARK    1  A    between atoms: C_2  and  C_3
REMARK    2  A    between atoms: C_6  and  N_7
REMARK    3  A    between atoms: N_7  and  C_8
REMARK    4  A    between atoms: C_8  and  C_9
REMARK    5  A    between atoms: C_13  and  C_14
REMARK    6  A    between atoms: C_18  and  O_19
REMARK                            x       y       z     vdW  Elec       q    Type
REMARK                         _______ _______ _______ _____ _____    ______ ____
ROOT
ATOM      1  C   UNL     1      44.954   5.727  12.444  0.00  0.00    +0.000 A 
ATOM      2  C   UNL     1      45.232   4.742  13.410  0.00  0.00    +0.000 A 
ATOM      3  C   UNL     1      46.487   4.666  14.004  0.00  0.00    +0.000 A 
ATOM      4  C   UNL     1      47.458   5.607  13.673  0.00  0.00    +0.000 A 
ATOM      5  C   UNL     1      47.172   6.680  12.810  0.00  0.00    +0.000 A 
ATOM      6  C   UNL     1      45.889   6.750  12.258  0.00  0.00    +0.000 A 
ENDROOT
BRANCH   5   7
ATOM      7  C   UNL     1      48.215   7.620  12.374  0.00  0.00    +0.000 A 
ATOM      8  C   UNL     1      49.576   7.304  12.422  0.00  0.00    +0.000 A 
ATOM      9  N   UNL     1      50.582   8.152  12.094  0.00  0.00    +0.000 NA
ATOM     10  C   UNL     1      50.214   9.383  11.681  0.00  0.00    +0.000 A 
ATOM     11  C   UNL     1      48.898   9.801  11.592  0.00  0.00    +0.000 A 
ATOM     12  C   UNL     1      47.895   8.916  11.953  0.00  0.00    +0.000 A 
BRANCH  11  13
ATOM     13  O   UNL     1      48.529  11.045  11.181  0.00  0.00    +0.000 OA
ATOM     14  H   UNL     1      47.592  11.028  10.929  0.00  0.00    +0.000 HD
ENDBRANCH  11  13
ENDBRANCH   5   7
BRANCH   1  15
ATOM     15  C   UNL     1      43.836   5.524  11.433  0.00  0.00    +0.000 C 
ATOM     16  C   UNL     1      42.540   4.786  11.719  0.00  0.00    +0.000 C 
ATOM     17  C   UNL     1      42.579   6.249  11.938  0.00  0.00    +0.000 C 
BRANCH  15  18
ATOM     18  N   UNL     1      44.272   5.491  10.040  0.00  0.00    +0.000 N 
ATOM     19  H   UNL     1      43.817   6.119   9.383  0.00  0.00    +0.000 HD
BRANCH  18  23
ATOM     20  C   UNL     1      46.036   2.146   8.160  0.00  0.00    +0.000 A 
ATOM     21  C   UNL     1      45.165   1.932   9.220  0.00  0.00    +0.000 A 
ATOM     22  C   UNL     1      44.566   3.023   9.858  0.00  0.00    +0.000 A 
ATOM     23  C   UNL     1      44.798   4.340   9.418  0.00  0.00    +0.000 A 
ATOM     24  C   UNL     1      45.693   4.526   8.360  0.00  0.00    +0.000 A 
ATOM     25  C   UNL     1      46.315   3.448   7.733  0.00  0.00    +0.000 A 
BRANCH  20  27
ATOM     26  N   UNL     1      47.212   0.136   7.010  0.00  0.00    +0.000 NA
ATOM     27  C   UNL     1      46.685   1.041   7.527  0.00  0.00    +0.000 C 
ENDBRANCH  20  27
ENDBRANCH  18  23
ENDBRANCH  15  18
ENDBRANCH   1  15
TORSDOF 6
ENDMDL
MODEL 6
REMARK VINA RESULT:    -7.384      2.599      3.514
REMARK INTER + INTRA:         -10.432
REMARK INTER:                 -10.047
REMARK INTRA:                  -0.385
REMARK UNBOUND:                -0.674
REMARK  Name = 
REMARK  6 active torsions:
REMARK  status: ('A' for Active; 'I' for Inactive)
REMARK    1  A    between atoms: C_2  and  C_3
REMARK    2  A    between atoms: C_6  and  N_7
REMARK    3  A    between atoms: N_7  and  C_8
REMARK    4  A    between atoms: C_8  and  C_9
REMARK    5  A    between atoms: C_13  and  C_14
REMARK    6  A    between atoms: C_18  and  O_19
REMARK                            x       y       z     vdW  Elec       q    Type
REMARK                         _______ _______ _______ _____ _____    ______ ____
ROOT
ATOM      1  C   UNL     1      44.757   4.904  12.377  0.00  0.00    +0.000 A 
ATOM      2  C   UNL     1      45.132   3.651  12.901  0.00  0.00    +0.000 A 
ATOM      3  C   UNL     1      46.428   3.433  13.357  0.00  0.00    +0.000 A 
ATOM      4  C   UNL     1      47.345   4.480  13.340  0.00  0.00    +0.000 A 
ATOM      5  C   UNL     1      46.966   5.776  12.946  0.00  0.00    +0.000 A 
ATOM      6  C   UNL     1      45.646   5.973  12.528  0.00  0.00    +0.000 A 
ENDROOT
BRANCH   5   7
ATOM      7  C   UNL     1      47.947   6.865  12.827  0.00  0.00    +0.000 A 
ATOM      8  C   UNL     1      47.896   7.811  11.798  0.00  0.00    +0.000 A 
ATOM      9  N   UNL     1      48.808   8.795  11.603  0.00  0.00    +0.000 NA
ATOM     10  C   UNL     1      49.823   8.854  12.491  0.00  0.00    +0.000 A 
ATOM     11  C   UNL     1      49.969   7.973  13.548  0.00  0.00    +0.000 A 
ATOM     12  C   UNL     1      49.030   6.967  13.708  0.00  0.00    +0.000 A 
BRANCH  11  13
ATOM     13  O   UNL     1      50.996   8.031  14.438  0.00  0.00    +0.000 OA
ATOM     14  H   UNL     1      50.910   8.841  14.966  0.00  0.00    +0.000 HD
ENDBRANCH  11  13
ENDBRANCH   5   7
BRANCH   1  15
ATOM     15  C   UNL     1      43.578   5.021  11.424  0.00  0.00    +0.000 C 
ATOM     16  C   UNL     1      42.277   5.733  11.750  0.00  0.00    +0.000 C 
ATOM     17  C   UNL     1      43.357   6.506  11.097  0.00  0.00    +0.000 C 
BRANCH  15  18
ATOM     18  N   UNL     1      43.463   3.932  10.459  0.00  0.00    +0.000 N 
ATOM     19  H   UNL     1      42.831   3.167  10.677  0.00  0.00    +0.000 HD
BRANCH  18  23
ATOM     20  C   UNL     1      46.473   2.612   7.808  0.00  0.00    +0.000 A 
ATOM     21  C   UNL     1      46.232   3.975   7.916  0.00  0.00    +0.000 A 
ATOM     22  C   UNL     1      45.242   4.438   8.789  0.00  0.00    +0.000 A 
ATOM     23  C   UNL     1      44.508   3.547   9.594  0.00  0.00    +0.000 A 
ATOM     24  C   UNL     1      44.760   2.179   9.451  0.00  0.00    +0.000 A 
ATOM     25  C   UNL     1      45.727   1.704   8.567  0.00  0.00    +0.000 A 
BRANCH  20  27
ATOM     26  N   UNL     1      48.258   1.730   6.141  0.00  0.00    +0.000 NA
ATOM     27  C   UNL     1      47.454   2.125   6.889  0.00  0.00    +0.000 C 
ENDBRANCH  20  27
ENDBRANCH  18  23
ENDBRANCH  15  18
ENDBRANCH   1  15
TORSDOF 6
ENDMDL
MODEL 7
REMARK VINA RESULT:    -6.835      3.533      7.195
REMARK INTER + INTRA:          -9.707
REMARK INTER:                  -9.085
REMARK INTRA:                  -0.622
REMARK UNBOUND:                -0.674
REMARK  Name = 
REMARK  6 active torsions:
REMARK  status: ('A' for Active; 'I' for Inactive)
REMARK    1  A    between atoms: C_2  and  C_3
REMARK    2  A    between atoms: C_6  and  N_7
REMARK    3  A    between atoms: N_7  and  C_8
REMARK    4  A    between atoms: C_8  and  C_9
REMARK    5  A    between atoms: C_13  and  C_14
REMARK    6  A    between atoms: C_18  and  O_19
REMARK                            x       y       z     vdW  Elec       q    Type
REMARK                         _______ _______ _______ _____ _____    ______ ____
ROOT
ATOM      1  C   UNL     1      44.152   4.671  11.709  0.00  0.00    +0.000 A 
ATOM      2  C   UNL     1      43.397   3.628  12.278  0.00  0.00    +0.000 A 
ATOM      3  C   UNL     1      43.346   2.378  11.672  0.00  0.00    +0.000 A 
ATOM      4  C   UNL     1      44.091   2.146  10.518  0.00  0.00    +0.000 A 
ATOM      5  C   UNL     1      44.955   3.125   9.998  0.00  0.00    +0.000 A 
ATOM      6  C   UNL     1      45.013   4.360  10.652  0.00  0.00    +0.000 A 
ENDROOT
BRANCH   5   7
ATOM      7  C   UNL     1      45.669   2.930   8.727  0.00  0.00    +0.000 A 
ATOM      8  C   UNL     1      45.919   3.981   7.839  0.00  0.00    +0.000 A 
ATOM      9  N   UNL     1      46.513   3.849   6.628  0.00  0.00    +0.000 NA
ATOM     10  C   UNL     1      46.895   2.601   6.283  0.00  0.00    +0.000 A 
ATOM     11  C   UNL     1      46.701   1.490   7.085  0.00  0.00    +0.000 A 
ATOM     12  C   UNL     1      46.073   1.657   8.309  0.00  0.00    +0.000 A 
BRANCH  11  13
ATOM     13  O   UNL     1      47.081   0.233   6.733  0.00  0.00    +0.000 OA
ATOM     14  H   UNL     1      47.205  -0.295   7.537  0.00  0.00    +0.000 HD
ENDBRANCH  11  13
ENDBRANCH   5   7
BRANCH   1  15
ATOM     15  C   UNL     1      43.823   6.123  12.022  0.00  0.00    +0.000 C 
ATOM     16  C   UNL     1      43.216   7.101  11.031  0.00  0.00    +0.000 C 
ATOM     17  C   UNL     1      42.305   6.321  11.898  0.00  0.00    +0.000 C 
BRANCH  15  18
ATOM     18  N   UNL     1      44.658   6.728  13.055  0.00  0.00    +0.000 N 
ATOM     19  H   UNL     1      44.202   7.073  13.895  0.00  0.00    +0.000 HD
BRANCH  18  23
ATOM     20  C   UNL     1      48.349   8.550  12.109  0.00  0.00    +0.000 A 
ATOM     21  C   UNL     1      47.219   9.350  12.218  0.00  0.00    +0.000 A 
ATOM     22  C   UNL     1      45.986   8.772  12.533  0.00  0.00    +0.000 A 
ATOM     23  C   UNL     1      45.873   7.391  12.783  0.00  0.00    +0.000 A 
ATOM     24  C   UNL     1      47.023   6.607  12.648  0.00  0.00    +0.000 A 
ATOM     25  C   UNL     1      48.253   7.169  12.312  0.00  0.00    +0.000 A 
BRANCH  20  27
ATOM     26  N   UNL     1      50.634   9.593  11.450  0.00  0.00    +0.000 NA
ATOM     27  C   UNL     1      49.606   9.125  11.748  0.00  0.00    +0.000 C 
ENDBRANCH  20  27
ENDBRANCH  18  23
ENDBRANCH  15  18
ENDBRANCH   1  15
TORSDOF 6
ENDMDL
MODEL 8
REMARK VINA RESULT:    -6.815      3.140      4.182
REMARK INTER + INTRA:          -9.680
REMARK INTER:                  -8.973
REMARK INTRA:                  -0.707
REMARK UNBOUND:                -0.674
REMARK  Name = 
REMARK  6 active torsions:
REMARK  status: ('A' for Active; 'I' for Inactive)
REMARK    1  A    between atoms: C_2  and  C_3
REMARK    2  A    between atoms: C_6  and  N_7
REMARK    3  A    between atoms: N_7  and  C_8
REMARK    4  A    between atoms: C_8  and  C_9
REMARK    5  A    between atoms: C_13  and  C_14
REMARK    6  A    between atoms: C_18  and  O_19
REMARK                            x       y       z     vdW  Elec       q    Type
REMARK                         _______ _______ _______ _____ _____    ______ ____
ROOT
ATOM      1  C   UNL     1      45.834   6.464  12.016  0.00  0.00    +0.000 A 
ATOM      2  C   UNL     1      44.897   7.463  12.341  0.00  0.00    +0.000 A 
ATOM      3  C   UNL     1      45.310   8.764  12.605  0.00  0.00    +0.000 A 
ATOM      4  C   UNL     1      46.661   9.088  12.497  0.00  0.00    +0.000 A 
ATOM      5  C   UNL     1      47.604   8.146  12.049  0.00  0.00    +0.000 A 
ATOM      6  C   UNL     1      47.151   6.856  11.755  0.00  0.00    +0.000 A 
ENDROOT
BRANCH   5   7
ATOM      7  C   UNL     1      49.044   8.444  12.027  0.00  0.00    +0.000 A 
ATOM      8  C   UNL     1      49.573   9.620  12.569  0.00  0.00    +0.000 A 
ATOM      9  N   UNL     1      50.881   9.976  12.521  0.00  0.00    +0.000 NA
ATOM     10  C   UNL     1      51.715   9.107  11.911  0.00  0.00    +0.000 A 
ATOM     11  C   UNL     1      51.300   7.915  11.344  0.00  0.00    +0.000 A 
ATOM     12  C   UNL     1      49.953   7.590  11.395  0.00  0.00    +0.000 A 
BRANCH  11  13
ATOM     13  O   UNL     1      52.141   7.044  10.725  0.00  0.00    +0.000 OA
ATOM     14  H   UNL     1      51.871   6.950   9.798  0.00  0.00    +0.000 HD
ENDBRANCH  11  13
ENDBRANCH   5   7
BRANCH   1  15
ATOM     15  C   UNL     1      45.506   4.995  12.237  0.00  0.00    +0.000 C 
ATOM     16  C   UNL     1      46.407   4.012  12.965  0.00  0.00    +0.000 C 
ATOM     17  C   UNL     1      45.382   4.741  13.747  0.00  0.00    +0.000 C 
BRANCH  15  18
ATOM     18  N   UNL     1      44.639   4.404  11.221  0.00  0.00    +0.000 N 
ATOM     19  H   UNL     1      43.808   3.911  11.533  0.00  0.00    +0.000 HD
BRANCH  18  23
ATOM     20  C   UNL     1      46.200   3.184   7.492  0.00  0.00    +0.000 A 
ATOM     21  C   UNL     1      45.686   2.219   8.347  0.00  0.00    +0.000 A 
ATOM     22  C   UNL     1      45.161   2.597   9.587  0.00  0.00    +0.000 A 
ATOM     23  C   UNL     1      45.106   3.950   9.971  0.00  0.00    +0.000 A 
ATOM     24  C   UNL     1      45.648   4.899   9.098  0.00  0.00    +0.000 A 
ATOM     25  C   UNL     1      46.195   4.531   7.870  0.00  0.00    +0.000 A 
BRANCH  20  27
ATOM     26  N   UNL     1      47.250   2.495   5.219  0.00  0.00    +0.000 NA
ATOM     27  C   UNL     1      46.776   2.804   6.240  0.00  0.00    +0.000 C 
ENDBRANCH  20  27
ENDBRANCH  18  23
ENDBRANCH  15  18
ENDBRANCH   1  15
TORSDOF 6
ENDMDL
MODEL 9
REMARK VINA RESULT:    -6.666      3.074      4.684
REMARK INTER + INTRA:          -9.484
REMARK INTER:                  -8.817
REMARK INTRA:                  -0.667
REMARK UNBOUND:                -0.674
REMARK  Name = 
REMARK  6 active torsions:
REMARK  status: ('A' for Active; 'I' for Inactive)
REMARK    1  A    between atoms: C_2  and  C_3
REMARK    2  A    between atoms: C_6  and  N_7
REMARK    3  A    between atoms: N_7  and  C_8
REMARK    4  A    between atoms: C_8  and  C_9
REMARK    5  A    between atoms: C_13  and  C_14
REMARK    6  A    between atoms: C_18  and  O_19
REMARK                            x       y       z     vdW  Elec       q    Type
REMARK                         _______ _______ _______ _____ _____    ______ ____
ROOT
ATOM      1  C   UNL     1      48.378   8.197  14.389  0.00  0.00    +0.000 A 
ATOM      2  C   UNL     1      48.631   9.334  15.180  0.00  0.00    +0.000 A 
ATOM      3  C   UNL     1      48.914   9.206  16.535  0.00  0.00    +0.000 A 
ATOM      4  C   UNL     1      48.997   7.936  17.100  0.00  0.00    +0.000 A 
ATOM      5  C   UNL     1      48.879   6.777  16.311  0.00  0.00    +0.000 A 
ATOM      6  C   UNL     1      48.632   6.939  14.944  0.00  0.00    +0.000 A 
ENDROOT
BRANCH   5   7
ATOM      7  C   UNL     1      48.864   5.434  16.909  0.00  0.00    +0.000 A 
ATOM      8  C   UNL     1      50.032   4.782  17.316  0.00  0.00    +0.000 A 
ATOM      9  N   UNL     1      50.084   3.521  17.814  0.00  0.00    +0.000 NA
ATOM     10  C   UNL     1      48.905   2.874  17.926  0.00  0.00    +0.000 A 
ATOM     11  C   UNL     1      47.690   3.425  17.558  0.00  0.00    +0.000 A 
ATOM     12  C   UNL     1      47.674   4.708  17.036  0.00  0.00    +0.000 A 
BRANCH  11  13
ATOM     13  O   UNL     1      46.503   2.769  17.667  0.00  0.00    +0.000 OA
ATOM     14  H   UNL     1      46.491   2.033  17.034  0.00  0.00    +0.000 HD
ENDBRANCH  11  13
ENDBRANCH   5   7
BRANCH   1  15
ATOM     15  C   UNL     1      47.579   8.314  13.100  0.00  0.00    +0.000 C 
ATOM     16  C   UNL     1      47.960   9.204  11.930  0.00  0.00    +0.000 C 
ATOM     17  C   UNL     1      48.446   7.806  11.937  0.00  0.00    +0.000 C 
BRANCH  15  18
ATOM     18  N   UNL     1      46.149   8.058  13.243  0.00  0.00    +0.000 N 
ATOM     19  H   UNL     1      45.670   8.466  14.040  0.00  0.00    +0.000 HD
BRANCH  18  23
ATOM     20  C   UNL     1      44.235   4.499  12.017  0.00  0.00    +0.000 A 
ATOM     21  C   UNL     1      43.941   5.679  11.346  0.00  0.00    +0.000 A 
ATOM     22  C   UNL     1      44.563   6.871  11.731  0.00  0.00    +0.000 A 
ATOM     23  C   UNL     1      45.517   6.891  12.766  0.00  0.00    +0.000 A 
ATOM     24  C   UNL     1      45.781   5.692  13.435  0.00  0.00    +0.000 A 
ATOM     25  C   UNL     1      45.148   4.503  13.076  0.00  0.00    +0.000 A 
BRANCH  20  27
ATOM     26  N   UNL     1      43.031   2.292  11.365  0.00  0.00    +0.000 NA
ATOM     27  C   UNL     1      43.574   3.284  11.658  0.00  0.00    +0.000 C 
ENDBRANCH  20  27
ENDBRANCH  18  23
ENDBRANCH  15  18
ENDBRANCH   1  15
TORSDOF 6
ENDMDL
