MODEL 1
REMARK VINA RESULT:    -8.001      0.000      0.000
REMARK INTER + INTRA:         -10.666
REMARK INTER:                  -9.872
REMARK INTRA:                  -0.794
REMARK UNBOUND:                -0.794
REMARK  Name = 
REMARK  4 active torsions:
REMARK  status: ('A' for Active; 'I' for Inactive)
REMARK    1  A    between atoms: C_2  and  C_4
REMARK    2  A    between atoms: C_7  and  O_8
REMARK    3  A    between atoms: O_8  and  C_9
REMARK    4  A    between atoms: C_9  and  C_10
REMARK                            x       y       z     vdW  Elec       q    Type
REMARK                         _______ _______ _______ _____ _____    ______ ____
ROOT
ATOM      1  C   UNL     1      46.396   2.684   7.584  0.00  0.00    +0.000 A 
ATOM      2  C   UNL     1      45.817   1.744   8.433  0.00  0.00    +0.000 A 
ATOM      3  C   UNL     1      44.840   2.163   9.334  0.00  0.00    +0.000 A 
ATOM      4  C   UNL     1      44.465   3.498   9.345  0.00  0.00    +0.000 A 
ATOM      5  N   UNL     1      44.986   4.437   8.530  0.00  0.00    +0.000 NA
ATOM      6  C   UNL     1      45.954   4.004   7.668  0.00  0.00    +0.000 A 
ENDROOT
BRANCH   1   8
ATOM      7  N   UNL     1      47.551   3.033   5.467  0.00  0.00    +0.000 N 
ATOM      8  C   UNL     1      47.483   2.339   6.649  0.00  0.00    +0.000 C 
ATOM      9  O   UNL     1      48.303   1.472   6.912  0.00  0.00    +0.000 OA
ATOM     10  H   UNL     1      48.332   2.817   4.856  0.00  0.00    +0.000 HD
ATOM     11  H   UNL     1      47.035   3.885   5.284  0.00  0.00    +0.000 HD
ENDBRANCH   1   8
BRANCH   4  12
ATOM     12  O   UNL     1      43.550   3.812  10.334  0.00  0.00    +0.000 OA
BRANCH  12  13
ATOM     13  C   UNL     1      43.768   4.963  11.174  0.00  0.00    +0.000 C 
ATOM     14  C   UNL     1      42.453   5.321  11.863  0.00  0.00    +0.000 C 
ATOM     15  C   UNL     1      43.066   6.274  10.897  0.00  0.00    +0.000 C 
BRANCH  13  16
ATOM     16  C   UNL     1      45.052   4.963  11.989  0.00  0.00    +0.000 A 
ATOM     17  C   UNL     1      45.912   6.074  12.008  0.00  0.00    +0.000 A 
ATOM     18  C   UNL     1      47.117   6.056  12.720  0.00  0.00    +0.000 A 
ATOM     19  C   UNL     1      47.491   4.922  13.436  0.00  0.00    +0.000 A 
ATOM     20  C   UNL     1      46.655   3.810  13.442  0.00  0.00    +0.000 A 
ATOM     21  C   UNL     1      45.457   3.840  12.728  0.00  0.00    +0.000 A 
ATOM     22  F   UNL     1      44.681   2.745  12.754  0.00  0.00    +0.000 F 
ENDBRANCH  13  16
ENDBRANCH  12  13
ENDBRANCH   4  12
TORSDOF 4
ENDMDL
MODEL 2
REMARK VINA RESULT:    -7.890      1.080      1.516
REMARK INTER + INTRA:         -10.528
REMARK INTER:                  -9.994
REMARK INTRA:                  -0.535
REMARK UNBOUND:                -0.794
REMARK  Name = 
REMARK  4 active torsions:
REMARK  status: ('A' for Active; 'I' for Inactive)
REMARK    1  A    between atoms: C_2  and  C_4
REMARK    2  A    between atoms: C_7  and  O_8
REMARK    3  A    between atoms: O_8  and  C_9
REMARK    4  A    between atoms: C_9  and  C_10
REMARK                            x       y       z     vdW  Elec       q    Type
REMARK                         _______ _______ _______ _____ _____    ______ ____
ROOT
ATOM      1  C   UNL     1      46.383   2.684   7.586  0.00  0.00    +0.000 A 
ATOM      2  C   UNL     1      45.829   1.728   8.433  0.00  0.00    +0.000 A 
ATOM      3  C   UNL     1      44.858   2.125   9.352  0.00  0.00    +0.000 A 
ATOM      4  C   UNL     1      44.465   3.455   9.380  0.00  0.00    +0.000 A 
ATOM      5  N   UNL     1      44.962   4.409   8.568  0.00  0.00    +0.000 NA
ATOM      6  C   UNL     1      45.924   3.997   7.689  0.00  0.00    +0.000 A 
ENDROOT
BRANCH   1   8
ATOM      7  N   UNL     1      47.505   3.070   5.457  0.00  0.00    +0.000 N 
ATOM      8  C   UNL     1      47.462   2.364   6.633  0.00  0.00    +0.000 C 
ATOM      9  O   UNL     1      48.297   1.505   6.876  0.00  0.00    +0.000 OA
ATOM     10  H   UNL     1      48.281   2.871   4.834  0.00  0.00    +0.000 HD
ATOM     11  H   UNL     1      46.976   3.917   5.289  0.00  0.00    +0.000 HD
ENDBRANCH   1   8
BRANCH   4  12
ATOM     12  O   UNL     1      43.559   3.748  10.384  0.00  0.00    +0.000 OA
BRANCH  12  13
ATOM     13  C   UNL     1      43.756   4.910  11.212  0.00  0.00    +0.000 C 
ATOM     14  C   UNL     1      42.466   5.188  11.980  0.00  0.00    +0.000 C 
ATOM     15  C   UNL     1      42.959   6.175  10.981  0.00  0.00    +0.000 C 
BRANCH  13  16
ATOM     16  C   UNL     1      45.085   4.991  11.948  0.00  0.00    +0.000 A 
ATOM     17  C   UNL     1      45.477   4.007  12.871  0.00  0.00    +0.000 A 
ATOM     18  C   UNL     1      46.678   4.106  13.583  0.00  0.00    +0.000 A 
ATOM     19  C   UNL     1      47.522   5.195  13.385  0.00  0.00    +0.000 A 
ATOM     20  C   UNL     1      47.164   6.181  12.470  0.00  0.00    +0.000 A 
ATOM     21  C   UNL     1      45.964   6.071  11.768  0.00  0.00    +0.000 A 
ATOM     22  F   UNL     1      45.652   7.046  10.899  0.00  0.00    +0.000 F 
ENDBRANCH  13  16
ENDBRANCH  12  13
ENDBRANCH   4  12
TORSDOF 4
ENDMDL
MODEL 3
REMARK VINA RESULT:    -6.665      1.718      2.569
REMARK INTER + INTRA:          -9.018
REMARK INTER:                  -9.254
REMARK INTRA:                   0.236
REMARK UNBOUND:                -0.794
REMARK  Name = 
REMARK  4 active torsions:
REMARK  status: ('A' for Active; 'I' for Inactive)
REMARK    1  A    between atoms: C_2  and  C_4
REMARK    2  A    between atoms: C_7  and  O_8
REMARK    3  A    between atoms: O_8  and  C_9
REMARK    4  A    between atoms: C_9  and  C_10
REMARK                            x       y       z     vdW  Elec       q    Type
REMARK                         _______ _______ _______ _____ _____    ______ ____
ROOT
ATOM      1  C   UNL     1      46.510   2.919   7.370  0.00  0.00    +0.000 A 
ATOM      2  C   UNL     1      46.098   4.221   7.640  0.00  0.00    +0.000 A 
ATOM      3  C   UNL     1      45.186   4.437   8.673  0.00  0.00    +0.000 A 
ATOM      4  C   UNL     1      44.733   3.350   9.406  0.00  0.00    +0.000 A 
ATOM      5  N   UNL     1      45.119   2.077   9.189  0.00  0.00    +0.000 NA
ATOM      6  C   UNL     1      45.999   1.891   8.161  0.00  0.00    +0.000 A 
ENDROOT
BRANCH   1   8
ATOM      7  N   UNL     1      48.629   2.027   6.561  0.00  0.00    +0.000 N 
ATOM      8  C   UNL     1      47.418   2.595   6.254  0.00  0.00    +0.000 C 
ATOM      9  O   UNL     1      47.109   2.815   5.092  0.00  0.00    +0.000 OA
ATOM     10  H   UNL     1      49.222   1.766   5.779  0.00  0.00    +0.000 HD
ATOM     11  H   UNL     1      48.855   1.639   7.469  0.00  0.00    +0.000 HD
ENDBRANCH   1   8
BRANCH   4  12
ATOM     12  O   UNL     1      43.772   3.674  10.347  0.00  0.00    +0.000 OA
BRANCH  12  13
ATOM     13  C   UNL     1      44.172   4.162  11.643  0.00  0.00    +0.000 C 
ATOM     14  C   UNL     1      44.811   3.014  12.421  0.00  0.00    +0.000 C 
ATOM     15  C   UNL     1      43.541   3.621  12.907  0.00  0.00    +0.000 C 
BRANCH  13  16
ATOM     16  C   UNL     1      44.835   5.530  11.668  0.00  0.00    +0.000 A 
ATOM     17  C   UNL     1      46.201   5.681  11.956  0.00  0.00    +0.000 A 
ATOM     18  C   UNL     1      46.801   6.944  12.025  0.00  0.00    +0.000 A 
ATOM     19  C   UNL     1      46.045   8.092  11.804  0.00  0.00    +0.000 A 
ATOM     20  C   UNL     1      44.691   7.972  11.507  0.00  0.00    +0.000 A 
ATOM     21  C   UNL     1      44.105   6.708  11.442  0.00  0.00    +0.000 A 
ATOM     22  F   UNL     1      42.794   6.636  11.160  0.00  0.00    +0.000 F 
ENDBRANCH  13  16
ENDBRANCH  12  13
ENDBRANCH   4  12
TORSDOF 4
ENDMDL
MODEL 4
REMARK VINA RESULT:    -5.986      3.787      6.537
REMARK INTER + INTRA:          -8.179
REMARK INTER:                  -7.803
REMARK INTRA:                  -0.376
REMARK UNBOUND:                -0.794
REMARK  Name = 
REMARK  4 active torsions:
REMARK  status: ('A' for Active; 'I' for Inactive)
REMARK    1  A    between atoms: C_2  and  C_4
REMARK    2  A    between atoms: C_7  and  O_8
REMARK    3  A    between atoms: O_8  and  C_9
REMARK    4  A    between atoms: C_9  and  C_10
REMARK                            x       y       z     vdW  Elec       q    Type
REMARK                         _______ _______ _______ _____ _____    ______ ____
ROOT
ATOM      1  C   UNL     1      47.908   4.815  15.936  0.00  0.00    +0.000 A 
ATOM      2  C   UNL     1      48.259   6.040  15.378  0.00  0.00    +0.000 A 
ATOM      3  C   UNL     1      47.827   6.340  14.086  0.00  0.00    +0.000 A 
ATOM      4  C   UNL     1      47.049   5.414  13.408  0.00  0.00    +0.000 A 
ATOM      5  N   UNL     1      46.671   4.225  13.917  0.00  0.00    +0.000 NA
ATOM      6  C   UNL     1      47.122   3.949  15.177  0.00  0.00    +0.000 A 
ENDROOT
BRANCH   1   8
ATOM      7  N   UNL     1      47.443   3.915  18.153  0.00  0.00    +0.000 N 
ATOM      8  C   UNL     1      48.378   4.391  17.268  0.00  0.00    +0.000 C 
ATOM      9  O   UNL     1      49.558   4.451  17.579  0.00  0.00    +0.000 OA
ATOM     10  H   UNL     1      47.790   3.583  19.047  0.00  0.00    +0.000 HD
ATOM     11  H   UNL     1      46.501   3.654  17.890  0.00  0.00    +0.000 HD
ENDBRANCH   1   8
BRANCH   4  12
ATOM     12  O   UNL     1      46.749   5.783  12.108  0.00  0.00    +0.000 OA
BRANCH  12  13
ATOM     13  C   UNL     1      45.400   5.654  11.618  0.00  0.00    +0.000 C 
ATOM     14  C   UNL     1      44.816   7.051  11.421  0.00  0.00    +0.000 C 
ATOM     15  C   UNL     1      44.225   6.139  12.438  0.00  0.00    +0.000 C 
BRANCH  13  16
ATOM     16  C   UNL     1      45.176   4.602  10.543  0.00  0.00    +0.000 A 
ATOM     17  C   UNL     1      45.507   4.839   9.199  0.00  0.00    +0.000 A 
ATOM     18  C   UNL     1      45.257   3.888   8.203  0.00  0.00    +0.000 A 
ATOM     19  C   UNL     1      44.669   2.670   8.529  0.00  0.00    +0.000 A 
ATOM     20  C   UNL     1      44.337   2.403   9.855  0.00  0.00    +0.000 A 
ATOM     21  C   UNL     1      44.591   3.360  10.838  0.00  0.00    +0.000 A 
ATOM     22  F   UNL     1      44.251   3.067  12.103  0.00  0.00    +0.000 F 
ENDBRANCH  13  16
ENDBRANCH  12  13
ENDBRANCH   4  12
TORSDOF 4
ENDMDL
MODEL 5
REMARK VINA RESULT:    -5.868      3.316      5.966
REMARK INTER + INTRA:          -8.034
REMARK INTER:                  -8.129
REMARK INTRA:                   0.095
REMARK UNBOUND:                -0.794
REMARK  Name = 
REMARK  4 active torsions:
REMARK  status: ('A' for Active; 'I' for Inactive)
REMARK    1  A    between atoms: C_2  and  C_4
REMARK    2  A    between atoms: C_7  and  O_8
REMARK    3  A    between atoms: O_8  and  C_9
REMARK    4  A    between atoms: C_9  and  C_10
REMARK                            x       y       z     vdW  Elec       q    Type
REMARK                         _______ _______ _______ _____ _____    ______ ____
ROOT
ATOM      1  C   UNL     1      48.032   7.410  13.848  0.00  0.00    +0.000 A 
ATOM      2  C   UNL     1      47.091   8.410  13.617  0.00  0.00    +0.000 A 
ATOM      3  C   UNL     1      45.983   8.120  12.821  0.00  0.00    +0.000 A 
ATOM      4  C   UNL     1      45.848   6.843  12.299  0.00  0.00    +0.000 A 
ATOM      5  N   UNL     1      46.725   5.842  12.511  0.00  0.00    +0.000 NA
ATOM      6  C   UNL     1      47.810   6.156  13.280  0.00  0.00    +0.000 A 
ENDROOT
BRANCH   1   8
ATOM      7  N   UNL     1      50.456   7.643  13.939  0.00  0.00    +0.000 N 
ATOM      8  C   UNL     1      49.264   7.651  14.620  0.00  0.00    +0.000 C 
ATOM      9  O   UNL     1      49.236   7.855  15.825  0.00  0.00    +0.000 OA
ATOM     10  H   UNL     1      51.289   7.858  14.477  0.00  0.00    +0.000 HD
ATOM     11  H   UNL     1      50.528   7.682  12.930  0.00  0.00    +0.000 HD
ENDBRANCH   1   8
BRANCH   4  12
ATOM     12  O   UNL     1      44.757   6.696  11.460  0.00  0.00    +0.000 OA
BRANCH  12  13
ATOM     13  C   UNL     1      44.052   5.439  11.413  0.00  0.00    +0.000 C 
ATOM     14  C   UNL     1      42.558   5.712  11.570  0.00  0.00    +0.000 C 
ATOM     15  C   UNL     1      43.282   4.933  12.612  0.00  0.00    +0.000 C 
BRANCH  13  16
ATOM     16  C   UNL     1      44.515   4.451  10.353  0.00  0.00    +0.000 A 
ATOM     17  C   UNL     1      45.293   4.858   9.257  0.00  0.00    +0.000 A 
ATOM     18  C   UNL     1      45.679   3.957   8.257  0.00  0.00    +0.000 A 
ATOM     19  C   UNL     1      45.296   2.621   8.332  0.00  0.00    +0.000 A 
ATOM     20  C   UNL     1      44.533   2.187   9.412  0.00  0.00    +0.000 A 
ATOM     21  C   UNL     1      44.154   3.096  10.401  0.00  0.00    +0.000 A 
ATOM     22  F   UNL     1      43.412   2.639  11.423  0.00  0.00    +0.000 F 
ENDBRANCH  13  16
ENDBRANCH  12  13
ENDBRANCH   4  12
TORSDOF 4
ENDMDL
MODEL 6
REMARK VINA RESULT:    -5.813      3.259      5.970
REMARK INTER + INTRA:          -7.967
REMARK INTER:                  -8.106
REMARK INTRA:                   0.139
REMARK UNBOUND:                -0.794
REMARK  Name = 
REMARK  4 active torsions:
REMARK  status: ('A' for Active; 'I' for Inactive)
REMARK    1  A    between atoms: C_2  and  C_4
REMARK    2  A    between atoms: C_7  and  O_8
REMARK    3  A    between atoms: O_8  and  C_9
REMARK    4  A    between atoms: C_9  and  C_10
REMARK                            x       y       z     vdW  Elec       q    Type
REMARK                         _______ _______ _______ _____ _____    ______ ____
ROOT
ATOM      1  C   UNL     1      48.040   6.606  13.544  0.00  0.00    +0.000 A 
ATOM      2  C   UNL     1      47.960   7.082  12.238  0.00  0.00    +0.000 A 
ATOM      3  C   UNL     1      46.859   6.727  11.459  0.00  0.00    +0.000 A 
ATOM      4  C   UNL     1      45.874   5.925  12.015  0.00  0.00    +0.000 A 
ATOM      5  N   UNL     1      45.904   5.457  13.279  0.00  0.00    +0.000 NA
ATOM      6  C   UNL     1      47.001   5.805  14.015  0.00  0.00    +0.000 A 
ENDROOT
BRANCH   1   8
ATOM      7  N   UNL     1      50.038   7.905  14.057  0.00  0.00    +0.000 N 
ATOM      8  C   UNL     1      49.200   6.877  14.412  0.00  0.00    +0.000 C 
ATOM      9  O   UNL     1      49.414   6.219  15.419  0.00  0.00    +0.000 OA
ATOM     10  H   UNL     1      50.803   8.109  14.691  0.00  0.00    +0.000 HD
ATOM     11  H   UNL     1      49.806   8.605  13.362  0.00  0.00    +0.000 HD
ENDBRANCH   1   8
BRANCH   4  12
ATOM     12  O   UNL     1      44.876   5.571  11.126  0.00  0.00    +0.000 OA
BRANCH  12  13
ATOM     13  C   UNL     1      44.596   4.179  10.877  0.00  0.00    +0.000 C 
ATOM     14  C   UNL     1      43.120   3.918  11.166  0.00  0.00    +0.000 C 
ATOM     15  C   UNL     1      44.164   3.259  11.998  0.00  0.00    +0.000 C 
BRANCH  13  16
ATOM     16  C   UNL     1      45.220   3.584   9.624  0.00  0.00    +0.000 A 
ATOM     17  C   UNL     1      45.282   2.196   9.420  0.00  0.00    +0.000 A 
ATOM     18  C   UNL     1      45.898   1.647   8.289  0.00  0.00    +0.000 A 
ATOM     19  C   UNL     1      46.468   2.479   7.329  0.00  0.00    +0.000 A 
ATOM     20  C   UNL     1      46.414   3.859   7.501  0.00  0.00    +0.000 A 
ATOM     21  C   UNL     1      45.798   4.393   8.633  0.00  0.00    +0.000 A 
ATOM     22  F   UNL     1      45.772   5.729   8.765  0.00  0.00    +0.000 F 
ENDBRANCH  13  16
ENDBRANCH  12  13
ENDBRANCH   4  12
TORSDOF 4
ENDMDL
MODEL 7
REMARK VINA RESULT:    -5.738      4.509      7.303
REMARK INTER + INTRA:          -7.874
REMARK INTER:                  -7.352
REMARK INTRA:                  -0.522
REMARK UNBOUND:                -0.794
REMARK  Name = 
REMARK  4 active torsions:
REMARK  status: ('A' for Active; 'I' for Inactive)
REMARK    1  A    between atoms: C_2  and  C_4
REMARK    2  A    between atoms: C_7  and  O_8
REMARK    3  A    between atoms: O_8  and  C_9
REMARK    4  A    between atoms: C_9  and  C_10
REMARK                            x       y       z     vdW  Elec       q    Type
REMARK                         _______ _______ _______ _____ _____    ______ ____
ROOT
ATOM      1  C   UNL     1      47.968   4.823  17.038  0.00  0.00    +0.000 A 
ATOM      2  C   UNL     1      47.124   4.092  16.207  0.00  0.00    +0.000 A 
ATOM      3  C   UNL     1      47.032   4.446  14.862  0.00  0.00    +0.000 A 
ATOM      4  C   UNL     1      47.796   5.503  14.392  0.00  0.00    +0.000 A 
ATOM      5  N   UNL     1      48.638   6.226  15.157  0.00  0.00    +0.000 NA
ATOM      6  C   UNL     1      48.697   5.870  16.475  0.00  0.00    +0.000 A 
ENDROOT
BRANCH   1   8
ATOM      7  N   UNL     1      48.378   3.281  18.880  0.00  0.00    +0.000 N 
ATOM      8  C   UNL     1      48.074   4.560  18.485  0.00  0.00    +0.000 C 
ATOM      9  O   UNL     1      47.903   5.444  19.311  0.00  0.00    +0.000 OA
ATOM     10  H   UNL     1      48.494   3.128  19.877  0.00  0.00    +0.000 HD
ATOM     11  H   UNL     1      48.726   2.565  18.253  0.00  0.00    +0.000 HD
ENDBRANCH   1   8
BRANCH   4  12
ATOM     12  O   UNL     1      47.561   5.815  13.065  0.00  0.00    +0.000 OA
BRANCH  12  13
ATOM     13  C   UNL     1      46.456   6.671  12.713  0.00  0.00    +0.000 C 
ATOM     14  C   UNL     1      46.995   7.872  11.939  0.00  0.00    +0.000 C 
ATOM     15  C   UNL     1      46.352   8.075  13.266  0.00  0.00    +0.000 C 
BRANCH  13  16
ATOM     16  C   UNL     1      45.201   5.973  12.213  0.00  0.00    +0.000 A 
ATOM     17  C   UNL     1      44.075   5.802  13.035  0.00  0.00    +0.000 A 
ATOM     18  C   UNL     1      42.938   5.118  12.589  0.00  0.00    +0.000 A 
ATOM     19  C   UNL     1      42.899   4.587  11.303  0.00  0.00    +0.000 A 
ATOM     20  C   UNL     1      43.997   4.748  10.462  0.00  0.00    +0.000 A 
ATOM     21  C   UNL     1      45.124   5.432  10.920  0.00  0.00    +0.000 A 
ATOM     22  F   UNL     1      46.165   5.560  10.081  0.00  0.00    +0.000 F 
ENDBRANCH  13  16
ENDBRANCH  12  13
ENDBRANCH   4  12
TORSDOF 4
ENDMDL
MODEL 8
REMARK VINA RESULT:    -5.348      4.255      6.385
REMARK INTER + INTRA:          -7.393
REMARK INTER:                  -6.693
REMARK INTRA:                  -0.700
REMARK UNBOUND:                -0.794
REMARK  Name = 
REMARK  4 active torsions:
REMARK  status: ('A' for Active; 'I' for Inactive)
REMARK    1  A    between atoms: C_2  and  C_4
REMARK    2  A    between atoms: C_7  and  O_8
REMARK    3  A    between atoms: O_8  and  C_9
REMARK    4  A    between atoms: C_9  and  C_10
REMARK                            x       y       z     vdW  Elec       q    Type
REMARK                         _______ _______ _______ _____ _____    ______ ____
ROOT
ATOM      1  C   UNL     1      44.564   5.399  11.990  0.00  0.00    +0.000 A 
ATOM      2  C   UNL     1      45.409   6.138  11.167  0.00  0.00    +0.000 A 
ATOM      3  C   UNL     1      46.727   6.349  11.572  0.00  0.00    +0.000 A 
ATOM      4  C   UNL     1      47.156   5.803  12.772  0.00  0.00    +0.000 A 
ATOM      5  N   UNL     1      46.378   5.067  13.590  0.00  0.00    +0.000 NA
ATOM      6  C   UNL     1      45.087   4.889  13.179  0.00  0.00    +0.000 A 
ENDROOT
BRANCH   1   8
ATOM      7  N   UNL     1      42.299   6.267  11.756  0.00  0.00    +0.000 N 
ATOM      8  C   UNL     1      43.141   5.186  11.672  0.00  0.00    +0.000 C 
ATOM      9  O   UNL     1      42.716   4.089  11.338  0.00  0.00    +0.000 OA
ATOM     10  H   UNL     1      41.332   6.114  11.488  0.00  0.00    +0.000 HD
ATOM     11  H   UNL     1      42.619   7.225  11.827  0.00  0.00    +0.000 HD
ENDBRANCH   1   8
BRANCH   4  12
ATOM     12  O   UNL     1      48.453   6.146  13.109  0.00  0.00    +0.000 OA
BRANCH  12  13
ATOM     13  C   UNL     1      48.715   7.400  13.771  0.00  0.00    +0.000 C 
ATOM     14  C   UNL     1      49.801   7.179  14.822  0.00  0.00    +0.000 C 
ATOM     15  C   UNL     1      48.430   7.575  15.246  0.00  0.00    +0.000 C 
BRANCH  13  16
ATOM     16  C   UNL     1      48.793   8.626  12.875  0.00  0.00    +0.000 A 
ATOM     17  C   UNL     1      47.855   9.668  12.970  0.00  0.00    +0.000 A 
ATOM     18  C   UNL     1      47.899  10.774  12.114  0.00  0.00    +0.000 A 
ATOM     19  C   UNL     1      48.889  10.868  11.140  0.00  0.00    +0.000 A 
ATOM     20  C   UNL     1      49.837   9.855  11.028  0.00  0.00    +0.000 A 
ATOM     21  C   UNL     1      49.781   8.757  11.887  0.00  0.00    +0.000 A 
ATOM     22  F   UNL     1      50.711   7.799  11.744  0.00  0.00    +0.000 F 
ENDBRANCH  13  16
ENDBRANCH  12  13
ENDBRANCH   4  12
TORSDOF 4
ENDMDL
MODEL 9
REMARK VINA RESULT:    -5.348      3.285      5.085
REMARK INTER + INTRA:          -7.392
REMARK INTER:                  -6.975
REMARK INTRA:                  -0.418
REMARK UNBOUND:                -0.794
REMARK  Name = 
REMARK  4 active torsions:
REMARK  status: ('A' for Active; 'I' for Inactive)
REMARK    1  A    between atoms: C_2  and  C_4
REMARK    2  A    between atoms: C_7  and  O_8
REMARK    3  A    between atoms: O_8  and  C_9
REMARK    4  A    between atoms: C_9  and  C_10
REMARK                            x       y       z     vdW  Elec       q    Type
REMARK                         _______ _______ _______ _____ _____    ______ ____
ROOT
ATOM      1  C   UNL     1      44.550   4.155  11.421  0.00  0.00    +0.000 A 
ATOM      2  C   UNL     1      45.170   4.988  10.493  0.00  0.00    +0.000 A 
ATOM      3  C   UNL     1      45.686   6.209  10.925  0.00  0.00    +0.000 A 
ATOM      4  C   UNL     1      45.580   6.546  12.267  0.00  0.00    +0.000 A 
ATOM      5  N   UNL     1      45.004   5.763  13.200  0.00  0.00    +0.000 NA
ATOM      6  C   UNL     1      44.491   4.580  12.748  0.00  0.00    +0.000 A 
ENDROOT
BRANCH   1   8
ATOM      7  N   UNL     1      44.436   2.211   9.956  0.00  0.00    +0.000 N 
ATOM      8  C   UNL     1      43.918   2.880  11.037  0.00  0.00    +0.000 C 
ATOM      9  O   UNL     1      42.969   2.423  11.657  0.00  0.00    +0.000 OA
ATOM     10  H   UNL     1      44.020   1.312   9.735  0.00  0.00    +0.000 HD
ATOM     11  H   UNL     1      45.331   2.429   9.534  0.00  0.00    +0.000 HD
ENDBRANCH   1   8
BRANCH   4  12
ATOM     12  O   UNL     1      46.052   7.812  12.563  0.00  0.00    +0.000 OA
BRANCH  12  13
ATOM     13  C   UNL     1      47.461   8.018  12.789  0.00  0.00    +0.000 C 
ATOM     14  C   UNL     1      47.906   9.251  12.005  0.00  0.00    +0.000 C 
ATOM     15  C   UNL     1      48.455   7.912  11.654  0.00  0.00    +0.000 C 
BRANCH  13  16
ATOM     16  C   UNL     1      47.942   7.840  14.221  0.00  0.00    +0.000 A 
ATOM     17  C   UNL     1      48.098   8.935  15.087  0.00  0.00    +0.000 A 
ATOM     18  C   UNL     1      48.585   8.776  16.389  0.00  0.00    +0.000 A 
ATOM     19  C   UNL     1      48.929   7.512  16.860  0.00  0.00    +0.000 A 
ATOM     20  C   UNL     1      48.777   6.407  16.026  0.00  0.00    +0.000 A 
ATOM     21  C   UNL     1      48.291   6.580  14.730  0.00  0.00    +0.000 A 
ATOM     22  F   UNL     1      48.165   5.490  13.956  0.00  0.00    +0.000 F 
ENDBRANCH  13  16
ENDBRANCH  12  13
ENDBRANCH   4  12
TORSDOF 4
ENDMDL
