MODEL 1
REMARK VINA RESULT:    -8.355      0.000      0.000
REMARK INTER + INTRA:         -12.990
REMARK INTER:                 -11.773
REMARK INTRA:                  -1.216
REMARK UNBOUND:                -1.216
REMARK  Name = 
REMARK  7 active torsions:
REMARK  status: ('A' for Active; 'I' for Inactive)
REMARK    1  A    between atoms: C_2  and  O_3
REMARK    2  A    between atoms: C_2  and  C_25
REMARK    3  A    between atoms: O_3  and  C_4
REMARK    4  A    between atoms: C_4  and  C_5
REMARK    5  A    between atoms: C_8  and  C_9
REMARK    6  A    between atoms: C_9  and  N_10
REMARK    7  A    between atoms: C_11  and  C_13
REMARK                            x       y       z     vdW  Elec       q    Type
REMARK                         _______ _______ _______ _____ _____    ______ ____
ROOT
ATOM      1  C   UNL     1      44.717   5.026  10.890  0.00  0.00    +0.000 A 
ATOM      2  C   UNL     1      45.805   5.660  10.295  0.00  0.00    +0.000 A 
ATOM      3  C   UNL     1      46.530   6.598  11.031  0.00  0.00    +0.000 A 
ATOM      4  C   UNL     1      46.141   6.912  12.335  0.00  0.00    +0.000 A 
ATOM      5  C   UNL     1      45.041   6.233  12.844  0.00  0.00    +0.000 A 
ATOM      6  N   UNL     1      44.324   5.310  12.157  0.00  0.00    +0.000 NA
ENDROOT
BRANCH   1   7
ATOM      7  C   UNL     1      43.928   3.985  10.126  0.00  0.00    +0.000 C 
BRANCH   7   8
ATOM      8  O   UNL     1      44.542   3.663   8.869  0.00  0.00    +0.000 OA
BRANCH   8  10
ATOM      9  O   UNL     1      44.355   1.397   9.200  0.00  0.00    +0.000 OA
ATOM     10  C   UNL     1      44.920   2.371   8.716  0.00  0.00    +0.000 C 
BRANCH  10  11
ATOM     11  C   UNL     1      46.110   2.301   7.913  0.00  0.00    +0.000 A 
ATOM     12  C   UNL     1      46.793   3.260   7.187  0.00  0.00    +0.000 A 
ATOM     13  C   UNL     1      47.898   2.586   6.636  0.00  0.00    +0.000 A 
ATOM     14  N   UNL     1      47.918   1.294   6.967  0.00  0.00    +0.000 NA
ATOM     15  N   UNL     1      46.820   1.145   7.730  0.00  0.00    +0.000 N 
ATOM     16  H   UNL     1      46.604   0.225   8.098  0.00  0.00    +0.000 HD
ENDBRANCH  10  11
ENDBRANCH   8  10
ENDBRANCH   7   8
ENDBRANCH   1   7
BRANCH   4  17
ATOM     17  C   UNL     1      46.887   7.919  13.160  0.00  0.00    +0.000 C 
BRANCH  17  18
ATOM     18  N   UNL     1      47.329   7.364  14.416  0.00  0.00    +0.000 N 
ATOM     19  C   UNL     1      48.571   6.789  14.542  0.00  0.00    +0.000 C 
ATOM     20  O   UNL     1      49.374   6.763  13.614  0.00  0.00    +0.000 OA
ATOM     21  H   UNL     1      46.612   7.137  15.097  0.00  0.00    +0.000 HD
BRANCH  19  22
ATOM     22  C   UNL     1      48.913   6.261  15.870  0.00  0.00    +0.000 A 
ATOM     23  C   UNL     1      49.916   6.863  16.617  0.00  0.00    +0.000 A 
ATOM     24  S   UNL     1      50.165   6.133  18.141  0.00  0.00    +0.000 S 
ATOM     25  C   UNL     1      48.975   4.957  17.831  0.00  0.00    +0.000 A 
ATOM     26  N   UNL     1      48.708   3.975  18.735  0.00  0.00    +0.000 NA
ATOM     27  C   UNL     1      47.803   3.139  18.360  0.00  0.00    +0.000 A 
ATOM     28  N   UNL     1      47.130   3.194  17.166  0.00  0.00    +0.000 N 
ATOM     29  C   UNL     1      47.343   4.186  16.238  0.00  0.00    +0.000 A 
ATOM     30  O   UNL     1      46.687   4.240  15.202  0.00  0.00    +0.000 OA
ATOM     31  C   UNL     1      48.374   5.138  16.600  0.00  0.00    +0.000 A 
ATOM     32  H   UNL     1      46.416   2.519  16.941  0.00  0.00    +0.000 HD
ENDBRANCH  19  22
ENDBRANCH  17  18
ENDBRANCH   4  17
TORSDOF 7
ENDMDL
MODEL 2
REMARK VINA RESULT:    -7.489      1.746      2.224
REMARK INTER + INTRA:         -11.769
REMARK INTER:                 -10.963
REMARK INTRA:                  -0.807
REMARK UNBOUND:                -1.216
REMARK  Name = 
REMARK  7 active torsions:
REMARK  status: ('A' for Active; 'I' for Inactive)
REMARK    1  A    between atoms: C_2  and  O_3
REMARK    2  A    between atoms: C_2  and  C_25
REMARK    3  A    between atoms: O_3  and  C_4
REMARK    4  A    between atoms: C_4  and  C_5
REMARK    5  A    between atoms: C_8  and  C_9
REMARK    6  A    between atoms: C_9  and  N_10
REMARK    7  A    between atoms: C_11  and  C_13
REMARK                            x       y       z     vdW  Elec       q    Type
REMARK                         _______ _______ _______ _____ _____    ______ ____
ROOT
ATOM      1  C   UNL     1      45.060   4.961  10.974  0.00  0.00    +0.000 A 
ATOM      2  C   UNL     1      45.816   6.049  10.542  0.00  0.00    +0.000 A 
ATOM      3  C   UNL     1      46.692   6.664  11.437  0.00  0.00    +0.000 A 
ATOM      4  C   UNL     1      46.778   6.209  12.754  0.00  0.00    +0.000 A 
ATOM      5  C   UNL     1      45.983   5.121  13.096  0.00  0.00    +0.000 A 
ATOM      6  N   UNL     1      45.131   4.497  12.247  0.00  0.00    +0.000 NA
ENDROOT
BRANCH   1   7
ATOM      7  C   UNL     1      44.120   4.257  10.020  0.00  0.00    +0.000 C 
BRANCH   7   8
ATOM      8  O   UNL     1      44.781   3.873   8.804  0.00  0.00    +0.000 OA
BRANCH   8  10
ATOM      9  O   UNL     1      44.480   1.638   9.241  0.00  0.00    +0.000 OA
ATOM     10  C   UNL     1      45.075   2.556   8.688  0.00  0.00    +0.000 C 
BRANCH  10  11
ATOM     11  C   UNL     1      46.216   2.383   7.831  0.00  0.00    +0.000 A 
ATOM     12  C   UNL     1      46.880   3.255   6.989  0.00  0.00    +0.000 A 
ATOM     13  C   UNL     1      47.935   2.504   6.440  0.00  0.00    +0.000 A 
ATOM     14  N   UNL     1      47.942   1.245   6.880  0.00  0.00    +0.000 NA
ATOM     15  N   UNL     1      46.885   1.194   7.711  0.00  0.00    +0.000 N 
ATOM     16  H   UNL     1      46.668   0.316   8.170  0.00  0.00    +0.000 HD
ENDBRANCH  10  11
ENDBRANCH   8  10
ENDBRANCH   7   8
ENDBRANCH   1   7
BRANCH   4  17
ATOM     17  C   UNL     1      47.701   6.844  13.751  0.00  0.00    +0.000 C 
BRANCH  17  18
ATOM     18  N   UNL     1      47.707   6.135  15.008  0.00  0.00    +0.000 N 
ATOM     19  C   UNL     1      48.849   6.045  15.768  0.00  0.00    +0.000 C 
ATOM     20  O   UNL     1      49.895   6.598  15.440  0.00  0.00    +0.000 OA
ATOM     21  H   UNL     1      46.960   5.467  15.162  0.00  0.00    +0.000 HD
BRANCH  19  22
ATOM     22  C   UNL     1      48.734   5.301  17.030  0.00  0.00    +0.000 A 
ATOM     23  C   UNL     1      48.585   3.922  17.010  0.00  0.00    +0.000 A 
ATOM     24  S   UNL     1      48.487   3.223  18.566  0.00  0.00    +0.000 S 
ATOM     25  C   UNL     1      48.591   4.747  19.315  0.00  0.00    +0.000 A 
ATOM     26  N   UNL     1      48.526   4.867  20.670  0.00  0.00    +0.000 NA
ATOM     27  C   UNL     1      48.593   6.080  21.099  0.00  0.00    +0.000 A 
ATOM     28  N   UNL     1      48.726   7.189  20.302  0.00  0.00    +0.000 N 
ATOM     29  C   UNL     1      48.830   7.112  18.933  0.00  0.00    +0.000 A 
ATOM     30  O   UNL     1      49.003   8.117  18.251  0.00  0.00    +0.000 OA
ATOM     31  C   UNL     1      48.732   5.769  18.396  0.00  0.00    +0.000 A 
ATOM     32  H   UNL     1      48.794   8.111  20.703  0.00  0.00    +0.000 HD
ENDBRANCH  19  22
ENDBRANCH  17  18
ENDBRANCH   4  17
TORSDOF 7
ENDMDL
MODEL 3
REMARK VINA RESULT:    -7.454      3.696      7.995
REMARK INTER + INTRA:         -11.721
REMARK INTER:                 -10.898
REMARK INTRA:                  -0.823
REMARK UNBOUND:                -1.216
REMARK  Name = 
REMARK  7 active torsions:
REMARK  status: ('A' for Active; 'I' for Inactive)
REMARK    1  A    between atoms: C_2  and  O_3
REMARK    2  A    between atoms: C_2  and  C_25
REMARK    3  A    between atoms: O_3  and  C_4
REMARK    4  A    between atoms: C_4  and  C_5
REMARK    5  A    between atoms: C_8  and  C_9
REMARK    6  A    between atoms: C_9  and  N_10
REMARK    7  A    between atoms: C_11  and  C_13
REMARK                            x       y       z     vdW  Elec       q    Type
REMARK                         _______ _______ _______ _____ _____    ______ ____
ROOT
ATOM      1  C   UNL     1      50.111   5.158  17.058  0.00  0.00    +0.000 A 
ATOM      2  C   UNL     1      50.836   6.268  16.632  0.00  0.00    +0.000 A 
ATOM      3  C   UNL     1      50.229   7.188  15.778  0.00  0.00    +0.000 A 
ATOM      4  C   UNL     1      48.921   6.974  15.338  0.00  0.00    +0.000 A 
ATOM      5  C   UNL     1      48.277   5.838  15.812  0.00  0.00    +0.000 A 
ATOM      6  N   UNL     1      48.837   4.931  16.649  0.00  0.00    +0.000 NA
ENDROOT
BRANCH   1   7
ATOM      7  C   UNL     1      50.734   4.155  18.004  0.00  0.00    +0.000 C 
BRANCH   7   8
ATOM      8  O   UNL     1      50.053   2.891  17.972  0.00  0.00    +0.000 OA
BRANCH   8  10
ATOM      9  O   UNL     1      49.980   1.734  15.988  0.00  0.00    +0.000 OA
ATOM     10  C   UNL     1      50.512   2.001  17.060  0.00  0.00    +0.000 C 
BRANCH  10  11
ATOM     11  C   UNL     1      51.717   1.384  17.542  0.00  0.00    +0.000 A 
ATOM     12  C   UNL     1      53.037   1.794  17.521  0.00  0.00    +0.000 A 
ATOM     13  C   UNL     1      53.751   0.769  18.169  0.00  0.00    +0.000 A 
ATOM     14  N   UNL     1      52.957  -0.228  18.563  0.00  0.00    +0.000 NA
ATOM     15  N   UNL     1      51.734   0.163  18.161  0.00  0.00    +0.000 N 
ATOM     16  H   UNL     1      50.945  -0.449  18.337  0.00  0.00    +0.000 HD
ENDBRANCH  10  11
ENDBRANCH   8  10
ENDBRANCH   7   8
ENDBRANCH   1   7
BRANCH   4  17
ATOM     17  C   UNL     1      48.230   7.934  14.415  0.00  0.00    +0.000 C 
BRANCH  17  18
ATOM     18  N   UNL     1      47.002   7.388  13.890  0.00  0.00    +0.000 N 
ATOM     19  C   UNL     1      46.915   6.955  12.588  0.00  0.00    +0.000 C 
ATOM     20  O   UNL     1      47.883   6.966  11.832  0.00  0.00    +0.000 OA
ATOM     21  H   UNL     1      46.149   7.611  14.391  0.00  0.00    +0.000 HD
BRANCH  19  22
ATOM     22  C   UNL     1      45.616   6.414  12.167  0.00  0.00    +0.000 A 
ATOM     23  C   UNL     1      44.659   7.258  11.620  0.00  0.00    +0.000 A 
ATOM     24  S   UNL     1      43.219   6.457  11.170  0.00  0.00    +0.000 S 
ATOM     25  C   UNL     1      43.809   4.965  11.737  0.00  0.00    +0.000 A 
ATOM     26  N   UNL     1      43.039   3.843  11.686  0.00  0.00    +0.000 NA
ATOM     27  C   UNL     1      43.602   2.791  12.172  0.00  0.00    +0.000 A 
ATOM     28  N   UNL     1      44.868   2.750  12.699  0.00  0.00    +0.000 N 
ATOM     29  C   UNL     1      45.692   3.850  12.741  0.00  0.00    +0.000 A 
ATOM     30  O   UNL     1      46.839   3.770  13.169  0.00  0.00    +0.000 OA
ATOM     31  C   UNL     1      45.095   5.069  12.231  0.00  0.00    +0.000 A 
ATOM     32  H   UNL     1      45.258   1.888  13.045  0.00  0.00    +0.000 HD
ENDBRANCH  19  22
ENDBRANCH  17  18
ENDBRANCH   4  17
TORSDOF 7
ENDMDL
MODEL 4
REMARK VINA RESULT:    -7.168      2.873      8.361
REMARK INTER + INTRA:         -11.318
REMARK INTER:                  -9.977
REMARK INTRA:                  -1.341
REMARK UNBOUND:                -1.216
REMARK  Name = 
REMARK  7 active torsions:
REMARK  status: ('A' for Active; 'I' for Inactive)
REMARK    1  A    between atoms: C_2  and  O_3
REMARK    2  A    between atoms: C_2  and  C_25
REMARK    3  A    between atoms: O_3  and  C_4
REMARK    4  A    between atoms: C_4  and  C_5
REMARK    5  A    between atoms: C_8  and  C_9
REMARK    6  A    between atoms: C_9  and  N_10
REMARK    7  A    between atoms: C_11  and  C_13
REMARK                            x       y       z     vdW  Elec       q    Type
REMARK                         _______ _______ _______ _____ _____    ______ ____
ROOT
ATOM      1  C   UNL     1      49.090   7.758  16.003  0.00  0.00    +0.000 A 
ATOM      2  C   UNL     1      48.560   8.955  15.529  0.00  0.00    +0.000 A 
ATOM      3  C   UNL     1      47.944   8.976  14.277  0.00  0.00    +0.000 A 
ATOM      4  C   UNL     1      47.893   7.813  13.506  0.00  0.00    +0.000 A 
ATOM      5  C   UNL     1      48.452   6.667  14.059  0.00  0.00    +0.000 A 
ATOM      6  N   UNL     1      49.047   6.614  15.275  0.00  0.00    +0.000 NA
ENDROOT
BRANCH   1   7
ATOM      7  C   UNL     1      49.742   7.698  17.368  0.00  0.00    +0.000 C 
BRANCH   7   8
ATOM      8  O   UNL     1      49.867   6.348  17.844  0.00  0.00    +0.000 OA
BRANCH   8  10
ATOM      9  O   UNL     1      48.627   6.447  19.775  0.00  0.00    +0.000 OA
ATOM     10  C   UNL     1      48.897   5.935  18.695  0.00  0.00    +0.000 C 
BRANCH  10  11
ATOM     11  C   UNL     1      48.235   4.778  18.158  0.00  0.00    +0.000 A 
ATOM     12  C   UNL     1      48.490   3.425  18.284  0.00  0.00    +0.000 A 
ATOM     13  C   UNL     1      47.477   2.789  17.545  0.00  0.00    +0.000 A 
ATOM     14  N   UNL     1      46.644   3.662  16.974  0.00  0.00    +0.000 NA
ATOM     15  N   UNL     1      47.132   4.858  17.350  0.00  0.00    +0.000 N 
ATOM     16  H   UNL     1      46.668   5.698  17.022  0.00  0.00    +0.000 HD
ENDBRANCH  10  11
ENDBRANCH   8  10
ENDBRANCH   7   8
ENDBRANCH   1   7
BRANCH   4  17
ATOM     17  C   UNL     1      47.246   7.791  12.152  0.00  0.00    +0.000 C 
BRANCH  17  18
ATOM     18  N   UNL     1      46.607   6.526  11.881  0.00  0.00    +0.000 N 
ATOM     19  C   UNL     1      45.245   6.438  11.718  0.00  0.00    +0.000 C 
ATOM     20  O   UNL     1      44.520   7.429  11.746  0.00  0.00    +0.000 OA
ATOM     21  H   UNL     1      47.129   5.688  12.114  0.00  0.00    +0.000 HD
BRANCH  19  22
ATOM     22  C   UNL     1      44.707   5.099  11.442  0.00  0.00    +0.000 A 
ATOM     23  C   UNL     1      43.944   4.448  12.401  0.00  0.00    +0.000 A 
ATOM     24  S   UNL     1      43.387   2.912  11.903  0.00  0.00    +0.000 S 
ATOM     25  C   UNL     1      44.189   3.046  10.408  0.00  0.00    +0.000 A 
ATOM     26  N   UNL     1      44.152   2.032   9.501  0.00  0.00    +0.000 NA
ATOM     27  C   UNL     1      44.824   2.259   8.425  0.00  0.00    +0.000 A 
ATOM     28  N   UNL     1      45.524   3.409   8.164  0.00  0.00    +0.000 N 
ATOM     29  C   UNL     1      45.561   4.472   9.036  0.00  0.00    +0.000 A 
ATOM     30  O   UNL     1      46.152   5.509   8.752  0.00  0.00    +0.000 OA
ATOM     31  C   UNL     1      44.843   4.257  10.277  0.00  0.00    +0.000 A 
ATOM     32  H   UNL     1      46.012   3.532   7.291  0.00  0.00    +0.000 HD
ENDBRANCH  19  22
ENDBRANCH  17  18
ENDBRANCH   4  17
TORSDOF 7
ENDMDL
MODEL 5
REMARK VINA RESULT:    -7.110      2.584      3.214
REMARK INTER + INTRA:         -11.236
REMARK INTER:                 -10.303
REMARK INTRA:                  -0.933
REMARK UNBOUND:                -1.216
REMARK  Name = 
REMARK  7 active torsions:
REMARK  status: ('A' for Active; 'I' for Inactive)
REMARK    1  A    between atoms: C_2  and  O_3
REMARK    2  A    between atoms: C_2  and  C_25
REMARK    3  A    between atoms: O_3  and  C_4
REMARK    4  A    between atoms: C_4  and  C_5
REMARK    5  A    between atoms: C_8  and  C_9
REMARK    6  A    between atoms: C_9  and  N_10
REMARK    7  A    between atoms: C_11  and  C_13
REMARK                            x       y       z     vdW  Elec       q    Type
REMARK                         _______ _______ _______ _____ _____    ______ ____
ROOT
ATOM      1  C   UNL     1      45.114   4.182  12.068  0.00  0.00    +0.000 A 
ATOM      2  C   UNL     1      45.339   5.526  11.780  0.00  0.00    +0.000 A 
ATOM      3  C   UNL     1      46.372   6.197  12.436  0.00  0.00    +0.000 A 
ATOM      4  C   UNL     1      47.142   5.529  13.389  0.00  0.00    +0.000 A 
ATOM      5  C   UNL     1      46.843   4.190  13.614  0.00  0.00    +0.000 A 
ATOM      6  N   UNL     1      45.853   3.510  12.986  0.00  0.00    +0.000 NA
ENDROOT
BRANCH   1   7
ATOM      7  C   UNL     1      44.018   3.421  11.355  0.00  0.00    +0.000 C 
BRANCH   7   8
ATOM      8  O   UNL     1      44.531   2.634  10.268  0.00  0.00    +0.000 OA
BRANCH   8  10
ATOM      9  O   UNL     1      44.091   4.285   8.732  0.00  0.00    +0.000 OA
ATOM     10  C   UNL     1      44.716   3.297   9.101  0.00  0.00    +0.000 C 
BRANCH  10  11
ATOM     11  C   UNL     1      45.746   2.655   8.332  0.00  0.00    +0.000 A 
ATOM     12  C   UNL     1      46.132   1.332   8.226  0.00  0.00    +0.000 A 
ATOM     13  C   UNL     1      47.186   1.330   7.295  0.00  0.00    +0.000 A 
ATOM     14  N   UNL     1      47.469   2.555   6.848  0.00  0.00    +0.000 NA
ATOM     15  N   UNL     1      46.592   3.340   7.500  0.00  0.00    +0.000 N 
ATOM     16  H   UNL     1      46.618   4.340   7.336  0.00  0.00    +0.000 HD
ENDBRANCH  10  11
ENDBRANCH   8  10
ENDBRANCH   7   8
ENDBRANCH   1   7
BRANCH   4  17
ATOM     17  C   UNL     1      48.259   6.212  14.123  0.00  0.00    +0.000 C 
BRANCH  17  18
ATOM     18  N   UNL     1      47.938   6.426  15.513  0.00  0.00    +0.000 N 
ATOM     19  C   UNL     1      48.840   6.126  16.506  0.00  0.00    +0.000 C 
ATOM     20  O   UNL     1      49.968   5.711  16.257  0.00  0.00    +0.000 OA
ATOM     21  H   UNL     1      46.955   6.508  15.751  0.00  0.00    +0.000 HD
BRANCH  19  22
ATOM     22  C   UNL     1      48.404   6.390  17.884  0.00  0.00    +0.000 A 
ATOM     23  C   UNL     1      48.282   5.341  18.785  0.00  0.00    +0.000 A 
ATOM     24  S   UNL     1      47.785   5.834  20.343  0.00  0.00    +0.000 S 
ATOM     25  C   UNL     1      47.668   7.459  19.851  0.00  0.00    +0.000 A 
ATOM     26  N   UNL     1      47.246   8.423  20.713  0.00  0.00    +0.000 NA
ATOM     27  C   UNL     1      47.182   9.603  20.200  0.00  0.00    +0.000 A 
ATOM     28  N   UNL     1      47.508   9.914  18.905  0.00  0.00    +0.000 N 
ATOM     29  C   UNL     1      47.971   8.979  18.009  0.00  0.00    +0.000 A 
ATOM     30  O   UNL     1      48.306   9.298  16.873  0.00  0.00    +0.000 OA
ATOM     31  C   UNL     1      48.035   7.628  18.529  0.00  0.00    +0.000 A 
ATOM     32  H   UNL     1      47.455  10.864  18.571  0.00  0.00    +0.000 HD
ENDBRANCH  19  22
ENDBRANCH  17  18
ENDBRANCH   4  17
TORSDOF 7
ENDMDL
MODEL 6
REMARK VINA RESULT:    -6.976      3.113      4.030
REMARK INTER + INTRA:         -11.046
REMARK INTER:                 -10.154
REMARK INTRA:                  -0.893
REMARK UNBOUND:                -1.216
REMARK  Name = 
REMARK  7 active torsions:
REMARK  status: ('A' for Active; 'I' for Inactive)
REMARK    1  A    between atoms: C_2  and  O_3
REMARK    2  A    between atoms: C_2  and  C_25
REMARK    3  A    between atoms: O_3  and  C_4
REMARK    4  A    between atoms: C_4  and  C_5
REMARK    5  A    between atoms: C_8  and  C_9
REMARK    6  A    between atoms: C_9  and  N_10
REMARK    7  A    between atoms: C_11  and  C_13
REMARK                            x       y       z     vdW  Elec       q    Type
REMARK                         _______ _______ _______ _____ _____    ______ ____
ROOT
ATOM      1  C   UNL     1      46.520   4.926  13.563  0.00  0.00    +0.000 A 
ATOM      2  C   UNL     1      47.178   6.095  13.191  0.00  0.00    +0.000 A 
ATOM      3  C   UNL     1      48.058   6.695  14.092  0.00  0.00    +0.000 A 
ATOM      4  C   UNL     1      48.243   6.140  15.360  0.00  0.00    +0.000 A 
ATOM      5  C   UNL     1      47.541   4.974  15.645  0.00  0.00    +0.000 A 
ATOM      6  N   UNL     1      46.689   4.364  14.786  0.00  0.00    +0.000 NA
ENDROOT
BRANCH   1   7
ATOM      7  C   UNL     1      45.579   4.238  12.597  0.00  0.00    +0.000 C 
BRANCH   7   8
ATOM      8  O   UNL     1      44.671   5.165  11.981  0.00  0.00    +0.000 OA
BRANCH   8  10
ATOM      9  O   UNL     1      42.546   4.513  11.402  0.00  0.00    +0.000 OA
ATOM     10  C   UNL     1      43.743   4.618  11.160  0.00  0.00    +0.000 C 
BRANCH  10  11
ATOM     11  C   UNL     1      44.371   4.148   9.956  0.00  0.00    +0.000 A 
ATOM     12  C   UNL     1      44.498   2.883   9.413  0.00  0.00    +0.000 A 
ATOM     13  C   UNL     1      45.196   3.069   8.206  0.00  0.00    +0.000 A 
ATOM     14  N   UNL     1      45.508   4.349   7.995  0.00  0.00    +0.000 NA
ATOM     15  N   UNL     1      45.009   4.979   9.074  0.00  0.00    +0.000 N 
ATOM     16  H   UNL     1      45.135   5.982   9.154  0.00  0.00    +0.000 HD
ENDBRANCH  10  11
ENDBRANCH   8  10
ENDBRANCH   7   8
ENDBRANCH   1   7
BRANCH   4  17
ATOM     17  C   UNL     1      49.174   6.754  16.363  0.00  0.00    +0.000 C 
BRANCH  17  18
ATOM     18  N   UNL     1      50.195   5.828  16.790  0.00  0.00    +0.000 N 
ATOM     19  C   UNL     1      50.564   5.735  18.110  0.00  0.00    +0.000 C 
ATOM     20  O   UNL     1      50.015   6.394  18.988  0.00  0.00    +0.000 OA
ATOM     21  H   UNL     1      50.828   5.481  16.077  0.00  0.00    +0.000 HD
BRANCH  19  22
ATOM     22  C   UNL     1      51.611   4.753  18.426  0.00  0.00    +0.000 A 
ATOM     23  C   UNL     1      52.735   5.144  19.141  0.00  0.00    +0.000 A 
ATOM     24  S   UNL     1      53.835   3.872  19.434  0.00  0.00    +0.000 S 
ATOM     25  C   UNL     1      52.869   2.767  18.573  0.00  0.00    +0.000 A 
ATOM     26  N   UNL     1      53.264   1.475  18.405  0.00  0.00    +0.000 NA
ATOM     27  C   UNL     1      52.449   0.757  17.711  0.00  0.00    +0.000 A 
ATOM     28  N   UNL     1      51.269   1.206  17.174  0.00  0.00    +0.000 N 
ATOM     29  C   UNL     1      50.815   2.493  17.347  0.00  0.00    +0.000 A 
ATOM     30  O   UNL     1      49.730   2.850  16.900  0.00  0.00    +0.000 OA
ATOM     31  C   UNL     1      51.710   3.351  18.098  0.00  0.00    +0.000 A 
ATOM     32  H   UNL     1      50.665   0.586  16.658  0.00  0.00    +0.000 HD
ENDBRANCH  19  22
ENDBRANCH  17  18
ENDBRANCH   4  17
TORSDOF 7
ENDMDL
MODEL 7
REMARK VINA RESULT:    -6.968      3.421      8.011
REMARK INTER + INTRA:         -11.036
REMARK INTER:                  -9.668
REMARK INTRA:                  -1.368
REMARK UNBOUND:                -1.216
REMARK  Name = 
REMARK  7 active torsions:
REMARK  status: ('A' for Active; 'I' for Inactive)
REMARK    1  A    between atoms: C_2  and  O_3
REMARK    2  A    between atoms: C_2  and  C_25
REMARK    3  A    between atoms: O_3  and  C_4
REMARK    4  A    between atoms: C_4  and  C_5
REMARK    5  A    between atoms: C_8  and  C_9
REMARK    6  A    between atoms: C_9  and  N_10
REMARK    7  A    between atoms: C_11  and  C_13
REMARK                            x       y       z     vdW  Elec       q    Type
REMARK                         _______ _______ _______ _____ _____    ______ ____
ROOT
ATOM      1  C   UNL     1      49.606   7.261  16.012  0.00  0.00    +0.000 A 
ATOM      2  C   UNL     1      49.837   8.533  15.494  0.00  0.00    +0.000 A 
ATOM      3  C   UNL     1      49.374   8.838  14.214  0.00  0.00    +0.000 A 
ATOM      4  C   UNL     1      48.718   7.865  13.459  0.00  0.00    +0.000 A 
ATOM      5  C   UNL     1      48.536   6.623  14.056  0.00  0.00    +0.000 A 
ATOM      6  N   UNL     1      48.965   6.300  15.300  0.00  0.00    +0.000 NA
ENDROOT
BRANCH   1   7
ATOM      7  C   UNL     1      50.073   6.908  17.407  0.00  0.00    +0.000 C 
BRANCH   7   8
ATOM      8  O   UNL     1      48.985   6.869  18.343  0.00  0.00    +0.000 OA
BRANCH   8  10
ATOM      9  O   UNL     1      49.203   5.576  20.229  0.00  0.00    +0.000 OA
ATOM     10  C   UNL     1      48.868   5.726  19.060  0.00  0.00    +0.000 C 
BRANCH  10  11
ATOM     11  C   UNL     1      48.310   4.688  18.237  0.00  0.00    +0.000 A 
ATOM     12  C   UNL     1      48.782   3.439  17.879  0.00  0.00    +0.000 A 
ATOM     13  C   UNL     1      47.772   2.880  17.075  0.00  0.00    +0.000 A 
ATOM     14  N   UNL     1      46.738   3.708  16.915  0.00  0.00    +0.000 NA
ATOM     15  N   UNL     1      47.094   4.799  17.618  0.00  0.00    +0.000 N 
ATOM     16  H   UNL     1      46.464   5.593  17.637  0.00  0.00    +0.000 HD
ENDBRANCH  10  11
ENDBRANCH   8  10
ENDBRANCH   7   8
ENDBRANCH   1   7
BRANCH   4  17
ATOM     17  C   UNL     1      48.209   8.147  12.076  0.00  0.00    +0.000 C 
BRANCH  17  18
ATOM     18  N   UNL     1      47.540   7.004  11.504  0.00  0.00    +0.000 N 
ATOM     19  C   UNL     1      46.170   6.964  11.390  0.00  0.00    +0.000 C 
ATOM     20  O   UNL     1      45.462   7.910  11.721  0.00  0.00    +0.000 OA
ATOM     21  H   UNL     1      48.060   6.133  11.474  0.00  0.00    +0.000 HD
BRANCH  19  22
ATOM     22  C   UNL     1      45.602   5.750  10.788  0.00  0.00    +0.000 A 
ATOM     23  C   UNL     1      45.763   5.509   9.431  0.00  0.00    +0.000 A 
ATOM     24  S   UNL     1      45.056   4.045   8.908  0.00  0.00    +0.000 S 
ATOM     25  C   UNL     1      44.468   3.709  10.470  0.00  0.00    +0.000 A 
ATOM     26  N   UNL     1      43.722   2.597  10.713  0.00  0.00    +0.000 NA
ATOM     27  C   UNL     1      43.323   2.483  11.933  0.00  0.00    +0.000 A 
ATOM     28  N   UNL     1      43.604   3.372  12.938  0.00  0.00    +0.000 N 
ATOM     29  C   UNL     1      44.381   4.490  12.745  0.00  0.00    +0.000 A 
ATOM     30  O   UNL     1      44.660   5.239  13.677  0.00  0.00    +0.000 OA
ATOM     31  C   UNL     1      44.834   4.681  11.382  0.00  0.00    +0.000 A 
ATOM     32  H   UNL     1      43.278   3.212  13.878  0.00  0.00    +0.000 HD
ENDBRANCH  19  22
ENDBRANCH  17  18
ENDBRANCH   4  17
TORSDOF 7
ENDMDL
MODEL 8
REMARK VINA RESULT:    -6.955      2.097      2.627
REMARK INTER + INTRA:         -11.018
REMARK INTER:                  -9.869
REMARK INTRA:                  -1.149
REMARK UNBOUND:                -1.216
REMARK  Name = 
REMARK  7 active torsions:
REMARK  status: ('A' for Active; 'I' for Inactive)
REMARK    1  A    between atoms: C_2  and  O_3
REMARK    2  A    between atoms: C_2  and  C_25
REMARK    3  A    between atoms: O_3  and  C_4
REMARK    4  A    between atoms: C_4  and  C_5
REMARK    5  A    between atoms: C_8  and  C_9
REMARK    6  A    between atoms: C_9  and  N_10
REMARK    7  A    between atoms: C_11  and  C_13
REMARK                            x       y       z     vdW  Elec       q    Type
REMARK                         _______ _______ _______ _____ _____    ______ ____
ROOT
ATOM      1  C   UNL     1      44.999   5.472  12.761  0.00  0.00    +0.000 A 
ATOM      2  C   UNL     1      45.047   6.754  12.217  0.00  0.00    +0.000 A 
ATOM      3  C   UNL     1      46.280   7.395  12.100  0.00  0.00    +0.000 A 
ATOM      4  C   UNL     1      47.440   6.765  12.555  0.00  0.00    +0.000 A 
ATOM      5  C   UNL     1      47.295   5.490  13.086  0.00  0.00    +0.000 A 
ATOM      6  N   UNL     1      46.113   4.837  13.204  0.00  0.00    +0.000 NA
ENDROOT
BRANCH   1   7
ATOM      7  C   UNL     1      43.680   4.741  12.878  0.00  0.00    +0.000 C 
BRANCH   7   8
ATOM      8  O   UNL     1      43.158   4.368  11.593  0.00  0.00    +0.000 OA
BRANCH   8  10
ATOM      9  O   UNL     1      42.978   2.085  11.772  0.00  0.00    +0.000 OA
ATOM     10  C   UNL     1      43.397   3.091  11.210  0.00  0.00    +0.000 C 
BRANCH  10  11
ATOM     11  C   UNL     1      44.245   3.078  10.050  0.00  0.00    +0.000 A 
ATOM     12  C   UNL     1      44.579   4.063   9.139  0.00  0.00    +0.000 A 
ATOM     13  C   UNL     1      45.470   3.446   8.242  0.00  0.00    +0.000 A 
ATOM     14  N   UNL     1      45.682   2.164   8.542  0.00  0.00    +0.000 NA
ATOM     15  N   UNL     1      44.920   1.963   9.632  0.00  0.00    +0.000 N 
ATOM     16  H   UNL     1      44.901   1.039  10.049  0.00  0.00    +0.000 HD
ENDBRANCH  10  11
ENDBRANCH   8  10
ENDBRANCH   7   8
ENDBRANCH   1   7
BRANCH   4  17
ATOM     17  C   UNL     1      48.786   7.421  12.454  0.00  0.00    +0.000 C 
BRANCH  17  18
ATOM     18  N   UNL     1      49.675   6.989  13.506  0.00  0.00    +0.000 N 
ATOM     19  C   UNL     1      49.882   7.761  14.624  0.00  0.00    +0.000 C 
ATOM     20  O   UNL     1      49.290   8.821  14.802  0.00  0.00    +0.000 OA
ATOM     21  H   UNL     1      50.357   6.277  13.268  0.00  0.00    +0.000 HD
BRANCH  19  22
ATOM     22  C   UNL     1      50.805   7.217  15.629  0.00  0.00    +0.000 A 
ATOM     23  C   UNL     1      52.106   7.695  15.706  0.00  0.00    +0.000 A 
ATOM     24  S   UNL     1      53.031   6.966  16.943  0.00  0.00    +0.000 S 
ATOM     25  C   UNL     1      51.737   5.952  17.384  0.00  0.00    +0.000 A 
ATOM     26  N   UNL     1      51.877   5.030  18.376  0.00  0.00    +0.000 NA
ATOM     27  C   UNL     1      50.827   4.314  18.588  0.00  0.00    +0.000 A 
ATOM     28  N   UNL     1      49.643   4.436  17.905  0.00  0.00    +0.000 N 
ATOM     29  C   UNL     1      49.447   5.375  16.919  0.00  0.00    +0.000 A 
ATOM     30  O   UNL     1      48.359   5.495  16.364  0.00  0.00    +0.000 OA
ATOM     31  C   UNL     1      50.608   6.189  16.623  0.00  0.00    +0.000 A 
ATOM     32  H   UNL     1      48.851   3.857  18.135  0.00  0.00    +0.000 HD
ENDBRANCH  19  22
ENDBRANCH  17  18
ENDBRANCH   4  17
TORSDOF 7
ENDMDL
MODEL 9
REMARK VINA RESULT:    -6.839      4.232      9.327
REMARK INTER + INTRA:         -10.854
REMARK INTER:                  -9.697
REMARK INTRA:                  -1.157
REMARK UNBOUND:                -1.216
REMARK  Name = 
REMARK  7 active torsions:
REMARK  status: ('A' for Active; 'I' for Inactive)
REMARK    1  A    between atoms: C_2  and  O_3
REMARK    2  A    between atoms: C_2  and  C_25
REMARK    3  A    between atoms: O_3  and  C_4
REMARK    4  A    between atoms: C_4  and  C_5
REMARK    5  A    between atoms: C_8  and  C_9
REMARK    6  A    between atoms: C_9  and  N_10
REMARK    7  A    between atoms: C_11  and  C_13
REMARK                            x       y       z     vdW  Elec       q    Type
REMARK                         _______ _______ _______ _____ _____    ______ ____
ROOT
ATOM      1  C   UNL     1      51.319   4.358  17.735  0.00  0.00    +0.000 A 
ATOM      2  C   UNL     1      50.458   5.422  17.473  0.00  0.00    +0.000 A 
ATOM      3  C   UNL     1      49.134   5.153  17.123  0.00  0.00    +0.000 A 
ATOM      4  C   UNL     1      48.698   3.832  17.008  0.00  0.00    +0.000 A 
ATOM      5  C   UNL     1      49.627   2.836  17.284  0.00  0.00    +0.000 A 
ATOM      6  N   UNL     1      50.916   3.067  17.636  0.00  0.00    +0.000 NA
ENDROOT
BRANCH   1   7
ATOM      7  C   UNL     1      52.752   4.618  18.142  0.00  0.00    +0.000 C 
BRANCH   7   8
ATOM      8  O   UNL     1      53.222   3.654  19.097  0.00  0.00    +0.000 OA
BRANCH   8  10
ATOM      9  O   UNL     1      55.469   3.679  18.622  0.00  0.00    +0.000 OA
ATOM     10  C   UNL     1      54.416   3.081  18.814  0.00  0.00    +0.000 C 
BRANCH  10  11
ATOM     11  C   UNL     1      54.270   1.654  18.743  0.00  0.00    +0.000 A 
ATOM     12  C   UNL     1      55.184   0.624  18.864  0.00  0.00    +0.000 A 
ATOM     13  C   UNL     1      54.431  -0.556  18.725  0.00  0.00    +0.000 A 
ATOM     14  N   UNL     1      53.137  -0.307  18.517  0.00  0.00    +0.000 NA
ATOM     15  N   UNL     1      53.068   1.037  18.520  0.00  0.00    +0.000 N 
ATOM     16  H   UNL     1      52.169   1.479  18.363  0.00  0.00    +0.000 HD
ENDBRANCH  10  11
ENDBRANCH   8  10
ENDBRANCH   7   8
ENDBRANCH   1   7
BRANCH   4  17
ATOM     17  C   UNL     1      47.285   3.497  16.629  0.00  0.00    +0.000 C 
BRANCH  17  18
ATOM     18  N   UNL     1      46.740   4.447  15.689  0.00  0.00    +0.000 N 
ATOM     19  C   UNL     1      46.760   4.201  14.336  0.00  0.00    +0.000 C 
ATOM     20  O   UNL     1      47.194   3.150  13.872  0.00  0.00    +0.000 OA
ATOM     21  H   UNL     1      46.628   5.401  16.012  0.00  0.00    +0.000 HD
BRANCH  19  22
ATOM     22  C   UNL     1      46.173   5.237  13.477  0.00  0.00    +0.000 A 
ATOM     23  C   UNL     1      46.866   6.417  13.242  0.00  0.00    +0.000 A 
ATOM     24  S   UNL     1      46.044   7.498  12.207  0.00  0.00    +0.000 S 
ATOM     25  C   UNL     1      44.712   6.446  12.078  0.00  0.00    +0.000 A 
ATOM     26  N   UNL     1      43.615   6.791  11.351  0.00  0.00    +0.000 NA
ATOM     27  C   UNL     1      42.673   5.912  11.361  0.00  0.00    +0.000 A 
ATOM     28  N   UNL     1      42.726   4.712  12.023  0.00  0.00    +0.000 N 
ATOM     29  C   UNL     1      43.827   4.308  12.742  0.00  0.00    +0.000 A 
ATOM     30  O   UNL     1      43.866   3.206  13.279  0.00  0.00    +0.000 OA
ATOM     31  C   UNL     1      44.906   5.275  12.786  0.00  0.00    +0.000 A 
ATOM     32  H   UNL     1      41.961   4.058  11.973  0.00  0.00    +0.000 HD
ENDBRANCH  19  22
ENDBRANCH  17  18
ENDBRANCH   4  17
TORSDOF 7
ENDMDL
