MODEL 1
REMARK VINA RESULT:    -7.997      0.000      0.000
REMARK INTER + INTRA:         -11.790
REMARK INTER:                 -10.802
REMARK INTRA:                  -0.988
REMARK UNBOUND:                -0.988
REMARK  Name = 
REMARK  7 active torsions:
REMARK  status: ('A' for Active; 'I' for Inactive)
REMARK    1  A    between atoms: C_1  and  C_2
REMARK    2  A    between atoms: C_2  and  C_3
REMARK    3  A    between atoms: C_7  and  C_8
REMARK    4  A    between atoms: C_8  and  C_9
REMARK    5  A    between atoms: C_9  and  N_10
REMARK    6  A    between atoms: N_10  and  C_11
REMARK    7  A    between atoms: C_14  and  C_15
REMARK                            x       y       z     vdW  Elec       q    Type
REMARK                         _______ _______ _______ _____ _____    ______ ____
ROOT
ATOM      1  C   UNL     1      43.238   4.539  11.114  0.00  0.00    +0.000 C 
ENDROOT
BRANCH   1   2
ATOM      2  N   UNL     1      43.773   4.951   9.811  0.00  0.00    +0.000 N 
ATOM      3  H   UNL     1      44.209   5.872   9.845  0.00  0.00    +0.000 HD
BRANCH   2   4
ATOM      4  C   UNL     1      44.587   4.017   9.144  0.00  0.00    +0.000 A 
ATOM      5  C   UNL     1      45.570   4.383   8.216  0.00  0.00    +0.000 A 
ATOM      6  C   UNL     1      46.388   3.424   7.624  0.00  0.00    +0.000 A 
ATOM      7  C   UNL     1      46.228   2.100   8.000  0.00  0.00    +0.000 A 
ATOM      8  N   UNL     1      45.327   1.685   8.931  0.00  0.00    +0.000 NA
ATOM      9  C   UNL     1      44.555   2.657   9.484  0.00  0.00    +0.000 A 
BRANCH   7  10
ATOM     10  C   UNL     1      47.093   1.053   7.370  0.00  0.00    +0.000 C 
ATOM     11  N   UNL     1      46.759  -0.241   7.661  0.00  0.00    +0.000 N 
ATOM     12  O   UNL     1      48.041   1.327   6.643  0.00  0.00    +0.000 OA
ATOM     13  H   UNL     1      45.981  -0.425   8.283  0.00  0.00    +0.000 HD
ATOM     14  H   UNL     1      47.313  -0.995   7.285  0.00  0.00    +0.000 HD
ENDBRANCH   7  10
ENDBRANCH   2   4
ENDBRANCH   1   2
BRANCH   1  15
ATOM     15  C   UNL     1      43.593   5.535  12.225  0.00  0.00    +0.000 C 
BRANCH  15  20
ATOM     16  C   UNL     1      47.265   6.378  12.933  0.00  0.00    +0.000 A 
ATOM     17  C   UNL     1      47.667   5.178  13.553  0.00  0.00    +0.000 A 
ATOM     18  C   UNL     1      46.791   4.100  13.698  0.00  0.00    +0.000 A 
ATOM     19  C   UNL     1      45.482   4.198  13.239  0.00  0.00    +0.000 A 
ATOM     20  C   UNL     1      45.048   5.367  12.607  0.00  0.00    +0.000 A 
ATOM     21  C   UNL     1      45.950   6.437  12.441  0.00  0.00    +0.000 A 
BRANCH  16  23
ATOM     22  C   UNL     1      48.730   7.775  11.467  0.00  0.00    +0.000 C 
ATOM     23  C   UNL     1      48.228   7.579  12.910  0.00  0.00    +0.000 C 
ATOM     24  C   UNL     1      47.559   8.842  13.462  0.00  0.00    +0.000 C 
ATOM     25  C   UNL     1      47.954   8.882  14.932  0.00  0.00    +0.000 C 
ATOM     26  O   UNL     1      48.986   7.912  15.138  0.00  0.00    +0.000 OA
ATOM     27  C   UNL     1      49.444   7.498  13.848  0.00  0.00    +0.000 C 
ENDBRANCH  16  23
ENDBRANCH  15  20
ENDBRANCH   1  15
TORSDOF 6
ENDMDL
MODEL 2
REMARK VINA RESULT:    -7.592      1.340      1.590
REMARK INTER + INTRA:         -11.243
REMARK INTER:                 -10.539
REMARK INTRA:                  -0.704
REMARK UNBOUND:                -0.988
REMARK  Name = 
REMARK  7 active torsions:
REMARK  status: ('A' for Active; 'I' for Inactive)
REMARK    1  A    between atoms: C_1  and  C_2
REMARK    2  A    between atoms: C_2  and  C_3
REMARK    3  A    between atoms: C_7  and  C_8
REMARK    4  A    between atoms: C_8  and  C_9
REMARK    5  A    between atoms: C_9  and  N_10
REMARK    6  A    between atoms: N_10  and  C_11
REMARK    7  A    between atoms: C_14  and  C_15
REMARK                            x       y       z     vdW  Elec       q    Type
REMARK                         _______ _______ _______ _____ _____    ______ ____
ROOT
ATOM      1  C   UNL     1      43.378   4.928  10.732  0.00  0.00    +0.000 C 
ENDROOT
BRANCH   1   2
ATOM      2  N   UNL     1      43.775   3.531  10.521  0.00  0.00    +0.000 N 
ATOM      3  H   UNL     1      42.974   2.902  10.487  0.00  0.00    +0.000 HD
BRANCH   2   4
ATOM      4  C   UNL     1      44.672   3.286   9.465  0.00  0.00    +0.000 A 
ATOM      5  C   UNL     1      45.256   4.306   8.704  0.00  0.00    +0.000 A 
ATOM      6  C   UNL     1      46.182   4.014   7.706  0.00  0.00    +0.000 A 
ATOM      7  C   UNL     1      46.537   2.690   7.505  0.00  0.00    +0.000 A 
ATOM      8  N   UNL     1      46.045   1.658   8.242  0.00  0.00    +0.000 NA
ATOM      9  C   UNL     1      45.148   1.993   9.207  0.00  0.00    +0.000 A 
BRANCH   7  10
ATOM     10  C   UNL     1      47.525   2.354   6.432  0.00  0.00    +0.000 C 
ATOM     11  N   UNL     1      47.460   3.131   5.307  0.00  0.00    +0.000 N 
ATOM     12  O   UNL     1      48.339   1.446   6.541  0.00  0.00    +0.000 OA
ATOM     13  H   UNL     1      46.758   3.859   5.247  0.00  0.00    +0.000 HD
ATOM     14  H   UNL     1      48.084   2.946   4.538  0.00  0.00    +0.000 HD
ENDBRANCH   7  10
ENDBRANCH   2   4
ENDBRANCH   1   2
BRANCH   1  15
ATOM     15  C   UNL     1      43.451   5.334  12.209  0.00  0.00    +0.000 C 
BRANCH  15  20
ATOM     16  C   UNL     1      46.956   6.765  12.814  0.00  0.00    +0.000 A 
ATOM     17  C   UNL     1      47.486   5.749  13.636  0.00  0.00    +0.000 A 
ATOM     18  C   UNL     1      46.751   4.604  13.951  0.00  0.00    +0.000 A 
ATOM     19  C   UNL     1      45.458   4.449  13.463  0.00  0.00    +0.000 A 
ATOM     20  C   UNL     1      44.901   5.428  12.635  0.00  0.00    +0.000 A 
ATOM     21  C   UNL     1      45.663   6.564  12.301  0.00  0.00    +0.000 A 
BRANCH  16  23
ATOM     22  C   UNL     1      46.770   9.197  12.271  0.00  0.00    +0.000 C 
ATOM     23  C   UNL     1      47.757   8.062  12.600  0.00  0.00    +0.000 C 
ATOM     24  C   UNL     1      48.624   8.390  13.821  0.00  0.00    +0.000 C 
ATOM     25  C   UNL     1      49.989   7.799  13.500  0.00  0.00    +0.000 C 
ATOM     26  O   UNL     1      49.998   7.430  12.117  0.00  0.00    +0.000 OA
ATOM     27  C   UNL     1      48.844   8.023  11.513  0.00  0.00    +0.000 C 
ENDBRANCH  16  23
ENDBRANCH  15  20
ENDBRANCH   1  15
TORSDOF 6
ENDMDL
MODEL 3
REMARK VINA RESULT:    -7.536      1.484      2.341
REMARK INTER + INTRA:         -11.167
REMARK INTER:                 -10.309
REMARK INTRA:                  -0.858
REMARK UNBOUND:                -0.988
REMARK  Name = 
REMARK  7 active torsions:
REMARK  status: ('A' for Active; 'I' for Inactive)
REMARK    1  A    between atoms: C_1  and  C_2
REMARK    2  A    between atoms: C_2  and  C_3
REMARK    3  A    between atoms: C_7  and  C_8
REMARK    4  A    between atoms: C_8  and  C_9
REMARK    5  A    between atoms: C_9  and  N_10
REMARK    6  A    between atoms: N_10  and  C_11
REMARK    7  A    between atoms: C_14  and  C_15
REMARK                            x       y       z     vdW  Elec       q    Type
REMARK                         _______ _______ _______ _____ _____    ______ ____
ROOT
ATOM      1  C   UNL     1      44.297   5.420  11.130  0.00  0.00    +0.000 C 
ENDROOT
BRANCH   1   2
ATOM      2  N   UNL     1      43.721   4.756   9.956  0.00  0.00    +0.000 N 
ATOM      3  H   UNL     1      43.195   5.399   9.365  0.00  0.00    +0.000 HD
BRANCH   2   4
ATOM      4  C   UNL     1      44.594   3.953   9.198  0.00  0.00    +0.000 A 
ATOM      5  C   UNL     1      45.540   4.480   8.310  0.00  0.00    +0.000 A 
ATOM      6  C   UNL     1      46.420   3.645   7.625  0.00  0.00    +0.000 A 
ATOM      7  C   UNL     1      46.359   2.283   7.868  0.00  0.00    +0.000 A 
ATOM      8  N   UNL     1      45.498   1.713   8.754  0.00  0.00    +0.000 NA
ATOM      9  C   UNL     1      44.663   2.568   9.401  0.00  0.00    +0.000 A 
BRANCH   7  10
ATOM     10  C   UNL     1      47.292   1.369   7.136  0.00  0.00    +0.000 C 
ATOM     11  N   UNL     1      48.372   1.973   6.553  0.00  0.00    +0.000 N 
ATOM     12  O   UNL     1      47.107   0.161   7.055  0.00  0.00    +0.000 OA
ATOM     13  H   UNL     1      48.478   2.978   6.625  0.00  0.00    +0.000 HD
ATOM     14  H   UNL     1      49.030   1.417   6.028  0.00  0.00    +0.000 HD
ENDBRANCH   7  10
ENDBRANCH   2   4
ENDBRANCH   1   2
BRANCH   1  15
ATOM     15  C   UNL     1      43.679   6.803  11.373  0.00  0.00    +0.000 C 
BRANCH  15  20
ATOM     16  C   UNL     1      47.119   8.195  12.333  0.00  0.00    +0.000 A 
ATOM     17  C   UNL     1      46.884   9.568  12.122  0.00  0.00    +0.000 A 
ATOM     18  C   UNL     1      45.632  10.045  11.727  0.00  0.00    +0.000 A 
ATOM     19  C   UNL     1      44.582   9.158  11.517  0.00  0.00    +0.000 A 
ATOM     20  C   UNL     1      44.772   7.789  11.727  0.00  0.00    +0.000 A 
ATOM     21  C   UNL     1      46.031   7.324  12.154  0.00  0.00    +0.000 A 
BRANCH  16  23
ATOM     22  C   UNL     1      49.440   8.002  11.426  0.00  0.00    +0.000 C 
ATOM     23  C   UNL     1      48.546   7.709  12.646  0.00  0.00    +0.000 C 
ATOM     24  C   UNL     1      49.089   8.358  13.924  0.00  0.00    +0.000 C 
ATOM     25  C   UNL     1      48.783   7.356  15.029  0.00  0.00    +0.000 C 
ATOM     26  O   UNL     1      48.378   6.129  14.414  0.00  0.00    +0.000 OA
ATOM     27  C   UNL     1      48.697   6.226  13.023  0.00  0.00    +0.000 C 
ENDBRANCH  16  23
ENDBRANCH  15  20
ENDBRANCH   1  15
TORSDOF 6
ENDMDL
MODEL 4
REMARK VINA RESULT:    -7.354      2.265      3.176
REMARK INTER + INTRA:         -10.921
REMARK INTER:                 -10.310
REMARK INTRA:                  -0.611
REMARK UNBOUND:                -0.988
REMARK  Name = 
REMARK  7 active torsions:
REMARK  status: ('A' for Active; 'I' for Inactive)
REMARK    1  A    between atoms: C_1  and  C_2
REMARK    2  A    between atoms: C_2  and  C_3
REMARK    3  A    between atoms: C_7  and  C_8
REMARK    4  A    between atoms: C_8  and  C_9
REMARK    5  A    between atoms: C_9  and  N_10
REMARK    6  A    between atoms: N_10  and  C_11
REMARK    7  A    between atoms: C_14  and  C_15
REMARK                            x       y       z     vdW  Elec       q    Type
REMARK                         _______ _______ _______ _____ _____    ______ ____
ROOT
ATOM      1  C   UNL     1      44.250   5.038  11.536  0.00  0.00    +0.000 C 
ENDROOT
BRANCH   1   2
ATOM      2  N   UNL     1      43.734   4.404  10.317  0.00  0.00    +0.000 N 
ATOM      3  H   UNL     1      43.082   5.004   9.814  0.00  0.00    +0.000 HD
BRANCH   2   4
ATOM      4  C   UNL     1      44.689   3.837   9.453  0.00  0.00    +0.000 A 
ATOM      5  C   UNL     1      44.836   2.456   9.275  0.00  0.00    +0.000 A 
ATOM      6  C   UNL     1      45.758   1.946   8.364  0.00  0.00    +0.000 A 
ATOM      7  C   UNL     1      46.505   2.839   7.614  0.00  0.00    +0.000 A 
ATOM      8  N   UNL     1      46.375   4.191   7.703  0.00  0.00    +0.000 NA
ATOM      9  C   UNL     1      45.460   4.640   8.601  0.00  0.00    +0.000 A 
BRANCH   7  10
ATOM     10  C   UNL     1      47.507   2.310   6.635  0.00  0.00    +0.000 C 
ATOM     11  N   UNL     1      47.518   2.925   5.413  0.00  0.00    +0.000 N 
ATOM     12  O   UNL     1      48.268   1.388   6.899  0.00  0.00    +0.000 OA
ATOM     13  H   UNL     1      46.859   3.672   5.226  0.00  0.00    +0.000 HD
ATOM     14  H   UNL     1      48.156   2.605   4.701  0.00  0.00    +0.000 HD
ENDBRANCH   7  10
ENDBRANCH   2   4
ENDBRANCH   1   2
BRANCH   1  15
ATOM     15  C   UNL     1      45.075   4.067  12.388  0.00  0.00    +0.000 C 
BRANCH  15  20
ATOM     16  C   UNL     1      47.484   4.991  15.223  0.00  0.00    +0.000 A 
ATOM     17  C   UNL     1      48.117   6.107  14.640  0.00  0.00    +0.000 A 
ATOM     18  C   UNL     1      47.746   6.584  13.380  0.00  0.00    +0.000 A 
ATOM     19  C   UNL     1      46.738   5.949  12.663  0.00  0.00    +0.000 A 
ATOM     20  C   UNL     1      46.077   4.846  13.213  0.00  0.00    +0.000 A 
ATOM     21  C   UNL     1      46.442   4.392  14.496  0.00  0.00    +0.000 A 
BRANCH  16  23
ATOM     22  C   UNL     1      48.219   2.911  16.398  0.00  0.00    +0.000 C 
ATOM     23  C   UNL     1      48.014   4.430  16.555  0.00  0.00    +0.000 C 
ATOM     24  C   UNL     1      49.301   5.141  16.988  0.00  0.00    +0.000 C 
ATOM     25  C   UNL     1      48.838   6.242  17.933  0.00  0.00    +0.000 C 
ATOM     26  O   UNL     1      47.463   6.004  18.249  0.00  0.00    +0.000 OA
ATOM     27  C   UNL     1      47.147   4.684  17.799  0.00  0.00    +0.000 C 
ENDBRANCH  16  23
ENDBRANCH  15  20
ENDBRANCH   1  15
TORSDOF 6
ENDMDL
MODEL 5
REMARK VINA RESULT:    -6.616      4.186      7.240
REMARK INTER + INTRA:          -9.924
REMARK INTER:                  -8.702
REMARK INTRA:                  -1.222
REMARK UNBOUND:                -0.988
REMARK  Name = 
REMARK  7 active torsions:
REMARK  status: ('A' for Active; 'I' for Inactive)
REMARK    1  A    between atoms: C_1  and  C_2
REMARK    2  A    between atoms: C_2  and  C_3
REMARK    3  A    between atoms: C_7  and  C_8
REMARK    4  A    between atoms: C_8  and  C_9
REMARK    5  A    between atoms: C_9  and  N_10
REMARK    6  A    between atoms: N_10  and  C_11
REMARK    7  A    between atoms: C_14  and  C_15
REMARK                            x       y       z     vdW  Elec       q    Type
REMARK                         _______ _______ _______ _____ _____    ______ ____
ROOT
ATOM      1  C   UNL     1      49.484   7.113  12.969  0.00  0.00    +0.000 C 
ENDROOT
BRANCH   1   2
ATOM      2  N   UNL     1      48.884   7.513  14.246  0.00  0.00    +0.000 N 
ATOM      3  H   UNL     1      48.144   8.205  14.127  0.00  0.00    +0.000 HD
BRANCH   2   4
ATOM      4  C   UNL     1      48.485   6.472  15.106  0.00  0.00    +0.000 A 
ATOM      5  C   UNL     1      47.554   5.493  14.741  0.00  0.00    +0.000 A 
ATOM      6  C   UNL     1      47.235   4.450  15.608  0.00  0.00    +0.000 A 
ATOM      7  C   UNL     1      47.887   4.387  16.829  0.00  0.00    +0.000 A 
ATOM      8  N   UNL     1      48.836   5.278  17.223  0.00  0.00    +0.000 NA
ATOM      9  C   UNL     1      49.117   6.274  16.342  0.00  0.00    +0.000 A 
BRANCH   7  10
ATOM     10  C   UNL     1      47.552   3.278  17.778  0.00  0.00    +0.000 C 
ATOM     11  N   UNL     1      48.357   3.184  18.880  0.00  0.00    +0.000 N 
ATOM     12  O   UNL     1      46.626   2.501  17.588  0.00  0.00    +0.000 OA
ATOM     13  H   UNL     1      49.127   3.833  18.991  0.00  0.00    +0.000 HD
ATOM     14  H   UNL     1      48.199   2.447  19.550  0.00  0.00    +0.000 HD
ENDBRANCH   7  10
ENDBRANCH   2   4
ENDBRANCH   1   2
BRANCH   1  15
ATOM     15  C   UNL     1      48.955   7.946  11.795  0.00  0.00    +0.000 C 
BRANCH  15  20
ATOM     16  C   UNL     1      45.464   6.427  11.346  0.00  0.00    +0.000 A 
ATOM     17  C   UNL     1      44.682   7.481  11.859  0.00  0.00    +0.000 A 
ATOM     18  C   UNL     1      45.258   8.676  12.296  0.00  0.00    +0.000 A 
ATOM     19  C   UNL     1      46.637   8.845  12.245  0.00  0.00    +0.000 A 
ATOM     20  C   UNL     1      47.447   7.828  11.732  0.00  0.00    +0.000 A 
ATOM     21  C   UNL     1      46.851   6.639  11.267  0.00  0.00    +0.000 A 
BRANCH  16  23
ATOM     22  C   UNL     1      45.259   4.660   9.590  0.00  0.00    +0.000 C 
ATOM     23  C   UNL     1      44.794   5.086  10.996  0.00  0.00    +0.000 C 
ATOM     24  C   UNL     1      45.100   4.017  12.051  0.00  0.00    +0.000 C 
ATOM     25  C   UNL     1      43.917   4.064  13.007  0.00  0.00    +0.000 C 
ATOM     26  O   UNL     1      42.893   4.863  12.406  0.00  0.00    +0.000 OA
ATOM     27  C   UNL     1      43.258   5.058  11.036  0.00  0.00    +0.000 C 
ENDBRANCH  16  23
ENDBRANCH  15  20
ENDBRANCH   1  15
TORSDOF 6
ENDMDL
MODEL 6
REMARK VINA RESULT:    -6.570      3.606      5.689
REMARK INTER + INTRA:          -9.862
REMARK INTER:                  -9.025
REMARK INTRA:                  -0.837
REMARK UNBOUND:                -0.988
REMARK  Name = 
REMARK  7 active torsions:
REMARK  status: ('A' for Active; 'I' for Inactive)
REMARK    1  A    between atoms: C_1  and  C_2
REMARK    2  A    between atoms: C_2  and  C_3
REMARK    3  A    between atoms: C_7  and  C_8
REMARK    4  A    between atoms: C_8  and  C_9
REMARK    5  A    between atoms: C_9  and  N_10
REMARK    6  A    between atoms: N_10  and  C_11
REMARK    7  A    between atoms: C_14  and  C_15
REMARK                            x       y       z     vdW  Elec       q    Type
REMARK                         _______ _______ _______ _____ _____    ______ ____
ROOT
ATOM      1  C   UNL     1      48.354   7.039  13.487  0.00  0.00    +0.000 C 
ENDROOT
BRANCH   1   2
ATOM      2  N   UNL     1      46.895   7.122  13.621  0.00  0.00    +0.000 N 
ATOM      3  H   UNL     1      46.539   8.053  13.406  0.00  0.00    +0.000 HD
BRANCH   2   4
ATOM      4  C   UNL     1      46.148   6.119  12.976  0.00  0.00    +0.000 A 
ATOM      5  C   UNL     1      45.815   6.167  11.617  0.00  0.00    +0.000 A 
ATOM      6  C   UNL     1      45.121   5.122  11.013  0.00  0.00    +0.000 A 
ATOM      7  C   UNL     1      44.796   4.016  11.782  0.00  0.00    +0.000 A 
ATOM      8  N   UNL     1      45.133   3.886  13.094  0.00  0.00    +0.000 NA
ATOM      9  C   UNL     1      45.813   4.929  13.638  0.00  0.00    +0.000 A 
BRANCH   7  10
ATOM     10  C   UNL     1      44.044   2.885  11.153  0.00  0.00    +0.000 C 
ATOM     11  N   UNL     1      44.646   2.310  10.068  0.00  0.00    +0.000 N 
ATOM     12  O   UNL     1      42.961   2.496  11.571  0.00  0.00    +0.000 OA
ATOM     13  H   UNL     1      45.533   2.674   9.739  0.00  0.00    +0.000 HD
ATOM     14  H   UNL     1      44.184   1.555   9.584  0.00  0.00    +0.000 HD
ENDBRANCH   7  10
ENDBRANCH   2   4
ENDBRANCH   1   2
BRANCH   1  15
ATOM     15  C   UNL     1      49.078   7.997  14.441  0.00  0.00    +0.000 C 
BRANCH  15  20
ATOM     16  C   UNL     1      49.823   5.346  17.107  0.00  0.00    +0.000 A 
ATOM     17  C   UNL     1      51.215   5.528  17.237  0.00  0.00    +0.000 A 
ATOM     18  C   UNL     1      51.895   6.515  16.519  0.00  0.00    +0.000 A 
ATOM     19  C   UNL     1      51.202   7.339  15.640  0.00  0.00    +0.000 A 
ATOM     20  C   UNL     1      49.819   7.199  15.492  0.00  0.00    +0.000 A 
ATOM     21  C   UNL     1      49.141   6.218  16.242  0.00  0.00    +0.000 A 
BRANCH  16  23
ATOM     22  C   UNL     1      49.120   4.458  19.335  0.00  0.00    +0.000 C 
ATOM     23  C   UNL     1      49.143   4.165  17.823  0.00  0.00    +0.000 C 
ATOM     24  C   UNL     1      47.738   3.909  17.266  0.00  0.00    +0.000 C 
ATOM     25  C   UNL     1      47.928   2.826  16.213  0.00  0.00    +0.000 C 
ATOM     26  O   UNL     1      49.251   2.298  16.355  0.00  0.00    +0.000 OA
ATOM     27  C   UNL     1      49.768   2.778  17.600  0.00  0.00    +0.000 C 
ENDBRANCH  16  23
ENDBRANCH  15  20
ENDBRANCH   1  15
TORSDOF 6
ENDMDL
MODEL 7
REMARK VINA RESULT:    -6.555      5.174      8.066
REMARK INTER + INTRA:          -9.842
REMARK INTER:                  -9.346
REMARK INTRA:                  -0.496
REMARK UNBOUND:                -0.988
REMARK  Name = 
REMARK  7 active torsions:
REMARK  status: ('A' for Active; 'I' for Inactive)
REMARK    1  A    between atoms: C_1  and  C_2
REMARK    2  A    between atoms: C_2  and  C_3
REMARK    3  A    between atoms: C_7  and  C_8
REMARK    4  A    between atoms: C_8  and  C_9
REMARK    5  A    between atoms: C_9  and  N_10
REMARK    6  A    between atoms: N_10  and  C_11
REMARK    7  A    between atoms: C_14  and  C_15
REMARK                            x       y       z     vdW  Elec       q    Type
REMARK                         _______ _______ _______ _____ _____    ______ ____
ROOT
ATOM      1  C   UNL     1      47.775   5.006  16.072  0.00  0.00    +0.000 C 
ENDROOT
BRANCH   1   2
ATOM      2  N   UNL     1      48.110   4.368  17.349  0.00  0.00    +0.000 N 
ATOM      3  H   UNL     1      47.330   3.835  17.732  0.00  0.00    +0.000 HD
BRANCH   2   4
ATOM      4  C   UNL     1      49.308   3.631  17.387  0.00  0.00    +0.000 A 
ATOM      5  C   UNL     1      50.492   4.124  17.950  0.00  0.00    +0.000 A 
ATOM      6  C   UNL     1      51.637   3.334  18.014  0.00  0.00    +0.000 A 
ATOM      7  C   UNL     1      51.568   2.035  17.536  0.00  0.00    +0.000 A 
ATOM      8  N   UNL     1      50.437   1.480  17.024  0.00  0.00    +0.000 NA
ATOM      9  C   UNL     1      49.344   2.288  16.987  0.00  0.00    +0.000 A 
BRANCH   7  10
ATOM     10  C   UNL     1      52.791   1.173  17.589  0.00  0.00    +0.000 C 
ATOM     11  N   UNL     1      52.623  -0.050  18.180  0.00  0.00    +0.000 N 
ATOM     12  O   UNL     1      53.873   1.530  17.140  0.00  0.00    +0.000 OA
ATOM     13  H   UNL     1      51.717  -0.300  18.557  0.00  0.00    +0.000 HD
ATOM     14  H   UNL     1      53.412  -0.673  18.266  0.00  0.00    +0.000 HD
ENDBRANCH   7  10
ENDBRANCH   2   4
ENDBRANCH   1   2
BRANCH   1  15
ATOM     15  C   UNL     1      47.094   4.034  15.100  0.00  0.00    +0.000 C 
BRANCH  15  20
ATOM     16  C   UNL     1      45.266   5.157  11.923  0.00  0.00    +0.000 A 
ATOM     17  C   UNL     1      46.103   6.223  11.535  0.00  0.00    +0.000 A 
ATOM     18  C   UNL     1      47.258   6.545  12.250  0.00  0.00    +0.000 A 
ATOM     19  C   UNL     1      47.603   5.817  13.384  0.00  0.00    +0.000 A 
ATOM     20  C   UNL     1      46.805   4.746  13.795  0.00  0.00    +0.000 A 
ATOM     21  C   UNL     1      45.657   4.413  13.049  0.00  0.00    +0.000 A 
BRANCH  16  23
ATOM     22  C   UNL     1      43.116   6.224  11.224  0.00  0.00    +0.000 C 
ATOM     23  C   UNL     1      43.940   4.924  11.176  0.00  0.00    +0.000 C 
ATOM     24  C   UNL     1      44.185   4.452   9.739  0.00  0.00    +0.000 C 
ATOM     25  C   UNL     1      44.114   2.933   9.811  0.00  0.00    +0.000 C 
ATOM     26  O   UNL     1      43.588   2.574  11.092  0.00  0.00    +0.000 OA
ATOM     27  C   UNL     1      43.064   3.767  11.684  0.00  0.00    +0.000 C 
ENDBRANCH  16  23
ENDBRANCH  15  20
ENDBRANCH   1  15
TORSDOF 6
ENDMDL
MODEL 8
REMARK VINA RESULT:    -6.548      1.578      2.430
REMARK INTER + INTRA:          -9.833
REMARK INTER:                  -9.274
REMARK INTRA:                  -0.559
REMARK UNBOUND:                -0.988
REMARK  Name = 
REMARK  7 active torsions:
REMARK  status: ('A' for Active; 'I' for Inactive)
REMARK    1  A    between atoms: C_1  and  C_2
REMARK    2  A    between atoms: C_2  and  C_3
REMARK    3  A    between atoms: C_7  and  C_8
REMARK    4  A    between atoms: C_8  and  C_9
REMARK    5  A    between atoms: C_9  and  N_10
REMARK    6  A    between atoms: N_10  and  C_11
REMARK    7  A    between atoms: C_14  and  C_15
REMARK                            x       y       z     vdW  Elec       q    Type
REMARK                         _______ _______ _______ _____ _____    ______ ____
ROOT
ATOM      1  C   UNL     1      43.733   3.568  12.062  0.00  0.00    +0.000 C 
ENDROOT
BRANCH   1   2
ATOM      2  N   UNL     1      43.327   3.181  10.706  0.00  0.00    +0.000 N 
ATOM      3  H   UNL     1      42.564   3.756  10.351  0.00  0.00    +0.000 HD
BRANCH   2   4
ATOM      4  C   UNL     1      44.358   3.046   9.757  0.00  0.00    +0.000 A 
ATOM      5  C   UNL     1      44.891   1.809   9.377  0.00  0.00    +0.000 A 
ATOM      6  C   UNL     1      45.872   1.725   8.392  0.00  0.00    +0.000 A 
ATOM      7  C   UNL     1      46.285   2.893   7.772  0.00  0.00    +0.000 A 
ATOM      8  N   UNL     1      45.771   4.120   8.059  0.00  0.00    +0.000 NA
ATOM      9  C   UNL     1      44.814   4.151   9.024  0.00  0.00    +0.000 A 
BRANCH   7  10
ATOM     10  C   UNL     1      47.343   2.824   6.716  0.00  0.00    +0.000 C 
ATOM     11  N   UNL     1      47.123   3.598   5.610  0.00  0.00    +0.000 N 
ATOM     12  O   UNL     1      48.341   2.122   6.823  0.00  0.00    +0.000 OA
ATOM     13  H   UNL     1      46.275   4.149   5.550  0.00  0.00    +0.000 HD
ATOM     14  H   UNL     1      47.788   3.584   4.852  0.00  0.00    +0.000 HD
ENDBRANCH   7  10
ENDBRANCH   2   4
ENDBRANCH   1   2
BRANCH   1  15
ATOM     15  C   UNL     1      43.111   4.902  12.493  0.00  0.00    +0.000 C 
BRANCH  15  20
ATOM     16  C   UNL     1      46.410   6.776  13.038  0.00  0.00    +0.000 A 
ATOM     17  C   UNL     1      46.228   7.841  12.133  0.00  0.00    +0.000 A 
ATOM     18  C   UNL     1      45.049   7.983  11.397  0.00  0.00    +0.000 A 
ATOM     19  C   UNL     1      44.023   7.054  11.536  0.00  0.00    +0.000 A 
ATOM     20  C   UNL     1      44.161   5.990  12.433  0.00  0.00    +0.000 A 
ATOM     21  C   UNL     1      45.343   5.874  13.190  0.00  0.00    +0.000 A 
BRANCH  16  23
ATOM     22  C   UNL     1      47.777   5.233  14.452  0.00  0.00    +0.000 C 
ATOM     23  C   UNL     1      47.774   6.594  13.729  0.00  0.00    +0.000 C 
ATOM     24  C   UNL     1      48.928   6.715  12.728  0.00  0.00    +0.000 C 
ATOM     25  C   UNL     1      49.368   8.169  12.815  0.00  0.00    +0.000 C 
ATOM     26  O   UNL     1      48.737   8.755  13.959  0.00  0.00    +0.000 OA
ATOM     27  C   UNL     1      48.184   7.685  14.731  0.00  0.00    +0.000 C 
ENDBRANCH  16  23
ENDBRANCH  15  20
ENDBRANCH   1  15
TORSDOF 6
ENDMDL
MODEL 9
REMARK VINA RESULT:    -6.184      3.732      5.629
REMARK INTER + INTRA:          -9.342
REMARK INTER:                  -8.618
REMARK INTRA:                  -0.724
REMARK UNBOUND:                -0.988
REMARK  Name = 
REMARK  7 active torsions:
REMARK  status: ('A' for Active; 'I' for Inactive)
REMARK    1  A    between atoms: C_1  and  C_2
REMARK    2  A    between atoms: C_2  and  C_3
REMARK    3  A    between atoms: C_7  and  C_8
REMARK    4  A    between atoms: C_8  and  C_9
REMARK    5  A    between atoms: C_9  and  N_10
REMARK    6  A    between atoms: N_10  and  C_11
REMARK    7  A    between atoms: C_14  and  C_15
REMARK                            x       y       z     vdW  Elec       q    Type
REMARK                         _______ _______ _______ _____ _____    ______ ____
ROOT
ATOM      1  C   UNL     1      48.588   6.858  13.375  0.00  0.00    +0.000 C 
ENDROOT
BRANCH   1   2
ATOM      2  N   UNL     1      47.136   6.997  13.533  0.00  0.00    +0.000 N 
ATOM      3  H   UNL     1      46.815   7.946  13.345  0.00  0.00    +0.000 HD
BRANCH   2   4
ATOM      4  C   UNL     1      46.340   6.041  12.875  0.00  0.00    +0.000 A 
ATOM      5  C   UNL     1      45.993   6.135  11.522  0.00  0.00    +0.000 A 
ATOM      6  C   UNL     1      45.249   5.133  10.903  0.00  0.00    +0.000 A 
ATOM      7  C   UNL     1      44.888   4.024  11.650  0.00  0.00    +0.000 A 
ATOM      8  N   UNL     1      45.236   3.849  12.954  0.00  0.00    +0.000 NA
ATOM      9  C   UNL     1      45.965   4.851  13.513  0.00  0.00    +0.000 A 
BRANCH   7  10
ATOM     10  C   UNL     1      44.082   2.940  11.005  0.00  0.00    +0.000 C 
ATOM     11  N   UNL     1      44.669   2.331   9.930  0.00  0.00    +0.000 N 
ATOM     12  O   UNL     1      42.970   2.616  11.403  0.00  0.00    +0.000 OA
ATOM     13  H   UNL     1      45.581   2.642   9.619  0.00  0.00    +0.000 HD
ATOM     14  H   UNL     1      44.172   1.605   9.436  0.00  0.00    +0.000 HD
ENDBRANCH   7  10
ENDBRANCH   2   4
ENDBRANCH   1   2
BRANCH   1  15
ATOM     15  C   UNL     1      49.362   7.858  14.244  0.00  0.00    +0.000 C 
BRANCH  15  20
ATOM     16  C   UNL     1      49.728   5.496  17.242  0.00  0.00    +0.000 A 
ATOM     17  C   UNL     1      51.123   5.572  17.432  0.00  0.00    +0.000 A 
ATOM     18  C   UNL     1      51.925   6.401  16.645  0.00  0.00    +0.000 A 
ATOM     19  C   UNL     1      51.356   7.169  15.635  0.00  0.00    +0.000 A 
ATOM     20  C   UNL     1      49.974   7.132  15.423  0.00  0.00    +0.000 A 
ATOM     21  C   UNL     1      49.173   6.312  16.242  0.00  0.00    +0.000 A 
BRANCH  16  23
ATOM     22  C   UNL     1      49.357   3.057  17.645  0.00  0.00    +0.000 C 
ATOM     23  C   UNL     1      48.907   4.474  18.049  0.00  0.00    +0.000 C 
ATOM     24  C   UNL     1      49.048   4.712  19.557  0.00  0.00    +0.000 C 
ATOM     25  C   UNL     1      47.852   5.579  19.927  0.00  0.00    +0.000 C 
ATOM     26  O   UNL     1      46.953   5.592  18.814  0.00  0.00    +0.000 OA
ATOM     27  C   UNL     1      47.379   4.564  17.914  0.00  0.00    +0.000 C 
ENDBRANCH  16  23
ENDBRANCH  15  20
ENDBRANCH   1  15
TORSDOF 6
ENDMDL
