MODEL 1
REMARK VINA RESULT:    -7.872      0.000      0.000
REMARK INTER + INTRA:         -11.692
REMARK INTER:                 -11.094
REMARK INTRA:                  -0.598
REMARK UNBOUND:                -0.598
REMARK  Name = 
REMARK  8 active torsions:
REMARK  status: ('A' for Active; 'I' for Inactive)
REMARK    1  A    between atoms: C_1  and  O_2
REMARK    2  A    between atoms: O_2  and  C_3
REMARK    3  A    between atoms: C_5  and  C_6
REMARK    4  A    between atoms: C_11  and  N_12
REMARK    5  A    between atoms: N_12  and  C_13
REMARK    6  A    between atoms: C_13  and  C_14
REMARK    7  A    between atoms: C_17  and  O_18
REMARK    8  A    between atoms: O_18  and  C_19
REMARK                            x       y       z     vdW  Elec       q    Type
REMARK                         _______ _______ _______ _____ _____    ______ ____
ROOT
ATOM      1  N   UNL     1      43.618   5.108   9.799  0.00  0.00    +0.000 N 
ATOM      2  H   UNL     1      42.674   4.897   9.479  0.00  0.00    +0.000 HD
ENDROOT
BRANCH   1   8
ATOM      3  C   UNL     1      44.337   2.799   9.606  0.00  0.00    +0.000 A 
ATOM      4  C   UNL     1      45.197   1.849   9.048  0.00  0.00    +0.000 A 
ATOM      5  C   UNL     1      46.169   2.251   8.122  0.00  0.00    +0.000 A 
ATOM      6  C   UNL     1      46.218   3.589   7.782  0.00  0.00    +0.000 A 
ATOM      7  N   UNL     1      45.405   4.526   8.308  0.00  0.00    +0.000 NA
ATOM      8  C   UNL     1      44.492   4.151   9.228  0.00  0.00    +0.000 A 
BRANCH   5   9
ATOM      9  C   UNL     1      47.101   1.254   7.545  0.00  0.00    +0.000 C 
ATOM     10  N   UNL     1      48.213   1.682   6.882  0.00  0.00    +0.000 N 
ATOM     11  O   UNL     1      46.883   0.056   7.672  0.00  0.00    +0.000 OA
ATOM     12  H   UNL     1      48.507   2.637   6.753  0.00  0.00    +0.000 HD
ATOM     13  H   UNL     1      48.834   0.961   6.533  0.00  0.00    +0.000 HD
ENDBRANCH   5   9
BRANCH   3  15
ATOM     14  C   UNL     1      43.647   1.958  11.755  0.00  0.00    +0.000 C 
ATOM     15  O   UNL     1      43.328   2.542  10.500  0.00  0.00    +0.000 OA
ENDBRANCH   3  15
ENDBRANCH   1   8
BRANCH   1  16
ATOM     16  C   UNL     1      43.711   5.648  11.170  0.00  0.00    +0.000 C 
ATOM     17  C   UNL     1      42.697   5.246  12.231  0.00  0.00    +0.000 C 
ATOM     18  C   UNL     1      42.739   6.663  11.745  0.00  0.00    +0.000 C 
BRANCH  16  19
ATOM     19  C   UNL     1      45.157   5.710  11.656  0.00  0.00    +0.000 A 
ATOM     20  C   UNL     1      46.056   6.680  11.185  0.00  0.00    +0.000 A 
ATOM     21  C   UNL     1      47.314   6.841  11.768  0.00  0.00    +0.000 A 
ATOM     22  C   UNL     1      47.690   6.040  12.845  0.00  0.00    +0.000 A 
ATOM     23  C   UNL     1      46.870   4.982  13.229  0.00  0.00    +0.000 A 
ATOM     24  C   UNL     1      45.616   4.820  12.639  0.00  0.00    +0.000 A 
BRANCH  22  25
ATOM     25  O   UNL     1      48.846   6.174  13.548  0.00  0.00    +0.000 OA
BRANCH  25  26
ATOM     26  C   UNL     1      48.784   6.823  14.815  0.00  0.00    +0.000 C 
ATOM     27  F   UNL     1      48.354   6.042  15.829  0.00  0.00    +0.000 F 
ATOM     28  F   UNL     1      50.021   7.268  15.137  0.00  0.00    +0.000 F 
ATOM     29  F   UNL     1      47.966   7.895  14.720  0.00  0.00    +0.000 F 
ENDBRANCH  25  26
ENDBRANCH  22  25
ENDBRANCH  16  19
ENDBRANCH   1  16
TORSDOF 7
ENDMDL
MODEL 2
REMARK VINA RESULT:    -7.537      4.456      7.221
REMARK INTER + INTRA:         -11.220
REMARK INTER:                 -10.523
REMARK INTRA:                  -0.696
REMARK UNBOUND:                -0.598
REMARK  Name = 
REMARK  8 active torsions:
REMARK  status: ('A' for Active; 'I' for Inactive)
REMARK    1  A    between atoms: C_1  and  O_2
REMARK    2  A    between atoms: O_2  and  C_3
REMARK    3  A    between atoms: C_5  and  C_6
REMARK    4  A    between atoms: C_11  and  N_12
REMARK    5  A    between atoms: N_12  and  C_13
REMARK    6  A    between atoms: C_13  and  C_14
REMARK    7  A    between atoms: C_17  and  O_18
REMARK    8  A    between atoms: O_18  and  C_19
REMARK                            x       y       z     vdW  Elec       q    Type
REMARK                         _______ _______ _______ _____ _____    ______ ____
ROOT
ATOM      1  N   UNL     1      45.280   5.786  12.196  0.00  0.00    +0.000 N 
ATOM      2  H   UNL     1      45.767   6.399  11.545  0.00  0.00    +0.000 HD
ENDROOT
BRANCH   1   8
ATOM      3  C   UNL     1      47.150   6.496  13.570  0.00  0.00    +0.000 A 
ATOM      4  C   UNL     1      48.007   6.263  14.648  0.00  0.00    +0.000 A 
ATOM      5  C   UNL     1      47.840   5.114  15.434  0.00  0.00    +0.000 A 
ATOM      6  C   UNL     1      46.802   4.262  15.111  0.00  0.00    +0.000 A 
ATOM      7  N   UNL     1      45.964   4.459  14.074  0.00  0.00    +0.000 NA
ATOM      8  C   UNL     1      46.144   5.544  13.292  0.00  0.00    +0.000 A 
BRANCH   5   9
ATOM      9  C   UNL     1      48.760   4.847  16.564  0.00  0.00    +0.000 C 
ATOM     10  N   UNL     1      48.921   5.792  17.534  0.00  0.00    +0.000 N 
ATOM     11  O   UNL     1      49.363   3.783  16.634  0.00  0.00    +0.000 OA
ATOM     12  H   UNL     1      48.449   6.680  17.594  0.00  0.00    +0.000 HD
ATOM     13  H   UNL     1      49.538   5.549  18.301  0.00  0.00    +0.000 HD
ENDBRANCH   5   9
BRANCH   3  15
ATOM     14  C   UNL     1      48.351   7.833  11.967  0.00  0.00    +0.000 C 
ATOM     15  O   UNL     1      47.184   7.587  12.738  0.00  0.00    +0.000 OA
ENDBRANCH   3  15
ENDBRANCH   1   8
BRANCH   1  16
ATOM     16  C   UNL     1      44.383   4.793  11.573  0.00  0.00    +0.000 C 
ATOM     17  C   UNL     1      42.880   5.024  11.533  0.00  0.00    +0.000 C 
ATOM     18  C   UNL     1      43.435   3.903  12.357  0.00  0.00    +0.000 C 
BRANCH  16  19
ATOM     19  C   UNL     1      44.978   4.222  10.288  0.00  0.00    +0.000 A 
ATOM     20  C   UNL     1      44.859   2.863   9.956  0.00  0.00    +0.000 A 
ATOM     21  C   UNL     1      45.244   2.390   8.701  0.00  0.00    +0.000 A 
ATOM     22  C   UNL     1      45.745   3.275   7.748  0.00  0.00    +0.000 A 
ATOM     23  C   UNL     1      46.002   4.595   8.109  0.00  0.00    +0.000 A 
ATOM     24  C   UNL     1      45.622   5.063   9.367  0.00  0.00    +0.000 A 
BRANCH  22  25
ATOM     25  O   UNL     1      46.059   2.943   6.467  0.00  0.00    +0.000 OA
BRANCH  25  26
ATOM     26  C   UNL     1      47.256   2.204   6.243  0.00  0.00    +0.000 C 
ATOM     27  F   UNL     1      48.250   2.463   7.120  0.00  0.00    +0.000 F 
ATOM     28  F   UNL     1      46.973   0.883   6.324  0.00  0.00    +0.000 F 
ATOM     29  F   UNL     1      47.704   2.460   4.995  0.00  0.00    +0.000 F 
ENDBRANCH  25  26
ENDBRANCH  22  25
ENDBRANCH  16  19
ENDBRANCH   1  16
TORSDOF 7
ENDMDL
MODEL 3
REMARK VINA RESULT:    -7.531      4.403      7.074
REMARK INTER + INTRA:         -11.211
REMARK INTER:                 -10.699
REMARK INTRA:                  -0.512
REMARK UNBOUND:                -0.598
REMARK  Name = 
REMARK  8 active torsions:
REMARK  status: ('A' for Active; 'I' for Inactive)
REMARK    1  A    between atoms: C_1  and  O_2
REMARK    2  A    between atoms: O_2  and  C_3
REMARK    3  A    between atoms: C_5  and  C_6
REMARK    4  A    between atoms: C_11  and  N_12
REMARK    5  A    between atoms: N_12  and  C_13
REMARK    6  A    between atoms: C_13  and  C_14
REMARK    7  A    between atoms: C_17  and  O_18
REMARK    8  A    between atoms: O_18  and  C_19
REMARK                            x       y       z     vdW  Elec       q    Type
REMARK                         _______ _______ _______ _____ _____    ______ ____
ROOT
ATOM      1  N   UNL     1      45.991   3.970  13.131  0.00  0.00    +0.000 N 
ATOM      2  H   UNL     1      45.951   3.198  13.794  0.00  0.00    +0.000 HD
ENDROOT
BRANCH   1   8
ATOM      3  C   UNL     1      47.332   4.818  14.966  0.00  0.00    +0.000 A 
ATOM      4  C   UNL     1      48.263   5.740  15.450  0.00  0.00    +0.000 A 
ATOM      5  C   UNL     1      48.793   6.710  14.588  0.00  0.00    +0.000 A 
ATOM      6  C   UNL     1      48.378   6.694  13.271  0.00  0.00    +0.000 A 
ATOM      7  N   UNL     1      47.477   5.820  12.779  0.00  0.00    +0.000 NA
ATOM      8  C   UNL     1      46.936   4.908  13.614  0.00  0.00    +0.000 A 
BRANCH   5   9
ATOM      9  C   UNL     1      49.762   7.708  15.100  0.00  0.00    +0.000 C 
ATOM     10  N   UNL     1      51.091   7.401  15.120  0.00  0.00    +0.000 N 
ATOM     11  O   UNL     1      49.377   8.802  15.490  0.00  0.00    +0.000 OA
ATOM     12  H   UNL     1      51.518   6.550  14.790  0.00  0.00    +0.000 HD
ATOM     13  H   UNL     1      51.715   8.128  15.450  0.00  0.00    +0.000 HD
ENDBRANCH   5   9
BRANCH   3  15
ATOM     14  C   UNL     1      47.173   3.584  17.029  0.00  0.00    +0.000 C 
ATOM     15  O   UNL     1      46.755   3.804  15.690  0.00  0.00    +0.000 OA
ENDBRANCH   3  15
ENDBRANCH   1   8
BRANCH   1  16
ATOM     16  C   UNL     1      44.710   4.301  12.474  0.00  0.00    +0.000 C 
ATOM     17  C   UNL     1      43.887   5.494  12.937  0.00  0.00    +0.000 C 
ATOM     18  C   UNL     1      43.353   4.106  13.126  0.00  0.00    +0.000 C 
BRANCH  16  19
ATOM     19  C   UNL     1      44.791   4.127  10.959  0.00  0.00    +0.000 A 
ATOM     20  C   UNL     1      45.392   5.090  10.133  0.00  0.00    +0.000 A 
ATOM     21  C   UNL     1      45.622   4.838   8.780  0.00  0.00    +0.000 A 
ATOM     22  C   UNL     1      45.265   3.608   8.231  0.00  0.00    +0.000 A 
ATOM     23  C   UNL     1      44.541   2.700   8.999  0.00  0.00    +0.000 A 
ATOM     24  C   UNL     1      44.307   2.959  10.351  0.00  0.00    +0.000 A 
BRANCH  22  25
ATOM     25  O   UNL     1      45.528   3.219   6.954  0.00  0.00    +0.000 OA
BRANCH  25  26
ATOM     26  C   UNL     1      46.791   2.615   6.689  0.00  0.00    +0.000 C 
ATOM     27  F   UNL     1      47.846   3.247   7.245  0.00  0.00    +0.000 F 
ATOM     28  F   UNL     1      46.776   1.349   7.165  0.00  0.00    +0.000 F 
ATOM     29  F   UNL     1      46.978   2.558   5.352  0.00  0.00    +0.000 F 
ENDBRANCH  25  26
ENDBRANCH  22  25
ENDBRANCH  16  19
ENDBRANCH   1  16
TORSDOF 7
ENDMDL
MODEL 4
REMARK VINA RESULT:    -7.359      4.387      7.202
REMARK INTER + INTRA:         -10.969
REMARK INTER:                 -10.338
REMARK INTRA:                  -0.631
REMARK UNBOUND:                -0.598
REMARK  Name = 
REMARK  8 active torsions:
REMARK  status: ('A' for Active; 'I' for Inactive)
REMARK    1  A    between atoms: C_1  and  O_2
REMARK    2  A    between atoms: O_2  and  C_3
REMARK    3  A    between atoms: C_5  and  C_6
REMARK    4  A    between atoms: C_11  and  N_12
REMARK    5  A    between atoms: N_12  and  C_13
REMARK    6  A    between atoms: C_13  and  C_14
REMARK    7  A    between atoms: C_17  and  O_18
REMARK    8  A    between atoms: O_18  and  C_19
REMARK                            x       y       z     vdW  Elec       q    Type
REMARK                         _______ _______ _______ _____ _____    ______ ____
ROOT
ATOM      1  N   UNL     1      44.810   6.417  11.589  0.00  0.00    +0.000 N 
ATOM      2  H   UNL     1      44.872   7.026  10.775  0.00  0.00    +0.000 HD
ENDROOT
BRANCH   1   8
ATOM      3  C   UNL     1      46.117   7.992  12.892  0.00  0.00    +0.000 A 
ATOM      4  C   UNL     1      47.225   8.256  13.701  0.00  0.00    +0.000 A 
ATOM      5  C   UNL     1      48.108   7.219  14.031  0.00  0.00    +0.000 A 
ATOM      6  C   UNL     1      47.824   5.957  13.547  0.00  0.00    +0.000 A 
ATOM      7  N   UNL     1      46.767   5.675  12.760  0.00  0.00    +0.000 NA
ATOM      8  C   UNL     1      45.934   6.677  12.410  0.00  0.00    +0.000 A 
BRANCH   5   9
ATOM      9  C   UNL     1      49.299   7.496  14.868  0.00  0.00    +0.000 C 
ATOM     10  N   UNL     1      50.534   7.518  14.289  0.00  0.00    +0.000 N 
ATOM     11  O   UNL     1      49.177   7.716  16.066  0.00  0.00    +0.000 OA
ATOM     12  H   UNL     1      50.743   7.390  13.312  0.00  0.00    +0.000 HD
ATOM     13  H   UNL     1      51.312   7.742  14.899  0.00  0.00    +0.000 HD
ENDBRANCH   5   9
BRANCH   3  15
ATOM     14  C   UNL     1      45.570  10.138  11.944  0.00  0.00    +0.000 C 
ATOM     15  O   UNL     1      45.162   8.903  12.515  0.00  0.00    +0.000 OA
ENDBRANCH   3  15
ENDBRANCH   1   8
BRANCH   1  16
ATOM     16  C   UNL     1      44.219   5.088  11.336  0.00  0.00    +0.000 C 
ATOM     17  C   UNL     1      42.721   4.865  11.488  0.00  0.00    +0.000 C 
ATOM     18  C   UNL     1      43.671   4.187  12.429  0.00  0.00    +0.000 C 
BRANCH  16  19
ATOM     19  C   UNL     1      44.848   4.412  10.121  0.00  0.00    +0.000 A 
ATOM     20  C   UNL     1      44.604   3.064   9.813  0.00  0.00    +0.000 A 
ATOM     21  C   UNL     1      45.034   2.509   8.607  0.00  0.00    +0.000 A 
ATOM     22  C   UNL     1      45.707   3.301   7.678  0.00  0.00    +0.000 A 
ATOM     23  C   UNL     1      46.081   4.596   8.027  0.00  0.00    +0.000 A 
ATOM     24  C   UNL     1      45.655   5.145   9.237  0.00  0.00    +0.000 A 
BRANCH  22  25
ATOM     25  O   UNL     1      46.084   2.894   6.436  0.00  0.00    +0.000 OA
BRANCH  25  26
ATOM     26  C   UNL     1      47.258   2.094   6.325  0.00  0.00    +0.000 C 
ATOM     27  F   UNL     1      47.905   2.205   5.145  0.00  0.00    +0.000 F 
ATOM     28  F   UNL     1      48.123   2.454   7.300  0.00  0.00    +0.000 F 
ATOM     29  F   UNL     1      46.927   0.798   6.516  0.00  0.00    +0.000 F 
ENDBRANCH  25  26
ENDBRANCH  22  25
ENDBRANCH  16  19
ENDBRANCH   1  16
TORSDOF 7
ENDMDL
MODEL 5
REMARK VINA RESULT:    -7.233      1.599      2.224
REMARK INTER + INTRA:         -10.792
REMARK INTER:                  -9.878
REMARK INTRA:                  -0.914
REMARK UNBOUND:                -0.598
REMARK  Name = 
REMARK  8 active torsions:
REMARK  status: ('A' for Active; 'I' for Inactive)
REMARK    1  A    between atoms: C_1  and  O_2
REMARK    2  A    between atoms: O_2  and  C_3
REMARK    3  A    between atoms: C_5  and  C_6
REMARK    4  A    between atoms: C_11  and  N_12
REMARK    5  A    between atoms: N_12  and  C_13
REMARK    6  A    between atoms: C_13  and  C_14
REMARK    7  A    between atoms: C_17  and  O_18
REMARK    8  A    between atoms: O_18  and  C_19
REMARK                            x       y       z     vdW  Elec       q    Type
REMARK                         _______ _______ _______ _____ _____    ______ ____
ROOT
ATOM      1  N   UNL     1      44.092   5.569  10.254  0.00  0.00    +0.000 N 
ATOM      2  H   UNL     1      43.159   5.242  10.494  0.00  0.00    +0.000 HD
ENDROOT
BRANCH   1   8
ATOM      3  C   UNL     1      44.338   3.193   9.828  0.00  0.00    +0.000 A 
ATOM      4  C   UNL     1      44.992   2.151   9.166  0.00  0.00    +0.000 A 
ATOM      5  C   UNL     1      46.025   2.440   8.264  0.00  0.00    +0.000 A 
ATOM      6  C   UNL     1      46.339   3.769   8.052  0.00  0.00    +0.000 A 
ATOM      7  N   UNL     1      45.729   4.793   8.681  0.00  0.00    +0.000 NA
ATOM      8  C   UNL     1      44.759   4.518   9.578  0.00  0.00    +0.000 A 
BRANCH   5   9
ATOM      9  C   UNL     1      46.740   1.340   7.577  0.00  0.00    +0.000 C 
ATOM     10  N   UNL     1      47.590   1.631   6.550  0.00  0.00    +0.000 N 
ATOM     11  O   UNL     1      46.582   0.179   7.934  0.00  0.00    +0.000 OA
ATOM     12  H   UNL     1      47.822   2.548   6.203  0.00  0.00    +0.000 HD
ATOM     13  H   UNL     1      48.078   0.846   6.134  0.00  0.00    +0.000 HD
ENDBRANCH   5   9
BRANCH   3  15
ATOM     14  C   UNL     1      43.404   2.106  11.763  0.00  0.00    +0.000 C 
ATOM     15  O   UNL     1      43.298   3.056  10.712  0.00  0.00    +0.000 OA
ENDBRANCH   3  15
ENDBRANCH   1   8
BRANCH   1  16
ATOM     16  C   UNL     1      44.707   6.489  11.232  0.00  0.00    +0.000 C 
ATOM     17  C   UNL     1      43.972   7.740  11.688  0.00  0.00    +0.000 C 
ATOM     18  C   UNL     1      45.227   7.871  10.880  0.00  0.00    +0.000 C 
BRANCH  16  19
ATOM     19  C   UNL     1      45.430   5.731  12.343  0.00  0.00    +0.000 A 
ATOM     20  C   UNL     1      44.759   4.829  13.183  0.00  0.00    +0.000 A 
ATOM     21  C   UNL     1      45.460   4.009  14.069  0.00  0.00    +0.000 A 
ATOM     22  C   UNL     1      46.851   4.070  14.121  0.00  0.00    +0.000 A 
ATOM     23  C   UNL     1      47.520   5.056  13.400  0.00  0.00    +0.000 A 
ATOM     24  C   UNL     1      46.815   5.878  12.520  0.00  0.00    +0.000 A 
BRANCH  22  25
ATOM     25  O   UNL     1      47.639   3.255  14.872  0.00  0.00    +0.000 OA
BRANCH  25  26
ATOM     26  C   UNL     1      47.763   3.542  16.262  0.00  0.00    +0.000 C 
ATOM     27  F   UNL     1      48.126   2.489  17.025  0.00  0.00    +0.000 F 
ATOM     28  F   UNL     1      48.696   4.508  16.425  0.00  0.00    +0.000 F 
ATOM     29  F   UNL     1      46.584   4.019  16.719  0.00  0.00    +0.000 F 
ENDBRANCH  25  26
ENDBRANCH  22  25
ENDBRANCH  16  19
ENDBRANCH   1  16
TORSDOF 7
ENDMDL
MODEL 6
REMARK VINA RESULT:    -6.658      5.083      7.717
REMARK INTER + INTRA:          -9.980
REMARK INTER:                  -9.379
REMARK INTRA:                  -0.601
REMARK UNBOUND:                -0.598
REMARK  Name = 
REMARK  8 active torsions:
REMARK  status: ('A' for Active; 'I' for Inactive)
REMARK    1  A    between atoms: C_1  and  O_2
REMARK    2  A    between atoms: O_2  and  C_3
REMARK    3  A    between atoms: C_5  and  C_6
REMARK    4  A    between atoms: C_11  and  N_12
REMARK    5  A    between atoms: N_12  and  C_13
REMARK    6  A    between atoms: C_13  and  C_14
REMARK    7  A    between atoms: C_17  and  O_18
REMARK    8  A    between atoms: O_18  and  C_19
REMARK                            x       y       z     vdW  Elec       q    Type
REMARK                         _______ _______ _______ _____ _____    ______ ____
ROOT
ATOM      1  N   UNL     1      46.815   4.998  15.145  0.00  0.00    +0.000 N 
ATOM      2  H   UNL     1      46.328   5.531  15.864  0.00  0.00    +0.000 HD
ENDROOT
BRANCH   1   8
ATOM      3  C   UNL     1      48.718   4.924  16.649  0.00  0.00    +0.000 A 
ATOM      4  C   UNL     1      49.726   4.189  17.277  0.00  0.00    +0.000 A 
ATOM      5  C   UNL     1      49.825   2.809  17.051  0.00  0.00    +0.000 A 
ATOM      6  C   UNL     1      48.889   2.227  16.218  0.00  0.00    +0.000 A 
ATOM      7  N   UNL     1      47.910   2.912  15.595  0.00  0.00    +0.000 NA
ATOM      8  C   UNL     1      47.834   4.246  15.780  0.00  0.00    +0.000 A 
BRANCH   5   9
ATOM      9  C   UNL     1      50.907   2.028  17.694  0.00  0.00    +0.000 C 
ATOM     10  N   UNL     1      51.807   2.664  18.498  0.00  0.00    +0.000 N 
ATOM     11  O   UNL     1      50.987   0.819  17.517  0.00  0.00    +0.000 OA
ATOM     12  H   UNL     1      51.811   3.642  18.740  0.00  0.00    +0.000 HD
ATOM     13  H   UNL     1      52.508   2.080  18.938  0.00  0.00    +0.000 HD
ENDBRANCH   5   9
BRANCH   3  15
ATOM     14  C   UNL     1      49.545   7.102  17.258  0.00  0.00    +0.000 C 
ATOM     15  O   UNL     1      48.490   6.269  16.800  0.00  0.00    +0.000 OA
ENDBRANCH   3  15
ENDBRANCH   1   8
BRANCH   1  16
ATOM     16  C   UNL     1      46.932   5.670  13.836  0.00  0.00    +0.000 C 
ATOM     17  C   UNL     1      48.296   6.044  13.275  0.00  0.00    +0.000 C 
ATOM     18  C   UNL     1      47.334   7.125  13.666  0.00  0.00    +0.000 C 
BRANCH  16  19
ATOM     19  C   UNL     1      45.956   5.090  12.814  0.00  0.00    +0.000 A 
ATOM     20  C   UNL     1      45.434   5.864  11.766  0.00  0.00    +0.000 A 
ATOM     21  C   UNL     1      44.692   5.280  10.738  0.00  0.00    +0.000 A 
ATOM     22  C   UNL     1      44.470   3.905  10.734  0.00  0.00    +0.000 A 
ATOM     23  C   UNL     1      44.857   3.147  11.837  0.00  0.00    +0.000 A 
ATOM     24  C   UNL     1      45.593   3.736  12.866  0.00  0.00    +0.000 A 
BRANCH  22  25
ATOM     25  O   UNL     1      43.848   3.219   9.739  0.00  0.00    +0.000 OA
BRANCH  25  26
ATOM     26  C   UNL     1      44.662   2.575   8.763  0.00  0.00    +0.000 C 
ATOM     27  F   UNL     1      45.991   2.733   8.945  0.00  0.00    +0.000 F 
ATOM     28  F   UNL     1      44.401   1.248   8.784  0.00  0.00    +0.000 F 
ATOM     29  F   UNL     1      44.336   3.046   7.538  0.00  0.00    +0.000 F 
ENDBRANCH  25  26
ENDBRANCH  22  25
ENDBRANCH  16  19
ENDBRANCH   1  16
TORSDOF 7
ENDMDL
MODEL 7
REMARK VINA RESULT:    -6.543      4.519      7.632
REMARK INTER + INTRA:          -9.819
REMARK INTER:                  -9.086
REMARK INTRA:                  -0.733
REMARK UNBOUND:                -0.598
REMARK  Name = 
REMARK  8 active torsions:
REMARK  status: ('A' for Active; 'I' for Inactive)
REMARK    1  A    between atoms: C_1  and  O_2
REMARK    2  A    between atoms: O_2  and  C_3
REMARK    3  A    between atoms: C_5  and  C_6
REMARK    4  A    between atoms: C_11  and  N_12
REMARK    5  A    between atoms: N_12  and  C_13
REMARK    6  A    between atoms: C_13  and  C_14
REMARK    7  A    between atoms: C_17  and  O_18
REMARK    8  A    between atoms: O_18  and  C_19
REMARK                            x       y       z     vdW  Elec       q    Type
REMARK                         _______ _______ _______ _____ _____    ______ ____
ROOT
ATOM      1  N   UNL     1      47.909   6.507  13.183  0.00  0.00    +0.000 N 
ATOM      2  H   UNL     1      48.427   5.918  12.533  0.00  0.00    +0.000 HD
ENDROOT
BRANCH   1   8
ATOM      3  C   UNL     1      48.652   6.630  15.490  0.00  0.00    +0.000 A 
ATOM      4  C   UNL     1      48.741   6.050  16.758  0.00  0.00    +0.000 A 
ATOM      5  C   UNL     1      48.164   4.794  16.990  0.00  0.00    +0.000 A 
ATOM      6  C   UNL     1      47.504   4.188  15.939  0.00  0.00    +0.000 A 
ATOM      7  N   UNL     1      47.408   4.721  14.705  0.00  0.00    +0.000 NA
ATOM      8  C   UNL     1      47.994   5.913  14.466  0.00  0.00    +0.000 A 
BRANCH   5   9
ATOM      9  C   UNL     1      48.276   4.162  18.324  0.00  0.00    +0.000 C 
ATOM     10  N   UNL     1      47.809   4.824  19.421  0.00  0.00    +0.000 N 
ATOM     11  O   UNL     1      48.771   3.048  18.443  0.00  0.00    +0.000 OA
ATOM     12  H   UNL     1      47.352   5.722  19.432  0.00  0.00    +0.000 HD
ATOM     13  H   UNL     1      47.880   4.336  20.306  0.00  0.00    +0.000 HD
ENDBRANCH   5   9
BRANCH   3  15
ATOM     14  C   UNL     1      48.667   9.019  15.797  0.00  0.00    +0.000 C 
ATOM     15  O   UNL     1      49.147   7.860  15.132  0.00  0.00    +0.000 OA
ENDBRANCH   3  15
ENDBRANCH   1   8
BRANCH   1  16
ATOM     16  C   UNL     1      46.715   7.167  12.619  0.00  0.00    +0.000 C 
ATOM     17  C   UNL     1      46.811   8.563  12.021  0.00  0.00    +0.000 C 
ATOM     18  C   UNL     1      46.015   8.346  13.272  0.00  0.00    +0.000 C 
BRANCH  16  19
ATOM     19  C   UNL     1      45.850   6.189  11.828  0.00  0.00    +0.000 A 
ATOM     20  C   UNL     1      46.004   6.015  10.443  0.00  0.00    +0.000 A 
ATOM     21  C   UNL     1      45.338   4.993   9.765  0.00  0.00    +0.000 A 
ATOM     22  C   UNL     1      44.513   4.116  10.466  0.00  0.00    +0.000 A 
ATOM     23  C   UNL     1      44.238   4.361  11.810  0.00  0.00    +0.000 A 
ATOM     24  C   UNL     1      44.901   5.389  12.482  0.00  0.00    +0.000 A 
BRANCH  22  25
ATOM     25  O   UNL     1      43.894   3.031   9.928  0.00  0.00    +0.000 OA
BRANCH  25  26
ATOM     26  C   UNL     1      44.625   2.241   8.995  0.00  0.00    +0.000 C 
ATOM     27  F   UNL     1      45.932   2.080   9.295  0.00  0.00    +0.000 F 
ATOM     28  F   UNL     1      44.066   1.011   8.934  0.00  0.00    +0.000 F 
ATOM     29  F   UNL     1      44.530   2.806   7.771  0.00  0.00    +0.000 F 
ENDBRANCH  25  26
ENDBRANCH  22  25
ENDBRANCH  16  19
ENDBRANCH   1  16
TORSDOF 7
ENDMDL
MODEL 8
REMARK VINA RESULT:    -6.250      4.828      8.576
REMARK INTER + INTRA:          -9.407
REMARK INTER:                  -8.226
REMARK INTRA:                  -1.181
REMARK UNBOUND:                -0.598
REMARK  Name = 
REMARK  8 active torsions:
REMARK  status: ('A' for Active; 'I' for Inactive)
REMARK    1  A    between atoms: C_1  and  O_2
REMARK    2  A    between atoms: O_2  and  C_3
REMARK    3  A    between atoms: C_5  and  C_6
REMARK    4  A    between atoms: C_11  and  N_12
REMARK    5  A    between atoms: N_12  and  C_13
REMARK    6  A    between atoms: C_13  and  C_14
REMARK    7  A    between atoms: C_17  and  O_18
REMARK    8  A    between atoms: O_18  and  C_19
REMARK                            x       y       z     vdW  Elec       q    Type
REMARK                         _______ _______ _______ _____ _____    ______ ____
ROOT
ATOM      1  N   UNL     1      49.164   7.402  14.288  0.00  0.00    +0.000 N 
ATOM      2  H   UNL     1      49.741   6.570  14.401  0.00  0.00    +0.000 HD
ENDROOT
BRANCH   1   8
ATOM      3  C   UNL     1      48.904   6.926  16.652  0.00  0.00    +0.000 A 
ATOM      4  C   UNL     1      48.512   7.343  17.927  0.00  0.00    +0.000 A 
ATOM      5  C   UNL     1      48.019   8.641  18.113  0.00  0.00    +0.000 A 
ATOM      6  C   UNL     1      47.962   9.470  17.010  0.00  0.00    +0.000 A 
ATOM      7  N   UNL     1      48.327   9.093  15.768  0.00  0.00    +0.000 NA
ATOM      8  C   UNL     1      48.767   7.832  15.577  0.00  0.00    +0.000 A 
BRANCH   5   9
ATOM      9  C   UNL     1      47.579   9.083  19.457  0.00  0.00    +0.000 C 
ATOM     10  N   UNL     1      47.943   8.357  20.554  0.00  0.00    +0.000 N 
ATOM     11  O   UNL     1      46.905  10.097  19.587  0.00  0.00    +0.000 OA
ATOM     12  H   UNL     1      48.524   7.534  20.564  0.00  0.00    +0.000 HD
ATOM     13  H   UNL     1      47.643   8.718  21.452  0.00  0.00    +0.000 HD
ENDBRANCH   5   9
BRANCH   3  15
ATOM     14  C   UNL     1      49.012   4.557  17.072  0.00  0.00    +0.000 C 
ATOM     15  O   UNL     1      49.425   5.697  16.334  0.00  0.00    +0.000 OA
ENDBRANCH   3  15
ENDBRANCH   1   8
BRANCH   1  16
ATOM     16  C   UNL     1      48.319   7.420  13.077  0.00  0.00    +0.000 C 
ATOM     17  C   UNL     1      48.949   7.407  11.692  0.00  0.00    +0.000 C 
ATOM     18  C   UNL     1      48.196   8.619  12.152  0.00  0.00    +0.000 C 
BRANCH  16  19
ATOM     19  C   UNL     1      47.091   6.526  13.231  0.00  0.00    +0.000 A 
ATOM     20  C   UNL     1      45.802   6.974  12.903  0.00  0.00    +0.000 A 
ATOM     21  C   UNL     1      44.718   6.095  12.874  0.00  0.00    +0.000 A 
ATOM     22  C   UNL     1      44.909   4.745  13.162  0.00  0.00    +0.000 A 
ATOM     23  C   UNL     1      46.149   4.313  13.627  0.00  0.00    +0.000 A 
ATOM     24  C   UNL     1      47.229   5.197  13.661  0.00  0.00    +0.000 A 
BRANCH  22  25
ATOM     25  O   UNL     1      43.949   3.786  13.070  0.00  0.00    +0.000 OA
BRANCH  25  26
ATOM     26  C   UNL     1      43.579   3.336  11.770  0.00  0.00    +0.000 C 
ATOM     27  F   UNL     1      43.045   2.096  11.733  0.00  0.00    +0.000 F 
ATOM     28  F   UNL     1      42.663   4.191  11.258  0.00  0.00    +0.000 F 
ATOM     29  F   UNL     1      44.667   3.360  10.969  0.00  0.00    +0.000 F 
ENDBRANCH  25  26
ENDBRANCH  22  25
ENDBRANCH  16  19
ENDBRANCH   1  16
TORSDOF 7
ENDMDL
MODEL 9
REMARK VINA RESULT:    -5.979      2.875      4.969
REMARK INTER + INTRA:          -9.024
REMARK INTER:                  -7.920
REMARK INTRA:                  -1.104
REMARK UNBOUND:                -0.598
REMARK  Name = 
REMARK  8 active torsions:
REMARK  status: ('A' for Active; 'I' for Inactive)
REMARK    1  A    between atoms: C_1  and  O_2
REMARK    2  A    between atoms: O_2  and  C_3
REMARK    3  A    between atoms: C_5  and  C_6
REMARK    4  A    between atoms: C_11  and  N_12
REMARK    5  A    between atoms: N_12  and  C_13
REMARK    6  A    between atoms: C_13  and  C_14
REMARK    7  A    between atoms: C_17  and  O_18
REMARK    8  A    between atoms: O_18  and  C_19
REMARK                            x       y       z     vdW  Elec       q    Type
REMARK                         _______ _______ _______ _____ _____    ______ ____
ROOT
ATOM      1  N   UNL     1      46.394   7.480  13.211  0.00  0.00    +0.000 N 
ATOM      2  H   UNL     1      46.017   7.612  14.148  0.00  0.00    +0.000 HD
ENDROOT
BRANCH   1   8
ATOM      3  C   UNL     1      45.908   5.108  13.371  0.00  0.00    +0.000 A 
ATOM      4  C   UNL     1      45.316   3.962  12.833  0.00  0.00    +0.000 A 
ATOM      5  C   UNL     1      44.609   4.047  11.626  0.00  0.00    +0.000 A 
ATOM      6  C   UNL     1      44.511   5.287  11.025  0.00  0.00    +0.000 A 
ATOM      7  N   UNL     1      45.076   6.406  11.518  0.00  0.00    +0.000 NA
ATOM      8  C   UNL     1      45.790   6.323  12.660  0.00  0.00    +0.000 A 
BRANCH   5   9
ATOM      9  C   UNL     1      43.999   2.832  11.036  0.00  0.00    +0.000 C 
ATOM     10  N   UNL     1      44.589   2.243   9.956  0.00  0.00    +0.000 N 
ATOM     11  O   UNL     1      42.983   2.351  11.520  0.00  0.00    +0.000 OA
ATOM     12  H   UNL     1      45.442   2.531   9.505  0.00  0.00    +0.000 HD
ATOM     13  H   UNL     1      44.151   1.398   9.610  0.00  0.00    +0.000 HD
ENDBRANCH   5   9
BRANCH   3  15
ATOM     14  C   UNL     1      47.222   3.999  15.057  0.00  0.00    +0.000 C 
ATOM     15  O   UNL     1      46.604   5.174  14.552  0.00  0.00    +0.000 OA
ENDBRANCH   3  15
ENDBRANCH   1   8
BRANCH   1  16
ATOM     16  C   UNL     1      47.806   7.877  13.040  0.00  0.00    +0.000 C 
ATOM     17  C   UNL     1      48.199   8.909  11.993  0.00  0.00    +0.000 C 
ATOM     18  C   UNL     1      48.652   7.488  11.840  0.00  0.00    +0.000 C 
BRANCH  16  19
ATOM     19  C   UNL     1      48.518   8.022  14.382  0.00  0.00    +0.000 A 
ATOM     20  C   UNL     1      48.110   8.962  15.341  0.00  0.00    +0.000 A 
ATOM     21  C   UNL     1      48.648   8.961  16.628  0.00  0.00    +0.000 A 
ATOM     22  C   UNL     1      49.600   8.007  16.984  0.00  0.00    +0.000 A 
ATOM     23  C   UNL     1      50.119   7.162  16.006  0.00  0.00    +0.000 A 
ATOM     24  C   UNL     1      49.582   7.170  14.718  0.00  0.00    +0.000 A 
BRANCH  22  25
ATOM     25  O   UNL     1      50.119   7.852  18.231  0.00  0.00    +0.000 OA
BRANCH  25  26
ATOM     26  C   UNL     1      49.346   7.136  19.190  0.00  0.00    +0.000 C 
ATOM     27  F   UNL     1      48.356   6.382  18.667  0.00  0.00    +0.000 F 
ATOM     28  F   UNL     1      50.166   6.311  19.882  0.00  0.00    +0.000 F 
ATOM     29  F   UNL     1      48.805   8.014  20.063  0.00  0.00    +0.000 F 
ENDBRANCH  25  26
ENDBRANCH  22  25
ENDBRANCH  16  19
ENDBRANCH   1  16
TORSDOF 7
ENDMDL
