MODEL 1
REMARK VINA RESULT:    -6.968      0.000      0.000
REMARK INTER + INTRA:         -10.863
REMARK INTER:                  -9.412
REMARK INTRA:                  -1.451
REMARK UNBOUND:                -1.451
REMARK  Name = 
REMARK  7 active torsions:
REMARK  status: ('A' for Active; 'I' for Inactive)
REMARK    1  A    between atoms: C_1  and  C_2
REMARK    2  A    between atoms: C_2  and  N_3
REMARK    3  A    between atoms: C_2  and  C_16
REMARK    4  A    between atoms: C_4  and  C_6
REMARK    5  A    between atoms: C_19  and  C_20
REMARK    6  A    between atoms: C_20  and  N_21
REMARK    7  A    between atoms: C_22  and  C_24
REMARK                            x       y       z     vdW  Elec       q    Type
REMARK                         _______ _______ _______ _____ _____    ______ ____
ROOT
ATOM      1  C   UNL     1      47.559   2.908  17.727  0.00  0.00    +0.000 C 
ATOM      2  C   UNL     1      48.437   4.138  17.447  0.00  0.00    +0.000 C 
ENDROOT
BRANCH   2   3
ATOM      3  C   UNL     1      48.008   4.786  16.135  0.00  0.00    +0.000 A 
ATOM      4  C   UNL     1      47.078   4.156  15.295  0.00  0.00    +0.000 A 
ATOM      5  C   UNL     1      46.754   4.706  14.046  0.00  0.00    +0.000 A 
ATOM      6  C   UNL     1      47.358   5.893  13.609  0.00  0.00    +0.000 A 
ATOM      7  C   UNL     1      48.238   6.553  14.472  0.00  0.00    +0.000 A 
ATOM      8  C   UNL     1      48.557   6.008  15.718  0.00  0.00    +0.000 A 
BRANCH   6   9
ATOM      9  C   UNL     1      47.091   6.450  12.234  0.00  0.00    +0.000 C 
BRANCH   9  10
ATOM     10  N   UNL     1      46.012   5.765  11.561  0.00  0.00    +0.000 N 
ATOM     11  C   UNL     1      44.785   6.365  11.416  0.00  0.00    +0.000 C 
ATOM     12  O   UNL     1      44.541   7.481  11.872  0.00  0.00    +0.000 OA
ATOM     13  H   UNL     1      46.134   4.786  11.326  0.00  0.00    +0.000 HD
BRANCH  11  14
ATOM     14  C   UNL     1      43.688   5.552  10.732  0.00  0.00    +0.000 C 
ATOM     15  C   UNL     1      42.710   4.967  11.725  0.00  0.00    +0.000 C 
ATOM     16  C   UNL     1      43.365   3.660  12.115  0.00  0.00    +0.000 C 
ATOM     17  O   UNL     1      44.222   3.272  11.027  0.00  0.00    +0.000 OA
ATOM     18  C   UNL     1      44.189   4.311  10.029  0.00  0.00    +0.000 C 
ENDBRANCH  11  14
ENDBRANCH   9  10
ENDBRANCH   6   9
ENDBRANCH   2   3
BRANCH   2  19
ATOM     19  N   UNL     1      49.854   3.812  17.404  0.00  0.00    +0.000 N 
ATOM     20  C   UNL     1      50.715   4.145  18.422  0.00  0.00    +0.000 C 
ATOM     21  O   UNL     1      50.342   4.691  19.456  0.00  0.00    +0.000 OA
ATOM     22  H   UNL     1      50.250   3.670  16.478  0.00  0.00    +0.000 HD
BRANCH  20  23
ATOM     23  C   UNL     1      52.118   3.755  18.249  0.00  0.00    +0.000 A 
ATOM     24  C   UNL     1      53.121   4.690  18.464  0.00  0.00    +0.000 A 
ATOM     25  S   UNL     1      54.691   4.079  18.201  0.00  0.00    +0.000 S 
ATOM     26  C   UNL     1      54.079   2.557  17.751  0.00  0.00    +0.000 A 
ATOM     27  N   UNL     1      54.913   1.561  17.345  0.00  0.00    +0.000 NA
ATOM     28  C   UNL     1      54.310   0.473  16.997  0.00  0.00    +0.000 A 
ATOM     29  N   UNL     1      52.952   0.284  17.038  0.00  0.00    +0.000 N 
ATOM     30  C   UNL     1      52.075   1.246  17.482  0.00  0.00    +0.000 A 
ATOM     31  O   UNL     1      50.875   1.025  17.577  0.00  0.00    +0.000 OA
ATOM     32  C   UNL     1      52.700   2.501  17.842  0.00  0.00    +0.000 A 
ATOM     33  H   UNL     1      52.547  -0.603  16.776  0.00  0.00    +0.000 HD
ENDBRANCH  20  23
ENDBRANCH   2  19
TORSDOF 6
ENDMDL
MODEL 2
REMARK VINA RESULT:    -6.836      3.741      8.810
REMARK INTER + INTRA:         -10.684
REMARK INTER:                  -9.326
REMARK INTRA:                  -1.358
REMARK UNBOUND:                -1.451
REMARK  Name = 
REMARK  7 active torsions:
REMARK  status: ('A' for Active; 'I' for Inactive)
REMARK    1  A    between atoms: C_1  and  C_2
REMARK    2  A    between atoms: C_2  and  N_3
REMARK    3  A    between atoms: C_2  and  C_16
REMARK    4  A    between atoms: C_4  and  C_6
REMARK    5  A    between atoms: C_19  and  C_20
REMARK    6  A    between atoms: C_20  and  N_21
REMARK    7  A    between atoms: C_22  and  C_24
REMARK                            x       y       z     vdW  Elec       q    Type
REMARK                         _______ _______ _______ _____ _____    ______ ____
ROOT
ATOM      1  C   UNL     1      49.317   8.630  11.397  0.00  0.00    +0.000 C 
ATOM      2  C   UNL     1      48.046   8.209  12.152  0.00  0.00    +0.000 C 
ENDROOT
BRANCH   2   3
ATOM      3  C   UNL     1      48.386   7.930  13.612  0.00  0.00    +0.000 A 
ATOM      4  C   UNL     1      48.896   8.945  14.435  0.00  0.00    +0.000 A 
ATOM      5  C   UNL     1      49.296   8.666  15.750  0.00  0.00    +0.000 A 
ATOM      6  C   UNL     1      49.201   7.366  16.266  0.00  0.00    +0.000 A 
ATOM      7  C   UNL     1      48.635   6.369  15.467  0.00  0.00    +0.000 A 
ATOM      8  C   UNL     1      48.232   6.647  14.158  0.00  0.00    +0.000 A 
BRANCH   6   9
ATOM      9  C   UNL     1      49.709   7.030  17.644  0.00  0.00    +0.000 C 
BRANCH   9  10
ATOM     10  N   UNL     1      49.371   5.685  18.045  0.00  0.00    +0.000 N 
ATOM     11  C   UNL     1      50.208   4.635  17.755  0.00  0.00    +0.000 C 
ATOM     12  O   UNL     1      51.252   4.785  17.122  0.00  0.00    +0.000 OA
ATOM     13  H   UNL     1      48.442   5.510  18.416  0.00  0.00    +0.000 HD
BRANCH  11  14
ATOM     14  C   UNL     1      49.751   3.241  18.175  0.00  0.00    +0.000 C 
ATOM     15  C   UNL     1      49.643   2.299  16.998  0.00  0.00    +0.000 C 
ATOM     16  C   UNL     1      48.239   2.550  16.491  0.00  0.00    +0.000 C 
ATOM     17  O   UNL     1      47.470   3.050  17.599  0.00  0.00    +0.000 OA
ATOM     18  C   UNL     1      48.346   3.195  18.733  0.00  0.00    +0.000 C 
ENDBRANCH  11  14
ENDBRANCH   9  10
ENDBRANCH   6   9
ENDBRANCH   2   3
BRANCH   2  19
ATOM     19  N   UNL     1      47.406   7.046  11.557  0.00  0.00    +0.000 N 
ATOM     20  C   UNL     1      46.045   6.969  11.378  0.00  0.00    +0.000 C 
ATOM     21  O   UNL     1      45.285   7.890  11.658  0.00  0.00    +0.000 OA
ATOM     22  H   UNL     1      47.924   6.174  11.615  0.00  0.00    +0.000 HD
BRANCH  20  23
ATOM     23  C   UNL     1      45.532   5.739  10.765  0.00  0.00    +0.000 A 
ATOM     24  C   UNL     1      45.716   5.522   9.407  0.00  0.00    +0.000 A 
ATOM     25  S   UNL     1      45.044   4.057   8.853  0.00  0.00    +0.000 S 
ATOM     26  C   UNL     1      44.449   3.684  10.403  0.00  0.00    +0.000 A 
ATOM     27  N   UNL     1      43.712   2.560  10.616  0.00  0.00    +0.000 NA
ATOM     28  C   UNL     1      43.294   2.423  11.831  0.00  0.00    +0.000 A 
ATOM     29  N   UNL     1      43.564   3.295  12.854  0.00  0.00    +0.000 N 
ATOM     30  C   UNL     1      44.340   4.419  12.695  0.00  0.00    +0.000 A 
ATOM     31  O   UNL     1      44.625   5.142  13.641  0.00  0.00    +0.000 OA
ATOM     32  C   UNL     1      44.796   4.641  11.339  0.00  0.00    +0.000 A 
ATOM     33  H   UNL     1      43.228   3.114  13.789  0.00  0.00    +0.000 HD
ENDBRANCH  20  23
ENDBRANCH   2  19
TORSDOF 6
ENDMDL
MODEL 3
REMARK VINA RESULT:    -6.748      3.403      4.404
REMARK INTER + INTRA:         -10.566
REMARK INTER:                  -9.227
REMARK INTRA:                  -1.339
REMARK UNBOUND:                -1.451
REMARK  Name = 
REMARK  7 active torsions:
REMARK  status: ('A' for Active; 'I' for Inactive)
REMARK    1  A    between atoms: C_1  and  C_2
REMARK    2  A    between atoms: C_2  and  N_3
REMARK    3  A    between atoms: C_2  and  C_16
REMARK    4  A    between atoms: C_4  and  C_6
REMARK    5  A    between atoms: C_19  and  C_20
REMARK    6  A    between atoms: C_20  and  N_21
REMARK    7  A    between atoms: C_22  and  C_24
REMARK                            x       y       z     vdW  Elec       q    Type
REMARK                         _______ _______ _______ _____ _____    ______ ____
ROOT
ATOM      1  C   UNL     1      47.942   2.990  15.852  0.00  0.00    +0.000 C 
ATOM      2  C   UNL     1      47.261   4.367  15.891  0.00  0.00    +0.000 C 
ENDROOT
BRANCH   2   3
ATOM      3  C   UNL     1      46.852   4.776  14.480  0.00  0.00    +0.000 A 
ATOM      4  C   UNL     1      47.424   5.900  13.865  0.00  0.00    +0.000 A 
ATOM      5  C   UNL     1      46.981   6.330  12.606  0.00  0.00    +0.000 A 
ATOM      6  C   UNL     1      45.952   5.650  11.939  0.00  0.00    +0.000 A 
ATOM      7  C   UNL     1      45.425   4.495  12.524  0.00  0.00    +0.000 A 
ATOM      8  C   UNL     1      45.870   4.063  13.776  0.00  0.00    +0.000 A 
BRANCH   6   9
ATOM      9  C   UNL     1      45.401   6.150  10.629  0.00  0.00    +0.000 C 
BRANCH   9  10
ATOM     10  N   UNL     1      44.901   5.082   9.796  0.00  0.00    +0.000 N 
ATOM     11  C   UNL     1      45.581   4.697   8.666  0.00  0.00    +0.000 C 
ATOM     12  O   UNL     1      46.613   5.257   8.299  0.00  0.00    +0.000 OA
ATOM     13  H   UNL     1      43.971   4.720   9.980  0.00  0.00    +0.000 HD
BRANCH  11  14
ATOM     14  C   UNL     1      44.956   3.592   7.819  0.00  0.00    +0.000 C 
ATOM     15  C   UNL     1      44.599   2.377   8.643  0.00  0.00    +0.000 C 
ATOM     16  C   UNL     1      45.884   1.578   8.643  0.00  0.00    +0.000 C 
ATOM     17  O   UNL     1      46.620   1.956   7.467  0.00  0.00    +0.000 OA
ATOM     18  C   UNL     1      45.893   3.000   6.790  0.00  0.00    +0.000 C 
ENDBRANCH  11  14
ENDBRANCH   9  10
ENDBRANCH   6   9
ENDBRANCH   2   3
BRANCH   2  19
ATOM     19  N   UNL     1      48.109   5.390  16.482  0.00  0.00    +0.000 N 
ATOM     20  C   UNL     1      48.048   5.712  17.817  0.00  0.00    +0.000 C 
ATOM     21  O   UNL     1      47.316   5.127  18.609  0.00  0.00    +0.000 OA
ATOM     22  H   UNL     1      48.470   6.094  15.843  0.00  0.00    +0.000 HD
BRANCH  20  23
ATOM     23  C   UNL     1      48.961   6.762  18.281  0.00  0.00    +0.000 A 
ATOM     24  C   UNL     1      48.459   7.838  18.999  0.00  0.00    +0.000 A 
ATOM     25  S   UNL     1      49.647   8.976  19.445  0.00  0.00    +0.000 S 
ATOM     26  C   UNL     1      50.866   8.088  18.657  0.00  0.00    +0.000 A 
ATOM     27  N   UNL     1      52.146   8.547  18.610  0.00  0.00    +0.000 NA
ATOM     28  C   UNL     1      52.957   7.791  17.948  0.00  0.00    +0.000 A 
ATOM     29  N   UNL     1      52.609   6.609  17.346  0.00  0.00    +0.000 N 
ATOM     30  C   UNL     1      51.339   6.084  17.405  0.00  0.00    +0.000 A 
ATOM     31  O   UNL     1      51.073   4.992  16.921  0.00  0.00    +0.000 OA
ATOM     32  C   UNL     1      50.382   6.918  18.100  0.00  0.00    +0.000 A 
ATOM     33  H   UNL     1      53.300   6.051  16.865  0.00  0.00    +0.000 HD
ENDBRANCH  20  23
ENDBRANCH   2  19
TORSDOF 6
ENDMDL
MODEL 4
REMARK VINA RESULT:    -6.663      3.763      9.227
REMARK INTER + INTRA:         -10.450
REMARK INTER:                  -8.978
REMARK INTRA:                  -1.472
REMARK UNBOUND:                -1.451
REMARK  Name = 
REMARK  7 active torsions:
REMARK  status: ('A' for Active; 'I' for Inactive)
REMARK    1  A    between atoms: C_1  and  C_2
REMARK    2  A    between atoms: C_2  and  N_3
REMARK    3  A    between atoms: C_2  and  C_16
REMARK    4  A    between atoms: C_4  and  C_6
REMARK    5  A    between atoms: C_19  and  C_20
REMARK    6  A    between atoms: C_20  and  N_21
REMARK    7  A    between atoms: C_22  and  C_24
REMARK                            x       y       z     vdW  Elec       q    Type
REMARK                         _______ _______ _______ _____ _____    ______ ____
ROOT
ATOM      1  C   UNL     1      49.022   7.706  11.351  0.00  0.00    +0.000 C 
ATOM      2  C   UNL     1      47.699   7.664  12.132  0.00  0.00    +0.000 C 
ENDROOT
BRANCH   2   3
ATOM      3  C   UNL     1      47.983   7.779  13.626  0.00  0.00    +0.000 A 
ATOM      4  C   UNL     1      47.941   9.024  14.270  0.00  0.00    +0.000 A 
ATOM      5  C   UNL     1      48.293   9.142  15.623  0.00  0.00    +0.000 A 
ATOM      6  C   UNL     1      48.700   8.019  16.357  0.00  0.00    +0.000 A 
ATOM      7  C   UNL     1      48.682   6.769  15.732  0.00  0.00    +0.000 A 
ATOM      8  C   UNL     1      48.327   6.650  14.386  0.00  0.00    +0.000 A 
BRANCH   6   9
ATOM      9  C   UNL     1      49.168   8.142  17.784  0.00  0.00    +0.000 C 
BRANCH   9  10
ATOM     10  N   UNL     1      49.270   6.863  18.444  0.00  0.00    +0.000 N 
ATOM     11  C   UNL     1      50.489   6.249  18.599  0.00  0.00    +0.000 C 
ATOM     12  O   UNL     1      51.530   6.737  18.161  0.00  0.00    +0.000 OA
ATOM     13  H   UNL     1      48.415   6.362  18.663  0.00  0.00    +0.000 HD
BRANCH  11  14
ATOM     14  C   UNL     1      50.500   4.877  19.267  0.00  0.00    +0.000 C 
ATOM     15  C   UNL     1      50.941   3.785  18.320  0.00  0.00    +0.000 C 
ATOM     16  C   UNL     1      49.649   3.386  17.639  0.00  0.00    +0.000 C 
ATOM     17  O   UNL     1      48.575   3.726  18.533  0.00  0.00    +0.000 OA
ATOM     18  C   UNL     1      49.133   4.384  19.686  0.00  0.00    +0.000 C 
ENDBRANCH  11  14
ENDBRANCH   9  10
ENDBRANCH   6   9
ENDBRANCH   2   3
BRANCH   2  19
ATOM     19  N   UNL     1      46.930   6.460  11.860  0.00  0.00    +0.000 N 
ATOM     20  C   UNL     1      45.556   6.457  11.831  0.00  0.00    +0.000 C 
ATOM     21  O   UNL     1      44.887   7.474  11.979  0.00  0.00    +0.000 OA
ATOM     22  H   UNL     1      47.399   5.579  12.054  0.00  0.00    +0.000 HD
BRANCH  20  23
ATOM     23  C   UNL     1      44.908   5.173  11.544  0.00  0.00    +0.000 A 
ATOM     24  C   UNL     1      44.157   4.549  12.530  0.00  0.00    +0.000 A 
ATOM     25  S   UNL     1      43.490   3.058  12.039  0.00  0.00    +0.000 S 
ATOM     26  C   UNL     1      44.218   3.179  10.506  0.00  0.00    +0.000 A 
ATOM     27  N   UNL     1      44.089   2.180   9.591  0.00  0.00    +0.000 NA
ATOM     28  C   UNL     1      44.725   2.388   8.486  0.00  0.00    +0.000 A 
ATOM     29  N   UNL     1      45.461   3.511   8.206  0.00  0.00    +0.000 N 
ATOM     30  C   UNL     1      45.583   4.564   9.083  0.00  0.00    +0.000 A 
ATOM     31  O   UNL     1      46.185   5.585   8.779  0.00  0.00    +0.000 OA
ATOM     32  C   UNL     1      44.924   4.359  10.355  0.00  0.00    +0.000 A 
ATOM     33  H   UNL     1      45.912   3.622   7.310  0.00  0.00    +0.000 HD
ENDBRANCH  20  23
ENDBRANCH   2  19
TORSDOF 6
ENDMDL
MODEL 5
REMARK VINA RESULT:    -6.605      3.467      5.036
REMARK INTER + INTRA:         -10.373
REMARK INTER:                  -9.167
REMARK INTRA:                  -1.206
REMARK UNBOUND:                -1.451
REMARK  Name = 
REMARK  7 active torsions:
REMARK  status: ('A' for Active; 'I' for Inactive)
REMARK    1  A    between atoms: C_1  and  C_2
REMARK    2  A    between atoms: C_2  and  N_3
REMARK    3  A    between atoms: C_2  and  C_16
REMARK    4  A    between atoms: C_4  and  C_6
REMARK    5  A    between atoms: C_19  and  C_20
REMARK    6  A    between atoms: C_20  and  N_21
REMARK    7  A    between atoms: C_22  and  C_24
REMARK                            x       y       z     vdW  Elec       q    Type
REMARK                         _______ _______ _______ _____ _____    ______ ____
ROOT
ATOM      1  C   UNL     1      48.725   8.914  13.144  0.00  0.00    +0.000 C 
ATOM      2  C   UNL     1      48.517   7.482  13.664  0.00  0.00    +0.000 C 
ENDROOT
BRANCH   2   3
ATOM      3  C   UNL     1      47.335   6.842  12.943  0.00  0.00    +0.000 A 
ATOM      4  C   UNL     1      46.698   7.504  11.883  0.00  0.00    +0.000 A 
ATOM      5  C   UNL     1      45.554   6.958  11.282  0.00  0.00    +0.000 A 
ATOM      6  C   UNL     1      45.020   5.742  11.735  0.00  0.00    +0.000 A 
ATOM      7  C   UNL     1      45.690   5.054  12.749  0.00  0.00    +0.000 A 
ATOM      8  C   UNL     1      46.833   5.595  13.345  0.00  0.00    +0.000 A 
BRANCH   6   9
ATOM      9  C   UNL     1      43.741   5.186  11.163  0.00  0.00    +0.000 C 
BRANCH   9  10
ATOM     10  N   UNL     1      43.948   4.504   9.908  0.00  0.00    +0.000 N 
ATOM     11  C   UNL     1      44.238   3.161   9.880  0.00  0.00    +0.000 C 
ATOM     12  O   UNL     1      44.365   2.496  10.907  0.00  0.00    +0.000 OA
ATOM     13  H   UNL     1      44.017   5.059   9.061  0.00  0.00    +0.000 HD
BRANCH  11  14
ATOM     14  C   UNL     1      44.488   2.529   8.513  0.00  0.00    +0.000 C 
ATOM     15  C   UNL     1      45.852   1.886   8.424  0.00  0.00    +0.000 C 
ATOM     16  C   UNL     1      46.741   3.035   7.997  0.00  0.00    +0.000 C 
ATOM     17  O   UNL     1      45.906   3.988   7.317  0.00  0.00    +0.000 OA
ATOM     18  C   UNL     1      44.544   3.524   7.376  0.00  0.00    +0.000 C 
ENDBRANCH  11  14
ENDBRANCH   9  10
ENDBRANCH   6   9
ENDBRANCH   2   3
BRANCH   2  19
ATOM     19  N   UNL     1      48.309   7.438  15.102  0.00  0.00    +0.000 N 
ATOM     20  C   UNL     1      49.273   6.981  15.970  0.00  0.00    +0.000 C 
ATOM     21  O   UNL     1      50.388   6.630  15.597  0.00  0.00    +0.000 OA
ATOM     22  H   UNL     1      47.341   7.402  15.412  0.00  0.00    +0.000 HD
BRANCH  20  23
ATOM     23  C   UNL     1      48.931   6.992  17.396  0.00  0.00    +0.000 A 
ATOM     24  C   UNL     1      48.625   8.194  18.018  0.00  0.00    +0.000 A 
ATOM     25  S   UNL     1      48.271   8.033  19.677  0.00  0.00    +0.000 S 
ATOM     26  C   UNL     1      48.555   6.356  19.628  0.00  0.00    +0.000 A 
ATOM     27  N   UNL     1      48.475   5.600  20.756  0.00  0.00    +0.000 NA
ATOM     28  C   UNL     1      48.753   4.351  20.579  0.00  0.00    +0.000 A 
ATOM     29  N   UNL     1      49.083   3.787  19.373  0.00  0.00    +0.000 N 
ATOM     30  C   UNL     1      49.134   4.503  18.200  0.00  0.00    +0.000 A 
ATOM     31  O   UNL     1      49.360   3.961  17.127  0.00  0.00    +0.000 OA
ATOM     32  C   UNL     1      48.873   5.918  18.355  0.00  0.00    +0.000 A 
ATOM     33  H   UNL     1      49.264   2.796  19.299  0.00  0.00    +0.000 HD
ENDBRANCH  20  23
ENDBRANCH   2  19
TORSDOF 6
ENDMDL
MODEL 6
REMARK VINA RESULT:    -6.593      1.498      2.049
REMARK INTER + INTRA:         -10.357
REMARK INTER:                  -8.815
REMARK INTRA:                  -1.542
REMARK UNBOUND:                -1.451
REMARK  Name = 
REMARK  7 active torsions:
REMARK  status: ('A' for Active; 'I' for Inactive)
REMARK    1  A    between atoms: C_1  and  C_2
REMARK    2  A    between atoms: C_2  and  N_3
REMARK    3  A    between atoms: C_2  and  C_16
REMARK    4  A    between atoms: C_4  and  C_6
REMARK    5  A    between atoms: C_19  and  C_20
REMARK    6  A    between atoms: C_20  and  N_21
REMARK    7  A    between atoms: C_22  and  C_24
REMARK                            x       y       z     vdW  Elec       q    Type
REMARK                         _______ _______ _______ _____ _____    ______ ____
ROOT
ATOM      1  C   UNL     1      48.077   5.356  19.938  0.00  0.00    +0.000 C 
ATOM      2  C   UNL     1      49.189   5.605  18.907  0.00  0.00    +0.000 C 
ENDROOT
BRANCH   2   3
ATOM      3  C   UNL     1      48.602   5.565  17.500  0.00  0.00    +0.000 A 
ATOM      4  C   UNL     1      47.749   4.522  17.109  0.00  0.00    +0.000 A 
ATOM      5  C   UNL     1      47.283   4.435  15.789  0.00  0.00    +0.000 A 
ATOM      6  C   UNL     1      47.667   5.384  14.831  0.00  0.00    +0.000 A 
ATOM      7  C   UNL     1      48.467   6.457  15.236  0.00  0.00    +0.000 A 
ATOM      8  C   UNL     1      48.927   6.547  16.552  0.00  0.00    +0.000 A 
BRANCH   6   9
ATOM      9  C   UNL     1      47.251   5.256  13.388  0.00  0.00    +0.000 C 
BRANCH   9  10
ATOM     10  N   UNL     1      45.821   5.138  13.234  0.00  0.00    +0.000 N 
ATOM     11  C   UNL     1      45.243   3.921  12.966  0.00  0.00    +0.000 C 
ATOM     12  O   UNL     1      45.909   2.898  12.816  0.00  0.00    +0.000 OA
ATOM     13  H   UNL     1      45.268   5.988  13.185  0.00  0.00    +0.000 HD
BRANCH  11  14
ATOM     14  C   UNL     1      43.729   3.895  12.772  0.00  0.00    +0.000 C 
ATOM     15  C   UNL     1      43.342   3.500  11.366  0.00  0.00    +0.000 C 
ATOM     16  C   UNL     1      43.362   4.820  10.626  0.00  0.00    +0.000 C 
ATOM     17  O   UNL     1      43.140   5.856  11.599  0.00  0.00    +0.000 OA
ATOM     18  C   UNL     1      43.068   5.249  12.903  0.00  0.00    +0.000 C 
ENDBRANCH  11  14
ENDBRANCH   9  10
ENDBRANCH   6   9
ENDBRANCH   2   3
BRANCH   2  19
ATOM     19  N   UNL     1      50.279   4.649  19.022  0.00  0.00    +0.000 N 
ATOM     20  C   UNL     1      51.585   4.989  18.764  0.00  0.00    +0.000 C 
ATOM     21  O   UNL     1      51.928   6.130  18.471  0.00  0.00    +0.000 OA
ATOM     22  H   UNL     1      50.021   3.669  18.937  0.00  0.00    +0.000 HD
BRANCH  20  23
ATOM     23  C   UNL     1      52.583   3.927  18.919  0.00  0.00    +0.000 A 
ATOM     24  C   UNL     1      53.698   4.145  19.717  0.00  0.00    +0.000 A 
ATOM     25  S   UNL     1      54.767   2.818  19.774  0.00  0.00    +0.000 S 
ATOM     26  C   UNL     1      53.795   1.924  18.701  0.00  0.00    +0.000 A 
ATOM     27  N   UNL     1      54.175   0.687  18.281  0.00  0.00    +0.000 NA
ATOM     28  C   UNL     1      53.363   0.140  17.439  0.00  0.00    +0.000 A 
ATOM     29  N   UNL     1      52.196   0.708  16.995  0.00  0.00    +0.000 N 
ATOM     30  C   UNL     1      51.751   1.936  17.426  0.00  0.00    +0.000 A 
ATOM     31  O   UNL     1      50.670   2.388  17.070  0.00  0.00    +0.000 OA
ATOM     32  C   UNL     1      52.651   2.609  18.338  0.00  0.00    +0.000 A 
ATOM     33  H   UNL     1      51.591   0.214  16.355  0.00  0.00    +0.000 HD
ENDBRANCH  20  23
ENDBRANCH   2  19
TORSDOF 6
ENDMDL
MODEL 7
REMARK VINA RESULT:    -6.377      3.923      5.616
REMARK INTER + INTRA:         -10.064
REMARK INTER:                  -8.685
REMARK INTRA:                  -1.379
REMARK UNBOUND:                -1.451
REMARK  Name = 
REMARK  7 active torsions:
REMARK  status: ('A' for Active; 'I' for Inactive)
REMARK    1  A    between atoms: C_1  and  C_2
REMARK    2  A    between atoms: C_2  and  N_3
REMARK    3  A    between atoms: C_2  and  C_16
REMARK    4  A    between atoms: C_4  and  C_6
REMARK    5  A    between atoms: C_19  and  C_20
REMARK    6  A    between atoms: C_20  and  N_21
REMARK    7  A    between atoms: C_22  and  C_24
REMARK                            x       y       z     vdW  Elec       q    Type
REMARK                         _______ _______ _______ _____ _____    ______ ____
ROOT
ATOM      1  C   UNL     1      50.732   8.475  14.025  0.00  0.00    +0.000 C 
ATOM      2  C   UNL     1      49.744   7.360  14.403  0.00  0.00    +0.000 C 
ENDROOT
BRANCH   2   3
ATOM      3  C   UNL     1      48.454   7.527  13.607  0.00  0.00    +0.000 A 
ATOM      4  C   UNL     1      47.582   8.593  13.871  0.00  0.00    +0.000 A 
ATOM      5  C   UNL     1      46.353   8.694  13.204  0.00  0.00    +0.000 A 
ATOM      6  C   UNL     1      45.967   7.727  12.265  0.00  0.00    +0.000 A 
ATOM      7  C   UNL     1      46.862   6.699  11.957  0.00  0.00    +0.000 A 
ATOM      8  C   UNL     1      48.090   6.600  12.618  0.00  0.00    +0.000 A 
BRANCH   6   9
ATOM      9  C   UNL     1      44.612   7.769  11.606  0.00  0.00    +0.000 C 
BRANCH   9  10
ATOM     10  N   UNL     1      44.188   6.473  11.130  0.00  0.00    +0.000 N 
ATOM     11  C   UNL     1      43.497   5.617  11.953  0.00  0.00    +0.000 C 
ATOM     12  O   UNL     1      43.240   5.896  13.123  0.00  0.00    +0.000 OA
ATOM     13  H   UNL     1      44.532   6.152  10.231  0.00  0.00    +0.000 HD
BRANCH  11  14
ATOM     14  C   UNL     1      43.128   4.249  11.384  0.00  0.00    +0.000 C 
ATOM     15  C   UNL     1      43.599   3.119  12.269  0.00  0.00    +0.000 C 
ATOM     16  C   UNL     1      45.014   2.879  11.788  0.00  0.00    +0.000 C 
ATOM     17  O   UNL     1      45.084   3.339  10.427  0.00  0.00    +0.000 OA
ATOM     18  C   UNL     1      43.814   3.920  10.077  0.00  0.00    +0.000 C 
ENDBRANCH  11  14
ENDBRANCH   9  10
ENDBRANCH   6   9
ENDBRANCH   2   3
BRANCH   2  19
ATOM     19  N   UNL     1      49.454   7.334  15.827  0.00  0.00    +0.000 N 
ATOM     20  C   UNL     1      48.859   6.254  16.436  0.00  0.00    +0.000 C 
ATOM     21  O   UNL     1      48.582   5.222  15.833  0.00  0.00    +0.000 OA
ATOM     22  H   UNL     1      49.361   8.240  16.279  0.00  0.00    +0.000 HD
BRANCH  20  23
ATOM     23  C   UNL     1      48.624   6.362  17.879  0.00  0.00    +0.000 A 
ATOM     24  C   UNL     1      48.836   5.257  18.692  0.00  0.00    +0.000 A 
ATOM     25  S   UNL     1      48.498   5.545  20.338  0.00  0.00    +0.000 S 
ATOM     26  C   UNL     1      48.018   7.145  20.012  0.00  0.00    +0.000 A 
ATOM     27  N   UNL     1      47.550   7.950  21.004  0.00  0.00    +0.000 NA
ATOM     28  C   UNL     1      47.187   9.124  20.607  0.00  0.00    +0.000 A 
ATOM     29  N   UNL     1      47.268   9.573  19.314  0.00  0.00    +0.000 N 
ATOM     30  C   UNL     1      47.775   8.810  18.287  0.00  0.00    +0.000 A 
ATOM     31  O   UNL     1      47.904   9.261  17.157  0.00  0.00    +0.000 OA
ATOM     32  C   UNL     1      48.155   7.468  18.674  0.00  0.00    +0.000 A 
ATOM     33  H   UNL     1      46.991  10.514  19.076  0.00  0.00    +0.000 HD
ENDBRANCH  20  23
ENDBRANCH   2  19
TORSDOF 6
ENDMDL
MODEL 8
REMARK VINA RESULT:    -6.039      3.584      4.769
REMARK INTER + INTRA:          -9.608
REMARK INTER:                  -8.028
REMARK INTRA:                  -1.580
REMARK UNBOUND:                -1.451
REMARK  Name = 
REMARK  7 active torsions:
REMARK  status: ('A' for Active; 'I' for Inactive)
REMARK    1  A    between atoms: C_1  and  C_2
REMARK    2  A    between atoms: C_2  and  N_3
REMARK    3  A    between atoms: C_2  and  C_16
REMARK    4  A    between atoms: C_4  and  C_6
REMARK    5  A    between atoms: C_19  and  C_20
REMARK    6  A    between atoms: C_20  and  N_21
REMARK    7  A    between atoms: C_22  and  C_24
REMARK                            x       y       z     vdW  Elec       q    Type
REMARK                         _______ _______ _______ _____ _____    ______ ____
ROOT
ATOM      1  C   UNL     1      49.548  10.193  13.257  0.00  0.00    +0.000 C 
ATOM      2  C   UNL     1      49.221   8.694  13.352  0.00  0.00    +0.000 C 
ENDROOT
BRANCH   2   3
ATOM      3  C   UNL     1      47.859   8.426  12.722  0.00  0.00    +0.000 A 
ATOM      4  C   UNL     1      46.823   9.366  12.827  0.00  0.00    +0.000 A 
ATOM      5  C   UNL     1      45.544   9.080  12.329  0.00  0.00    +0.000 A 
ATOM      6  C   UNL     1      45.272   7.845  11.722  0.00  0.00    +0.000 A 
ATOM      7  C   UNL     1      46.319   6.934  11.562  0.00  0.00    +0.000 A 
ATOM      8  C   UNL     1      47.595   7.220  12.054  0.00  0.00    +0.000 A 
BRANCH   6   9
ATOM      9  C   UNL     1      43.882   7.486  11.263  0.00  0.00    +0.000 C 
BRANCH   9  10
ATOM     10  N   UNL     1      43.750   6.083  10.950  0.00  0.00    +0.000 N 
ATOM     11  C   UNL     1      43.181   5.214  11.850  0.00  0.00    +0.000 C 
ATOM     12  O   UNL     1      42.794   5.580  12.959  0.00  0.00    +0.000 OA
ATOM     13  H   UNL     1      44.210   5.727  10.119  0.00  0.00    +0.000 HD
BRANCH  11  14
ATOM     14  C   UNL     1      43.123   3.741  11.457  0.00  0.00    +0.000 C 
ATOM     15  C   UNL     1      43.815   2.854  12.466  0.00  0.00    +0.000 C 
ATOM     16  C   UNL     1      45.254   2.868  11.998  0.00  0.00    +0.000 C 
ATOM     17  O   UNL     1      45.241   3.163  10.590  0.00  0.00    +0.000 OA
ATOM     18  C   UNL     1      43.879   3.411  10.190  0.00  0.00    +0.000 C 
ENDBRANCH  11  14
ENDBRANCH   9  10
ENDBRANCH   6   9
ENDBRANCH   2   3
BRANCH   2  19
ATOM     19  N   UNL     1      49.244   8.206  14.722  0.00  0.00    +0.000 N 
ATOM     20  C   UNL     1      50.387   7.716  15.308  0.00  0.00    +0.000 C 
ATOM     21  O   UNL     1      51.473   7.704  14.737  0.00  0.00    +0.000 OA
ATOM     22  H   UNL     1      48.351   7.899  15.100  0.00  0.00    +0.000 HD
BRANCH  20  23
ATOM     23  C   UNL     1      50.268   7.257  16.695  0.00  0.00    +0.000 A 
ATOM     24  C   UNL     1      51.012   7.878  17.688  0.00  0.00    +0.000 A 
ATOM     25  S   UNL     1      50.772   7.212  19.239  0.00  0.00    +0.000 S 
ATOM     26  C   UNL     1      49.697   6.044  18.627  0.00  0.00    +0.000 A 
ATOM     27  N   UNL     1      49.154   5.099  19.442  0.00  0.00    +0.000 NA
ATOM     28  C   UNL     1      48.386   4.254  18.836  0.00  0.00    +0.000 A 
ATOM     29  N   UNL     1      48.097   4.281  17.496  0.00  0.00    +0.000 N 
ATOM     30  C   UNL     1      48.588   5.243  16.643  0.00  0.00    +0.000 A 
ATOM     31  O   UNL     1      48.256   5.286  15.466  0.00  0.00    +0.000 OA
ATOM     32  C   UNL     1      49.490   6.187  17.267  0.00  0.00    +0.000 A 
ATOM     33  H   UNL     1      47.467   3.605  17.090  0.00  0.00    +0.000 HD
ENDBRANCH  20  23
ENDBRANCH   2  19
TORSDOF 6
ENDMDL
MODEL 9
REMARK VINA RESULT:    -6.017      1.524      2.390
REMARK INTER + INTRA:          -9.579
REMARK INTER:                  -8.803
REMARK INTRA:                  -0.775
REMARK UNBOUND:                -1.451
REMARK  Name = 
REMARK  7 active torsions:
REMARK  status: ('A' for Active; 'I' for Inactive)
REMARK    1  A    between atoms: C_1  and  C_2
REMARK    2  A    between atoms: C_2  and  N_3
REMARK    3  A    between atoms: C_2  and  C_16
REMARK    4  A    between atoms: C_4  and  C_6
REMARK    5  A    between atoms: C_19  and  C_20
REMARK    6  A    between atoms: C_20  and  N_21
REMARK    7  A    between atoms: C_22  and  C_24
REMARK                            x       y       z     vdW  Elec       q    Type
REMARK                         _______ _______ _______ _____ _____    ______ ____
ROOT
ATOM      1  C   UNL     1      47.377   2.497  18.006  0.00  0.00    +0.000 C 
ATOM      2  C   UNL     1      48.294   3.729  17.960  0.00  0.00    +0.000 C 
ENDROOT
BRANCH   2   3
ATOM      3  C   UNL     1      48.076   4.481  16.652  0.00  0.00    +0.000 A 
ATOM      4  C   UNL     1      48.720   5.705  16.411  0.00  0.00    +0.000 A 
ATOM      5  C   UNL     1      48.447   6.440  15.249  0.00  0.00    +0.000 A 
ATOM      6  C   UNL     1      47.521   5.972  14.307  0.00  0.00    +0.000 A 
ATOM      7  C   UNL     1      46.926   4.725  14.516  0.00  0.00    +0.000 A 
ATOM      8  C   UNL     1      47.201   3.988  15.671  0.00  0.00    +0.000 A 
BRANCH   6   9
ATOM      9  C   UNL     1      47.148   6.792  13.098  0.00  0.00    +0.000 C 
BRANCH   9  10
ATOM     10  N   UNL     1      45.759   6.642  12.735  0.00  0.00    +0.000 N 
ATOM     11  C   UNL     1      45.403   5.968  11.592  0.00  0.00    +0.000 C 
ATOM     12  O   UNL     1      46.237   5.498  10.821  0.00  0.00    +0.000 OA
ATOM     13  H   UNL     1      45.063   7.161  13.260  0.00  0.00    +0.000 HD
BRANCH  11  14
ATOM     14  C   UNL     1      43.915   5.897  11.260  0.00  0.00    +0.000 C 
ATOM     15  C   UNL     1      43.098   5.373  12.419  0.00  0.00    +0.000 C 
ATOM     16  C   UNL     1      43.159   3.873  12.225  0.00  0.00    +0.000 C 
ATOM     17  O   UNL     1      43.402   3.634  10.827  0.00  0.00    +0.000 OA
ATOM     18  C   UNL     1      43.573   4.905  10.171  0.00  0.00    +0.000 C 
ENDBRANCH  11  14
ENDBRANCH   9  10
ENDBRANCH   6   9
ENDBRANCH   2   3
BRANCH   2  19
ATOM     19  N   UNL     1      49.699   3.383  18.110  0.00  0.00    +0.000 N 
ATOM     20  C   UNL     1      50.311   2.442  17.317  0.00  0.00    +0.000 C 
ATOM     21  O   UNL     1      49.733   1.870  16.398  0.00  0.00    +0.000 OA
ATOM     22  H   UNL     1      50.109   3.571  19.021  0.00  0.00    +0.000 HD
BRANCH  20  23
ATOM     23  C   UNL     1      51.733   2.191  17.575  0.00  0.00    +0.000 A 
ATOM     24  C   UNL     1      52.184   0.885  17.708  0.00  0.00    +0.000 A 
ATOM     25  S   UNL     1      53.855   0.770  18.025  0.00  0.00    +0.000 S 
ATOM     26  C   UNL     1      54.022   2.463  18.036  0.00  0.00    +0.000 A 
ATOM     27  N   UNL     1      55.221   3.045  18.309  0.00  0.00    +0.000 NA
ATOM     28  C   UNL     1      55.194   4.337  18.322  0.00  0.00    +0.000 A 
ATOM     29  N   UNL     1      54.082   5.098  18.065  0.00  0.00    +0.000 N 
ATOM     30  C   UNL     1      52.860   4.554  17.741  0.00  0.00    +0.000 A 
ATOM     31  O   UNL     1      51.903   5.256  17.446  0.00  0.00    +0.000 OA
ATOM     32  C   UNL     1      52.830   3.107  17.759  0.00  0.00    +0.000 A 
ATOM     33  H   UNL     1      54.135   6.106  18.065  0.00  0.00    +0.000 HD
ENDBRANCH  20  23
ENDBRANCH   2  19
TORSDOF 6
ENDMDL
