MODEL 1
REMARK VINA RESULT:    -6.954      0.000      0.000
REMARK INTER + INTRA:          -9.198
REMARK INTER:                  -8.783
REMARK INTRA:                  -0.415
REMARK UNBOUND:                -0.415
REMARK  Name = 
REMARK  5 active torsions:
REMARK  status: ('A' for Active; 'I' for Inactive)
REMARK    1  A    between atoms: N_1  and  C_2
REMARK    2  A    between atoms: C_2  and  C_3
REMARK    3  A    between atoms: C_6  and  C_7
REMARK    4  A    between atoms: C_7  and  O_8
REMARK    5  A    between atoms: O_8  and  C_9
REMARK                            x       y       z     vdW  Elec       q    Type
REMARK                         _______ _______ _______ _____ _____    ______ ____
ROOT
ATOM      1  C   UNL     1      46.556   2.479   7.486  0.00  0.00    +0.000 A 
ATOM      2  C   UNL     1      45.868   1.757   8.464  0.00  0.00    +0.000 A 
ATOM      3  C   UNL     1      45.061   2.426   9.383  0.00  0.00    +0.000 A 
ATOM      4  C   UNL     1      44.947   3.811   9.296  0.00  0.00    +0.000 A 
ATOM      5  N   UNL     1      45.618   4.536   8.365  0.00  0.00    +0.000 NA
ATOM      6  C   UNL     1      46.407   3.861   7.496  0.00  0.00    +0.000 A 
ENDROOT
BRANCH   1   7
ATOM      7  C   UNL     1      47.420   1.794   6.468  0.00  0.00    +0.000 C 
BRANCH   7   8
ATOM      8  N   UNL     1      48.683   2.499   6.283  0.00  0.00    +0.000 NA
ATOM      9  H   UNL     1      49.172   2.557   7.175  0.00  0.00    +0.000 HD
ATOM     10  H   UNL     1      48.491   3.459   5.999  0.00  0.00    +0.000 HD
ENDBRANCH   7   8
ENDBRANCH   1   7
BRANCH   4  11
ATOM     11  C   UNL     1      44.045   4.562  10.252  0.00  0.00    +0.000 C 
BRANCH  11  12
ATOM     12  O   UNL     1      44.739   5.702  10.762  0.00  0.00    +0.000 OA
BRANCH  12  13
ATOM     13  C   UNL     1      45.602   5.491  11.801  0.00  0.00    +0.000 A 
ATOM     14  C   UNL     1      45.477   4.527  12.795  0.00  0.00    +0.000 A 
ATOM     15  C   UNL     1      46.473   4.447  13.759  0.00  0.00    +0.000 A 
ATOM     16  N   UNL     1      47.556   5.251  13.796  0.00  0.00    +0.000 NA
ATOM     17  C   UNL     1      47.646   6.185  12.825  0.00  0.00    +0.000 A 
ATOM     18  C   UNL     1      46.705   6.341  11.822  0.00  0.00    +0.000 A 
ENDBRANCH  12  13
ENDBRANCH  11  12
ENDBRANCH   4  11
TORSDOF 5
ENDMDL
MODEL 2
REMARK VINA RESULT:    -6.859      1.554      5.699
REMARK INTER + INTRA:          -9.078
REMARK INTER:                  -8.761
REMARK INTRA:                  -0.317
REMARK UNBOUND:                -0.415
REMARK  Name = 
REMARK  5 active torsions:
REMARK  status: ('A' for Active; 'I' for Inactive)
REMARK    1  A    between atoms: N_1  and  C_2
REMARK    2  A    between atoms: C_2  and  C_3
REMARK    3  A    between atoms: C_6  and  C_7
REMARK    4  A    between atoms: C_7  and  O_8
REMARK    5  A    between atoms: O_8  and  C_9
REMARK                            x       y       z     vdW  Elec       q    Type
REMARK                         _______ _______ _______ _____ _____    ______ ____
ROOT
ATOM      1  C   UNL     1      46.085   4.719  12.880  0.00  0.00    +0.000 A 
ATOM      2  C   UNL     1      46.093   5.739  11.926  0.00  0.00    +0.000 A 
ATOM      3  C   UNL     1      45.523   5.523  10.672  0.00  0.00    +0.000 A 
ATOM      4  C   UNL     1      44.939   4.289  10.401  0.00  0.00    +0.000 A 
ATOM      5  N   UNL     1      44.930   3.277  11.307  0.00  0.00    +0.000 NA
ATOM      6  C   UNL     1      45.507   3.510  12.509  0.00  0.00    +0.000 A 
ENDROOT
BRANCH   1   7
ATOM      7  C   UNL     1      46.673   4.917  14.246  0.00  0.00    +0.000 C 
BRANCH   7   8
ATOM      8  N   UNL     1      47.230   3.676  14.770  0.00  0.00    +0.000 NA
ATOM      9  H   UNL     1      47.999   3.892  15.404  0.00  0.00    +0.000 HD
ATOM     10  H   UNL     1      47.633   3.141  14.002  0.00  0.00    +0.000 HD
ENDBRANCH   7   8
ENDBRANCH   1   7
BRANCH   4  11
ATOM     11  C   UNL     1      44.272   4.038   9.066  0.00  0.00    +0.000 C 
BRANCH  11  12
ATOM     12  O   UNL     1      45.220   4.244   8.017  0.00  0.00    +0.000 OA
BRANCH  12  13
ATOM     13  C   UNL     1      46.047   3.198   7.711  0.00  0.00    +0.000 A 
ATOM     14  C   UNL     1      45.895   1.879   8.125  0.00  0.00    +0.000 A 
ATOM     15  C   UNL     1      46.828   0.947   7.690  0.00  0.00    +0.000 A 
ATOM     16  N   UNL     1      47.877   1.240   6.894  0.00  0.00    +0.000 NA
ATOM     17  C   UNL     1      48.006   2.530   6.518  0.00  0.00    +0.000 A 
ATOM     18  C   UNL     1      47.127   3.530   6.898  0.00  0.00    +0.000 A 
ENDBRANCH  12  13
ENDBRANCH  11  12
ENDBRANCH   4  11
TORSDOF 5
ENDMDL
MODEL 3
REMARK VINA RESULT:    -6.285      1.517      5.873
REMARK INTER + INTRA:          -8.353
REMARK INTER:                  -7.982
REMARK INTRA:                  -0.371
REMARK UNBOUND:                -0.415
REMARK  Name = 
REMARK  5 active torsions:
REMARK  status: ('A' for Active; 'I' for Inactive)
REMARK    1  A    between atoms: N_1  and  C_2
REMARK    2  A    between atoms: C_2  and  C_3
REMARK    3  A    between atoms: C_6  and  C_7
REMARK    4  A    between atoms: C_7  and  O_8
REMARK    5  A    between atoms: O_8  and  C_9
REMARK                            x       y       z     vdW  Elec       q    Type
REMARK                         _______ _______ _______ _____ _____    ______ ____
ROOT
ATOM      1  C   UNL     1      45.714   6.221  12.335  0.00  0.00    +0.000 A 
ATOM      2  C   UNL     1      45.792   4.963  12.937  0.00  0.00    +0.000 A 
ATOM      3  C   UNL     1      45.378   3.831  12.238  0.00  0.00    +0.000 A 
ATOM      4  C   UNL     1      44.905   3.978  10.937  0.00  0.00    +0.000 A 
ATOM      5  N   UNL     1      44.806   5.192  10.335  0.00  0.00    +0.000 NA
ATOM      6  C   UNL     1      45.200   6.275  11.046  0.00  0.00    +0.000 A 
ENDROOT
BRANCH   1   7
ATOM      7  C   UNL     1      46.166   7.461  13.049  0.00  0.00    +0.000 C 
BRANCH   7   8
ATOM      8  N   UNL     1      47.185   7.158  14.047  0.00  0.00    +0.000 NA
ATOM      9  H   UNL     1      46.774   6.588  14.787  0.00  0.00    +0.000 HD
ATOM     10  H   UNL     1      47.488   8.025  14.488  0.00  0.00    +0.000 HD
ENDBRANCH   7   8
ENDBRANCH   1   7
BRANCH   4  11
ATOM     11  C   UNL     1      44.489   2.764  10.135  0.00  0.00    +0.000 C 
BRANCH  11  12
ATOM     12  O   UNL     1      44.593   3.058   8.741  0.00  0.00    +0.000 OA
BRANCH  12  13
ATOM     13  C   UNL     1      45.694   2.582   8.085  0.00  0.00    +0.000 A 
ATOM     14  C   UNL     1      46.590   3.330   7.329  0.00  0.00    +0.000 A 
ATOM     15  C   UNL     1      47.670   2.672   6.755  0.00  0.00    +0.000 A 
ATOM     16  N   UNL     1      47.904   1.349   6.881  0.00  0.00    +0.000 NA
ATOM     17  C   UNL     1      47.011   0.646   7.610  0.00  0.00    +0.000 A 
ATOM     18  C   UNL     1      45.906   1.212   8.222  0.00  0.00    +0.000 A 
ENDBRANCH  12  13
ENDBRANCH  11  12
ENDBRANCH   4  11
TORSDOF 5
ENDMDL
MODEL 4
REMARK VINA RESULT:    -5.989      1.761      2.135
REMARK INTER + INTRA:          -7.979
REMARK INTER:                  -7.669
REMARK INTRA:                  -0.310
REMARK UNBOUND:                -0.415
REMARK  Name = 
REMARK  5 active torsions:
REMARK  status: ('A' for Active; 'I' for Inactive)
REMARK    1  A    between atoms: N_1  and  C_2
REMARK    2  A    between atoms: C_2  and  C_3
REMARK    3  A    between atoms: C_6  and  C_7
REMARK    4  A    between atoms: C_7  and  O_8
REMARK    5  A    between atoms: O_8  and  C_9
REMARK                            x       y       z     vdW  Elec       q    Type
REMARK                         _______ _______ _______ _____ _____    ______ ____
ROOT
ATOM      1  C   UNL     1      46.537   2.588   7.426  0.00  0.00    +0.000 A 
ATOM      2  C   UNL     1      45.817   1.924   8.422  0.00  0.00    +0.000 A 
ATOM      3  C   UNL     1      45.139   2.656   9.396  0.00  0.00    +0.000 A 
ATOM      4  C   UNL     1      45.184   4.046   9.347  0.00  0.00    +0.000 A 
ATOM      5  N   UNL     1      45.888   4.715   8.398  0.00  0.00    +0.000 NA
ATOM      6  C   UNL     1      46.550   3.977   7.475  0.00  0.00    +0.000 A 
ENDROOT
BRANCH   1   7
ATOM      7  C   UNL     1      47.264   1.837   6.351  0.00  0.00    +0.000 C 
BRANCH   7   8
ATOM      8  N   UNL     1      48.567   2.431   6.077  0.00  0.00    +0.000 NA
ATOM      9  H   UNL     1      48.630   3.336   6.542  0.00  0.00    +0.000 HD
ATOM     10  H   UNL     1      48.646   2.616   5.078  0.00  0.00    +0.000 HD
ENDBRANCH   7   8
ENDBRANCH   1   7
BRANCH   4  11
ATOM     11  C   UNL     1      44.423   4.869  10.364  0.00  0.00    +0.000 C 
BRANCH  11  12
ATOM     12  O   UNL     1      45.286   5.188  11.457  0.00  0.00    +0.000 OA
BRANCH  12  13
ATOM     13  C   UNL     1      45.341   6.498  11.845  0.00  0.00    +0.000 A 
ATOM     14  C   UNL     1      46.123   7.022  12.868  0.00  0.00    +0.000 A 
ATOM     15  C   UNL     1      46.065   8.390  13.100  0.00  0.00    +0.000 A 
ATOM     16  N   UNL     1      45.293   9.245  12.398  0.00  0.00    +0.000 NA
ATOM     17  C   UNL     1      44.535   8.706  11.419  0.00  0.00    +0.000 A 
ATOM     18  C   UNL     1      44.526   7.356  11.111  0.00  0.00    +0.000 A 
ENDBRANCH  12  13
ENDBRANCH  11  12
ENDBRANCH   4  11
TORSDOF 5
ENDMDL
MODEL 5
REMARK VINA RESULT:    -5.904      1.789      5.756
REMARK INTER + INTRA:          -7.872
REMARK INTER:                  -7.424
REMARK INTRA:                  -0.448
REMARK UNBOUND:                -0.415
REMARK  Name = 
REMARK  5 active torsions:
REMARK  status: ('A' for Active; 'I' for Inactive)
REMARK    1  A    between atoms: N_1  and  C_2
REMARK    2  A    between atoms: C_2  and  C_3
REMARK    3  A    between atoms: C_6  and  C_7
REMARK    4  A    between atoms: C_7  and  O_8
REMARK    5  A    between atoms: O_8  and  C_9
REMARK                            x       y       z     vdW  Elec       q    Type
REMARK                         _______ _______ _______ _____ _____    ______ ____
ROOT
ATOM      1  C   UNL     1      46.613   6.914  12.988  0.00  0.00    +0.000 A 
ATOM      2  C   UNL     1      46.688   5.543  13.246  0.00  0.00    +0.000 A 
ATOM      3  C   UNL     1      45.726   4.683  12.719  0.00  0.00    +0.000 A 
ATOM      4  C   UNL     1      44.709   5.212  11.930  0.00  0.00    +0.000 A 
ATOM      5  N   UNL     1      44.606   6.542  11.677  0.00  0.00    +0.000 NA
ATOM      6  C   UNL     1      45.546   7.355  12.215  0.00  0.00    +0.000 A 
ENDROOT
BRANCH   1   7
ATOM      7  C   UNL     1      47.639   7.869  13.521  0.00  0.00    +0.000 C 
BRANCH   7   8
ATOM      8  N   UNL     1      47.037   8.851  14.415  0.00  0.00    +0.000 NA
ATOM      9  H   UNL     1      47.727   9.151  15.103  0.00  0.00    +0.000 HD
ATOM     10  H   UNL     1      46.283   8.408  14.939  0.00  0.00    +0.000 HD
ENDBRANCH   7   8
ENDBRANCH   1   7
BRANCH   4  11
ATOM     11  C   UNL     1      43.674   4.299  11.308  0.00  0.00    +0.000 C 
BRANCH  11  12
ATOM     12  O   UNL     1      43.712   4.438   9.887  0.00  0.00    +0.000 OA
BRANCH  12  13
ATOM     13  C   UNL     1      44.613   3.663   9.210  0.00  0.00    +0.000 A 
ATOM     14  C   UNL     1      44.763   2.285   9.320  0.00  0.00    +0.000 A 
ATOM     15  C   UNL     1      45.722   1.667   8.529  0.00  0.00    +0.000 A 
ATOM     16  N   UNL     1      46.522   2.319   7.661  0.00  0.00    +0.000 NA
ATOM     17  C   UNL     1      46.363   3.657   7.583  0.00  0.00    +0.000 A 
ATOM     18  C   UNL     1      45.435   4.363   8.329  0.00  0.00    +0.000 A 
ENDBRANCH  12  13
ENDBRANCH  11  12
ENDBRANCH   4  11
TORSDOF 5
ENDMDL
MODEL 6
REMARK VINA RESULT:    -5.374      3.167      4.924
REMARK INTER + INTRA:          -7.202
REMARK INTER:                  -6.932
REMARK INTRA:                  -0.270
REMARK UNBOUND:                -0.415
REMARK  Name = 
REMARK  5 active torsions:
REMARK  status: ('A' for Active; 'I' for Inactive)
REMARK    1  A    between atoms: N_1  and  C_2
REMARK    2  A    between atoms: C_2  and  C_3
REMARK    3  A    between atoms: C_6  and  C_7
REMARK    4  A    between atoms: C_7  and  O_8
REMARK    5  A    between atoms: O_8  and  C_9
REMARK                            x       y       z     vdW  Elec       q    Type
REMARK                         _______ _______ _______ _____ _____    ______ ____
ROOT
ATOM      1  C   UNL     1      44.862   4.306  10.771  0.00  0.00    +0.000 A 
ATOM      2  C   UNL     1      45.401   5.573  11.008  0.00  0.00    +0.000 A 
ATOM      3  C   UNL     1      46.047   5.839  12.214  0.00  0.00    +0.000 A 
ATOM      4  C   UNL     1      46.155   4.823  13.159  0.00  0.00    +0.000 A 
ATOM      5  N   UNL     1      45.627   3.588  12.959  0.00  0.00    +0.000 NA
ATOM      6  C   UNL     1      44.990   3.364  11.785  0.00  0.00    +0.000 A 
ENDROOT
BRANCH   1   7
ATOM      7  C   UNL     1      44.175   3.975   9.479  0.00  0.00    +0.000 C 
BRANCH   7   8
ATOM      8  N   UNL     1      44.907   4.508   8.336  0.00  0.00    +0.000 NA
ATOM      9  H   UNL     1      45.592   5.189   8.662  0.00  0.00    +0.000 HD
ATOM     10  H   UNL     1      44.262   5.017   7.734  0.00  0.00    +0.000 HD
ENDBRANCH   7   8
ENDBRANCH   1   7
BRANCH   4  11
ATOM     11  C   UNL     1      46.889   5.067  14.460  0.00  0.00    +0.000 C 
BRANCH  11  12
ATOM     12  O   UNL     1      47.005   3.837  15.177  0.00  0.00    +0.000 OA
BRANCH  12  13
ATOM     13  C   UNL     1      47.610   3.886  16.403  0.00  0.00    +0.000 A 
ATOM     14  C   UNL     1      47.527   2.922  17.402  0.00  0.00    +0.000 A 
ATOM     15  C   UNL     1      48.234   3.136  18.577  0.00  0.00    +0.000 A 
ATOM     16  N   UNL     1      48.996   4.225  18.815  0.00  0.00    +0.000 NA
ATOM     17  C   UNL     1      49.048   5.149  17.832  0.00  0.00    +0.000 A 
ATOM     18  C   UNL     1      48.380   5.024  16.626  0.00  0.00    +0.000 A 
ENDBRANCH  12  13
ENDBRANCH  11  12
ENDBRANCH   4  11
TORSDOF 5
ENDMDL
MODEL 7
REMARK VINA RESULT:    -5.208      4.411      7.740
REMARK INTER + INTRA:          -6.993
REMARK INTER:                  -6.684
REMARK INTRA:                  -0.309
REMARK UNBOUND:                -0.415
REMARK  Name = 
REMARK  5 active torsions:
REMARK  status: ('A' for Active; 'I' for Inactive)
REMARK    1  A    between atoms: N_1  and  C_2
REMARK    2  A    between atoms: C_2  and  C_3
REMARK    3  A    between atoms: C_6  and  C_7
REMARK    4  A    between atoms: C_7  and  O_8
REMARK    5  A    between atoms: O_8  and  C_9
REMARK                            x       y       z     vdW  Elec       q    Type
REMARK                         _______ _______ _______ _____ _____    ______ ____
ROOT
ATOM      1  C   UNL     1      48.513   4.549  18.080  0.00  0.00    +0.000 A 
ATOM      2  C   UNL     1      47.504   3.670  17.680  0.00  0.00    +0.000 A 
ATOM      3  C   UNL     1      46.992   3.742  16.385  0.00  0.00    +0.000 A 
ATOM      4  C   UNL     1      47.511   4.690  15.508  0.00  0.00    +0.000 A 
ATOM      5  N   UNL     1      48.481   5.566  15.877  0.00  0.00    +0.000 NA
ATOM      6  C   UNL     1      48.947   5.482  17.146  0.00  0.00    +0.000 A 
ENDROOT
BRANCH   1   7
ATOM      7  C   UNL     1      49.102   4.491  19.459  0.00  0.00    +0.000 C 
BRANCH   7   8
ATOM      8  N   UNL     1      48.422   3.501  20.286  0.00  0.00    +0.000 NA
ATOM      9  H   UNL     1      47.880   2.877  19.689  0.00  0.00    +0.000 HD
ATOM     10  H   UNL     1      47.751   3.975  20.889  0.00  0.00    +0.000 HD
ENDBRANCH   7   8
ENDBRANCH   1   7
BRANCH   4  11
ATOM     11  C   UNL     1      47.007   4.765  14.083  0.00  0.00    +0.000 C 
BRANCH  11  12
ATOM     12  O   UNL     1      45.716   4.158  14.003  0.00  0.00    +0.000 OA
BRANCH  12  13
ATOM     13  C   UNL     1      44.804   4.742  13.168  0.00  0.00    +0.000 A 
ATOM     14  C   UNL     1      43.503   4.309  12.937  0.00  0.00    +0.000 A 
ATOM     15  C   UNL     1      42.712   5.050  12.068  0.00  0.00    +0.000 A 
ATOM     16  N   UNL     1      43.128   6.163  11.428  0.00  0.00    +0.000 NA
ATOM     17  C   UNL     1      44.399   6.552  11.663  0.00  0.00    +0.000 A 
ATOM     18  C   UNL     1      45.262   5.882  12.512  0.00  0.00    +0.000 A 
ENDBRANCH  12  13
ENDBRANCH  11  12
ENDBRANCH   4  11
TORSDOF 5
ENDMDL
MODEL 8
REMARK VINA RESULT:    -5.142      4.391      7.815
REMARK INTER + INTRA:          -6.909
REMARK INTER:                  -6.583
REMARK INTRA:                  -0.326
REMARK UNBOUND:                -0.415
REMARK  Name = 
REMARK  5 active torsions:
REMARK  status: ('A' for Active; 'I' for Inactive)
REMARK    1  A    between atoms: N_1  and  C_2
REMARK    2  A    between atoms: C_2  and  C_3
REMARK    3  A    between atoms: C_6  and  C_7
REMARK    4  A    between atoms: C_7  and  O_8
REMARK    5  A    between atoms: O_8  and  C_9
REMARK                            x       y       z     vdW  Elec       q    Type
REMARK                         _______ _______ _______ _____ _____    ______ ____
ROOT
ATOM      1  C   UNL     1      50.871   2.385  17.383  0.00  0.00    +0.000 A 
ATOM      2  C   UNL     1      50.650   3.708  17.773  0.00  0.00    +0.000 A 
ATOM      3  C   UNL     1      49.473   4.355  17.401  0.00  0.00    +0.000 A 
ATOM      4  C   UNL     1      48.529   3.658  16.652  0.00  0.00    +0.000 A 
ATOM      5  N   UNL     1      48.727   2.377  16.248  0.00  0.00    +0.000 NA
ATOM      6  C   UNL     1      49.887   1.780  16.611  0.00  0.00    +0.000 A 
ENDROOT
BRANCH   1   7
ATOM      7  C   UNL     1      52.117   1.648  17.779  0.00  0.00    +0.000 C 
BRANCH   7   8
ATOM      8  N   UNL     1      51.829   0.258  18.110  0.00  0.00    +0.000 NA
ATOM      9  H   UNL     1      51.342  -0.181  17.330  0.00  0.00    +0.000 HD
ATOM     10  H   UNL     1      51.188   0.229  18.901  0.00  0.00    +0.000 HD
ENDBRANCH   7   8
ENDBRANCH   1   7
BRANCH   4  11
ATOM     11  C   UNL     1      47.222   4.318  16.269  0.00  0.00    +0.000 C 
BRANCH  11  12
ATOM     12  O   UNL     1      46.755   3.766  15.037  0.00  0.00    +0.000 OA
BRANCH  12  13
ATOM     13  C   UNL     1      46.637   4.621  13.976  0.00  0.00    +0.000 A 
ATOM     14  C   UNL     1      47.435   5.730  13.719  0.00  0.00    +0.000 A 
ATOM     15  C   UNL     1      47.177   6.469  12.572  0.00  0.00    +0.000 A 
ATOM     16  N   UNL     1      46.197   6.181  11.690  0.00  0.00    +0.000 NA
ATOM     17  C   UNL     1      45.431   5.106  11.972  0.00  0.00    +0.000 A 
ATOM     18  C   UNL     1      45.611   4.308  13.088  0.00  0.00    +0.000 A 
ENDBRANCH  12  13
ENDBRANCH  11  12
ENDBRANCH   4  11
TORSDOF 5
ENDMDL
MODEL 9
REMARK VINA RESULT:    -4.917      2.508      6.299
REMARK INTER + INTRA:          -6.626
REMARK INTER:                  -6.239
REMARK INTRA:                  -0.387
REMARK UNBOUND:                -0.415
REMARK  Name = 
REMARK  5 active torsions:
REMARK  status: ('A' for Active; 'I' for Inactive)
REMARK    1  A    between atoms: N_1  and  C_2
REMARK    2  A    between atoms: C_2  and  C_3
REMARK    3  A    between atoms: C_6  and  C_7
REMARK    4  A    between atoms: C_7  and  O_8
REMARK    5  A    between atoms: O_8  and  C_9
REMARK                            x       y       z     vdW  Elec       q    Type
REMARK                         _______ _______ _______ _____ _____    ______ ____
ROOT
ATOM      1  C   UNL     1      47.177   9.020  12.258  0.00  0.00    +0.000 A 
ATOM      2  C   UNL     1      47.922   7.862  12.025  0.00  0.00    +0.000 A 
ATOM      3  C   UNL     1      47.287   6.621  11.995  0.00  0.00    +0.000 A 
ATOM      4  C   UNL     1      45.909   6.565  12.185  0.00  0.00    +0.000 A 
ATOM      5  N   UNL     1      45.165   7.675  12.428  0.00  0.00    +0.000 NA
ATOM      6  C   UNL     1      45.812   8.864  12.468  0.00  0.00    +0.000 A 
ENDROOT
BRANCH   1   7
ATOM      7  C   UNL     1      47.821  10.375  12.281  0.00  0.00    +0.000 C 
BRANCH   7   8
ATOM      8  N   UNL     1      46.837  11.427  12.508  0.00  0.00    +0.000 NA
ATOM      9  H   UNL     1      46.432  11.316  13.437  0.00  0.00    +0.000 HD
ATOM     10  H   UNL     1      46.071  11.316  11.845  0.00  0.00    +0.000 HD
ENDBRANCH   7   8
ENDBRANCH   1   7
BRANCH   4  11
ATOM     11  C   UNL     1      45.183   5.239  12.115  0.00  0.00    +0.000 C 
BRANCH  11  12
ATOM     12  O   UNL     1      44.412   5.183  10.914  0.00  0.00    +0.000 OA
BRANCH  12  13
ATOM     13  C   UNL     1      44.862   4.354   9.923  0.00  0.00    +0.000 A 
ATOM     14  C   UNL     1      45.612   4.727   8.813  0.00  0.00    +0.000 A 
ATOM     15  C   UNL     1      45.999   3.734   7.923  0.00  0.00    +0.000 A 
ATOM     16  N   UNL     1      45.691   2.428   8.064  0.00  0.00    +0.000 NA
ATOM     17  C   UNL     1      44.952   2.097   9.144  0.00  0.00    +0.000 A 
ATOM     18  C   UNL     1      44.520   3.014  10.087  0.00  0.00    +0.000 A 
ENDBRANCH  12  13
ENDBRANCH  11  12
ENDBRANCH   4  11
TORSDOF 5
ENDMDL
