MODEL 1
REMARK VINA RESULT:    -8.658      0.000      0.000
REMARK INTER + INTRA:         -12.210
REMARK INTER:                 -11.695
REMARK INTRA:                  -0.515
REMARK UNBOUND:                -0.515
REMARK  Name = 
REMARK  8 active torsions:
REMARK  status: ('A' for Active; 'I' for Inactive)
REMARK    1  A    between atoms: C_1  and  O_2
REMARK    2  A    between atoms: O_2  and  C_3
REMARK    3  A    between atoms: C_5  and  C_6
REMARK    4  A    between atoms: C_6  and  N_7
REMARK    5  A    between atoms: N_7  and  C_8
REMARK    6  A    between atoms: C_11  and  C_12
REMARK    7  A    between atoms: C_20  and  C_21
REMARK    8  A    between atoms: C_22  and  C_23
REMARK                            x       y       z     vdW  Elec       q    Type
REMARK                         _______ _______ _______ _____ _____    ______ ____
ROOT
ATOM      1  C   UNL     1      43.707   5.239  11.303  0.00  0.00    +0.000 C 
ATOM      2  C   UNL     1      42.258   5.372  11.749  0.00  0.00    +0.000 C 
ATOM      3  C   UNL     1      42.986   4.116  12.071  0.00  0.00    +0.000 C 
ENDROOT
BRANCH   1   6
ATOM      4  C   UNL     1      46.971   5.655  13.387  0.00  0.00    +0.000 A 
ATOM      5  C   UNL     1      45.800   5.090  12.834  0.00  0.00    +0.000 A 
ATOM      6  C   UNL     1      44.873   5.845  12.113  0.00  0.00    +0.000 A 
ATOM      7  C   UNL     1      45.113   7.226  12.090  0.00  0.00    +0.000 A 
ATOM      8  C   UNL     1      46.326   7.813  12.517  0.00  0.00    +0.000 A 
ATOM      9  C   UNL     1      46.506   9.261  12.126  0.00  0.00    +0.000 C 
ATOM     10  C   UNL     1      47.308   7.026  13.175  0.00  0.00    +0.000 A 
BRANCH  10  11
ATOM     11  C   UNL     1      48.665   7.563  13.545  0.00  0.00    +0.000 A 
ATOM     12  C   UNL     1      48.990   8.088  14.806  0.00  0.00    +0.000 A 
ATOM     13  C   UNL     1      50.239   8.667  15.059  0.00  0.00    +0.000 A 
ATOM     14  C   UNL     1      51.186   8.659  14.054  0.00  0.00    +0.000 A 
ATOM     15  N   UNL     1      50.956   8.142  12.836  0.00  0.00    +0.000 NA
ATOM     16  C   UNL     1      49.715   7.627  12.617  0.00  0.00    +0.000 A 
ENDBRANCH  10  11
BRANCH   4  18
ATOM     17  C   UNL     1      47.472   4.506  15.443  0.00  0.00    +0.000 C 
ATOM     18  O   UNL     1      47.856   4.907  14.134  0.00  0.00    +0.000 OA
ENDBRANCH   4  18
ENDBRANCH   1   6
BRANCH   1  19
ATOM     19  N   UNL     1      43.944   5.079   9.850  0.00  0.00    +0.000 N 
ATOM     20  H   UNL     1      44.061   5.954   9.342  0.00  0.00    +0.000 HD
BRANCH  19  21
ATOM     21  C   UNL     1      44.763   4.068   9.290  0.00  0.00    +0.000 A 
ATOM     22  C   UNL     1      45.697   4.427   8.311  0.00  0.00    +0.000 A 
ATOM     23  C   UNL     1      46.467   3.458   7.666  0.00  0.00    +0.000 A 
ATOM     24  C   UNL     1      46.271   2.128   8.004  0.00  0.00    +0.000 A 
ATOM     25  N   UNL     1      45.370   1.717   8.936  0.00  0.00    +0.000 NA
ATOM     26  C   UNL     1      44.647   2.699   9.541  0.00  0.00    +0.000 A 
BRANCH  24  27
ATOM     27  C   UNL     1      47.077   1.067   7.319  0.00  0.00    +0.000 C 
ATOM     28  N   UNL     1      46.782  -0.225   7.670  0.00  0.00    +0.000 N 
ATOM     29  O   UNL     1      47.950   1.325   6.503  0.00  0.00    +0.000 OA
ATOM     30  H   UNL     1      46.052  -0.408   8.348  0.00  0.00    +0.000 HD
ATOM     31  H   UNL     1      47.289  -0.983   7.242  0.00  0.00    +0.000 HD
ENDBRANCH  24  27
ENDBRANCH  19  21
ENDBRANCH   1  19
TORSDOF 6
ENDMDL
MODEL 2
REMARK VINA RESULT:    -8.620      1.244      2.214
REMARK INTER + INTRA:         -12.158
REMARK INTER:                 -11.455
REMARK INTRA:                  -0.703
REMARK UNBOUND:                -0.515
REMARK  Name = 
REMARK  8 active torsions:
REMARK  status: ('A' for Active; 'I' for Inactive)
REMARK    1  A    between atoms: C_1  and  O_2
REMARK    2  A    between atoms: O_2  and  C_3
REMARK    3  A    between atoms: C_5  and  C_6
REMARK    4  A    between atoms: C_6  and  N_7
REMARK    5  A    between atoms: N_7  and  C_8
REMARK    6  A    between atoms: C_11  and  C_12
REMARK    7  A    between atoms: C_20  and  C_21
REMARK    8  A    between atoms: C_22  and  C_23
REMARK                            x       y       z     vdW  Elec       q    Type
REMARK                         _______ _______ _______ _____ _____    ______ ____
ROOT
ATOM      1  C   UNL     1      43.741   5.184  11.296  0.00  0.00    +0.000 C 
ATOM      2  C   UNL     1      42.404   5.548  11.924  0.00  0.00    +0.000 C 
ATOM      3  C   UNL     1      43.027   4.249  12.289  0.00  0.00    +0.000 C 
ENDROOT
BRANCH   1   6
ATOM      4  C   UNL     1      46.743   7.496  12.198  0.00  0.00    +0.000 A 
ATOM      5  C   UNL     1      45.632   6.952  11.516  0.00  0.00    +0.000 A 
ATOM      6  C   UNL     1      45.080   5.715  11.853  0.00  0.00    +0.000 A 
ATOM      7  C   UNL     1      45.785   4.988  12.822  0.00  0.00    +0.000 A 
ATOM      8  C   UNL     1      46.817   5.541  13.612  0.00  0.00    +0.000 A 
ATOM      9  C   UNL     1      47.232   4.701  14.798  0.00  0.00    +0.000 C 
ATOM     10  C   UNL     1      47.322   6.837  13.324  0.00  0.00    +0.000 A 
BRANCH  10  11
ATOM     11  C   UNL     1      48.334   7.528  14.199  0.00  0.00    +0.000 A 
ATOM     12  C   UNL     1      48.007   8.404  15.245  0.00  0.00    +0.000 A 
ATOM     13  C   UNL     1      48.994   9.096  15.958  0.00  0.00    +0.000 A 
ATOM     14  C   UNL     1      50.318   8.854  15.654  0.00  0.00    +0.000 A 
ATOM     15  N   UNL     1      50.705   8.002  14.691  0.00  0.00    +0.000 NA
ATOM     16  C   UNL     1      49.714   7.380  13.993  0.00  0.00    +0.000 A 
ENDBRANCH  10  11
BRANCH   4  18
ATOM     17  C   UNL     1      46.584   9.897  12.088  0.00  0.00    +0.000 C 
ATOM     18  O   UNL     1      47.306   8.699  11.827  0.00  0.00    +0.000 OA
ENDBRANCH   4  18
ENDBRANCH   1   6
BRANCH   1  19
ATOM     19  N   UNL     1      43.729   4.847   9.855  0.00  0.00    +0.000 N 
ATOM     20  H   UNL     1      43.525   5.632   9.238  0.00  0.00    +0.000 HD
BRANCH  19  21
ATOM     21  C   UNL     1      44.653   3.965   9.243  0.00  0.00    +0.000 A 
ATOM     22  C   UNL     1      45.570   4.487   8.322  0.00  0.00    +0.000 A 
ATOM     23  C   UNL     1      46.444   3.648   7.628  0.00  0.00    +0.000 A 
ATOM     24  C   UNL     1      46.367   2.283   7.855  0.00  0.00    +0.000 A 
ATOM     25  N   UNL     1      45.489   1.716   8.726  0.00  0.00    +0.000 NA
ATOM     26  C   UNL     1      44.663   2.575   9.383  0.00  0.00    +0.000 A 
BRANCH  24  27
ATOM     27  C   UNL     1      47.286   1.360   7.115  0.00  0.00    +0.000 C 
ATOM     28  N   UNL     1      48.340   1.957   6.473  0.00  0.00    +0.000 N 
ATOM     29  O   UNL     1      47.115   0.150   7.074  0.00  0.00    +0.000 OA
ATOM     30  H   UNL     1      48.458   2.962   6.526  0.00  0.00    +0.000 HD
ATOM     31  H   UNL     1      48.994   1.388   5.958  0.00  0.00    +0.000 HD
ENDBRANCH  24  27
ENDBRANCH  19  21
ENDBRANCH   1  19
TORSDOF 6
ENDMDL
MODEL 3
REMARK VINA RESULT:    -7.883      2.178      3.004
REMARK INTER + INTRA:         -11.163
REMARK INTER:                 -10.579
REMARK INTRA:                  -0.584
REMARK UNBOUND:                -0.515
REMARK  Name = 
REMARK  8 active torsions:
REMARK  status: ('A' for Active; 'I' for Inactive)
REMARK    1  A    between atoms: C_1  and  O_2
REMARK    2  A    between atoms: O_2  and  C_3
REMARK    3  A    between atoms: C_5  and  C_6
REMARK    4  A    between atoms: C_6  and  N_7
REMARK    5  A    between atoms: N_7  and  C_8
REMARK    6  A    between atoms: C_11  and  C_12
REMARK    7  A    between atoms: C_20  and  C_21
REMARK    8  A    between atoms: C_22  and  C_23
REMARK                            x       y       z     vdW  Elec       q    Type
REMARK                         _______ _______ _______ _____ _____    ______ ____
ROOT
ATOM      1  C   UNL     1      44.080   4.987  11.608  0.00  0.00    +0.000 C 
ATOM      2  C   UNL     1      43.081   4.828  12.744  0.00  0.00    +0.000 C 
ATOM      3  C   UNL     1      44.328   4.020  12.780  0.00  0.00    +0.000 C 
ENDROOT
BRANCH   1   6
ATOM      4  C   UNL     1      45.703   8.527  11.591  0.00  0.00    +0.000 A 
ATOM      5  C   UNL     1      44.771   7.484  11.406  0.00  0.00    +0.000 A 
ATOM      6  C   UNL     1      45.107   6.140  11.575  0.00  0.00    +0.000 A 
ATOM      7  C   UNL     1      46.467   5.887  11.808  0.00  0.00    +0.000 A 
ATOM      8  C   UNL     1      47.403   6.897  12.122  0.00  0.00    +0.000 A 
ATOM      9  C   UNL     1      48.732   6.396  12.638  0.00  0.00    +0.000 C 
ATOM     10  C   UNL     1      47.036   8.266  12.033  0.00  0.00    +0.000 A 
BRANCH  10  11
ATOM     11  C   UNL     1      47.948   9.382  12.469  0.00  0.00    +0.000 A 
ATOM     12  C   UNL     1      48.724  10.156  11.592  0.00  0.00    +0.000 A 
ATOM     13  C   UNL     1      49.631  11.112  12.065  0.00  0.00    +0.000 A 
ATOM     14  C   UNL     1      49.708  11.331  13.426  0.00  0.00    +0.000 A 
ATOM     15  N   UNL     1      48.970  10.654  14.319  0.00  0.00    +0.000 NA
ATOM     16  C   UNL     1      48.131   9.703  13.822  0.00  0.00    +0.000 A 
ENDBRANCH  10  11
BRANCH   4  18
ATOM     17  C   UNL     1      44.088  10.301  11.799  0.00  0.00    +0.000 C 
ATOM     18  O   UNL     1      45.369   9.848  11.378  0.00  0.00    +0.000 OA
ENDBRANCH   4  18
ENDBRANCH   1   6
BRANCH   1  19
ATOM     19  N   UNL     1      43.685   4.437  10.292  0.00  0.00    +0.000 N 
ATOM     20  H   UNL     1      42.949   4.958   9.819  0.00  0.00    +0.000 HD
BRANCH  19  21
ATOM     21  C   UNL     1      44.601   3.909   9.349  0.00  0.00    +0.000 A 
ATOM     22  C   UNL     1      44.817   2.526   9.324  0.00  0.00    +0.000 A 
ATOM     23  C   UNL     1      45.771   1.964   8.474  0.00  0.00    +0.000 A 
ATOM     24  C   UNL     1      46.517   2.812   7.670  0.00  0.00    +0.000 A 
ATOM     25  N   UNL     1      46.364   4.163   7.660  0.00  0.00    +0.000 NA
ATOM     26  C   UNL     1      45.417   4.662   8.501  0.00  0.00    +0.000 A 
BRANCH  24  27
ATOM     27  C   UNL     1      47.556   2.236   6.757  0.00  0.00    +0.000 C 
ATOM     28  N   UNL     1      47.760   2.914   5.583  0.00  0.00    +0.000 N 
ATOM     29  O   UNL     1      48.184   1.223   7.028  0.00  0.00    +0.000 OA
ATOM     30  H   UNL     1      47.226   3.753   5.387  0.00  0.00    +0.000 HD
ATOM     31  H   UNL     1      48.447   2.577   4.928  0.00  0.00    +0.000 HD
ENDBRANCH  24  27
ENDBRANCH  19  21
ENDBRANCH   1  19
TORSDOF 6
ENDMDL
MODEL 4
REMARK VINA RESULT:    -6.661      3.707      5.731
REMARK INTER + INTRA:          -9.512
REMARK INTER:                  -8.867
REMARK INTRA:                  -0.645
REMARK UNBOUND:                -0.515
REMARK  Name = 
REMARK  8 active torsions:
REMARK  status: ('A' for Active; 'I' for Inactive)
REMARK    1  A    between atoms: C_1  and  O_2
REMARK    2  A    between atoms: O_2  and  C_3
REMARK    3  A    between atoms: C_5  and  C_6
REMARK    4  A    between atoms: C_6  and  N_7
REMARK    5  A    between atoms: N_7  and  C_8
REMARK    6  A    between atoms: C_11  and  C_12
REMARK    7  A    between atoms: C_20  and  C_21
REMARK    8  A    between atoms: C_22  and  C_23
REMARK                            x       y       z     vdW  Elec       q    Type
REMARK                         _______ _______ _______ _____ _____    ______ ____
ROOT
ATOM      1  C   UNL     1      48.315   7.369  13.623  0.00  0.00    +0.000 C 
ATOM      2  C   UNL     1      48.991   7.406  12.261  0.00  0.00    +0.000 C 
ATOM      3  C   UNL     1      48.849   8.679  13.016  0.00  0.00    +0.000 C 
ENDROOT
BRANCH   1   6
ATOM      4  C   UNL     1      49.328   5.639  16.962  0.00  0.00    +0.000 A 
ATOM      5  C   UNL     1      48.542   6.159  15.910  0.00  0.00    +0.000 A 
ATOM      6  C   UNL     1      49.075   6.968  14.906  0.00  0.00    +0.000 A 
ATOM      7  C   UNL     1      50.414   7.341  15.085  0.00  0.00    +0.000 A 
ATOM      8  C   UNL     1      51.266   6.750  16.044  0.00  0.00    +0.000 A 
ATOM      9  C   UNL     1      52.734   7.062  15.873  0.00  0.00    +0.000 C 
ATOM     10  C   UNL     1      50.738   5.857  17.015  0.00  0.00    +0.000 A 
BRANCH  10  11
ATOM     11  C   UNL     1      51.609   5.104  17.985  0.00  0.00    +0.000 A 
ATOM     12  C   UNL     1      52.111   3.812  17.758  0.00  0.00    +0.000 A 
ATOM     13  C   UNL     1      52.831   3.123  18.740  0.00  0.00    +0.000 A 
ATOM     14  C   UNL     1      53.100   3.763  19.933  0.00  0.00    +0.000 A 
ATOM     15  N   UNL     1      52.682   5.010  20.205  0.00  0.00    +0.000 NA
ATOM     16  C   UNL     1      51.949   5.631  19.240  0.00  0.00    +0.000 A 
ENDBRANCH  10  11
BRANCH   4  18
ATOM     17  C   UNL     1      47.496   4.299  17.768  0.00  0.00    +0.000 C 
ATOM     18  O   UNL     1      48.780   4.877  17.972  0.00  0.00    +0.000 OA
ENDBRANCH   4  18
ENDBRANCH   1   6
BRANCH   1  19
ATOM     19  N   UNL     1      46.854   7.126  13.635  0.00  0.00    +0.000 N 
ATOM     20  H   UNL     1      46.284   7.965  13.550  0.00  0.00    +0.000 HD
BRANCH  19  21
ATOM     21  C   UNL     1      46.230   6.036  12.980  0.00  0.00    +0.000 A 
ATOM     22  C   UNL     1      45.624   6.258  11.737  0.00  0.00    +0.000 A 
ATOM     23  C   UNL     1      44.922   5.239  11.090  0.00  0.00    +0.000 A 
ATOM     24  C   UNL     1      44.821   4.007  11.718  0.00  0.00    +0.000 A 
ATOM     25  N   UNL     1      45.375   3.736  12.930  0.00  0.00    +0.000 NA
ATOM     26  C   UNL     1      46.054   4.758  13.517  0.00  0.00    +0.000 A 
BRANCH  24  27
ATOM     27  C   UNL     1      44.064   2.901  11.050  0.00  0.00    +0.000 C 
ATOM     28  N   UNL     1      44.684   2.319   9.975  0.00  0.00    +0.000 N 
ATOM     29  O   UNL     1      42.960   2.535  11.427  0.00  0.00    +0.000 OA
ATOM     30  H   UNL     1      45.600   2.642   9.687  0.00  0.00    +0.000 HD
ATOM     31  H   UNL     1      44.225   1.568   9.485  0.00  0.00    +0.000 HD
ENDBRANCH  24  27
ENDBRANCH  19  21
ENDBRANCH   1  19
TORSDOF 6
ENDMDL
MODEL 5
REMARK VINA RESULT:    -6.458      3.189      4.965
REMARK INTER + INTRA:          -9.238
REMARK INTER:                  -8.323
REMARK INTRA:                  -0.916
REMARK UNBOUND:                -0.515
REMARK  Name = 
REMARK  8 active torsions:
REMARK  status: ('A' for Active; 'I' for Inactive)
REMARK    1  A    between atoms: C_1  and  O_2
REMARK    2  A    between atoms: O_2  and  C_3
REMARK    3  A    between atoms: C_5  and  C_6
REMARK    4  A    between atoms: C_6  and  N_7
REMARK    5  A    between atoms: N_7  and  C_8
REMARK    6  A    between atoms: C_11  and  C_12
REMARK    7  A    between atoms: C_20  and  C_21
REMARK    8  A    between atoms: C_22  and  C_23
REMARK                            x       y       z     vdW  Elec       q    Type
REMARK                         _______ _______ _______ _____ _____    ______ ____
ROOT
ATOM      1  C   UNL     1      47.764   8.026  12.584  0.00  0.00    +0.000 C 
ATOM      2  C   UNL     1      48.847   7.852  11.530  0.00  0.00    +0.000 C 
ATOM      3  C   UNL     1      48.544   9.224  12.014  0.00  0.00    +0.000 C 
ENDROOT
BRANCH   1   6
ATOM      4  C   UNL     1      48.944   6.511  15.973  0.00  0.00    +0.000 A 
ATOM      5  C   UNL     1      48.501   6.612  14.636  0.00  0.00    +0.000 A 
ATOM      6  C   UNL     1      48.041   7.811  14.088  0.00  0.00    +0.000 A 
ATOM      7  C   UNL     1      47.921   8.876  14.992  0.00  0.00    +0.000 A 
ATOM      8  C   UNL     1      48.465   8.855  16.296  0.00  0.00    +0.000 A 
ATOM      9  C   UNL     1      48.502  10.195  16.993  0.00  0.00    +0.000 C 
ATOM     10  C   UNL     1      49.012   7.655  16.824  0.00  0.00    +0.000 A 
BRANCH  10  11
ATOM     11  C   UNL     1      49.713   7.599  18.155  0.00  0.00    +0.000 A 
ATOM     12  C   UNL     1      51.094   7.784  18.330  0.00  0.00    +0.000 A 
ATOM     13  C   UNL     1      51.703   7.618  19.579  0.00  0.00    +0.000 A 
ATOM     14  C   UNL     1      50.907   7.325  20.668  0.00  0.00    +0.000 A 
ATOM     15  N   UNL     1      49.576   7.170  20.581  0.00  0.00    +0.000 NA
ATOM     16  C   UNL     1      49.027   7.298  19.341  0.00  0.00    +0.000 A 
ENDBRANCH  10  11
BRANCH   4  18
ATOM     17  C   UNL     1      48.365   4.359  16.886  0.00  0.00    +0.000 C 
ATOM     18  O   UNL     1      49.355   5.311  16.514  0.00  0.00    +0.000 OA
ENDBRANCH   4  18
ENDBRANCH   1   6
BRANCH   1  19
ATOM     19  N   UNL     1      46.367   7.802  12.147  0.00  0.00    +0.000 N 
ATOM     20  H   UNL     1      46.021   8.482  11.473  0.00  0.00    +0.000 HD
BRANCH  19  21
ATOM     21  C   UNL     1      45.816   6.524  11.888  0.00  0.00    +0.000 A 
ATOM     22  C   UNL     1      45.806   6.052  10.570  0.00  0.00    +0.000 A 
ATOM     23  C   UNL     1      45.198   4.837  10.248  0.00  0.00    +0.000 A 
ATOM     24  C   UNL     1      44.585   4.118  11.262  0.00  0.00    +0.000 A 
ATOM     25  N   UNL     1      44.549   4.531  12.557  0.00  0.00    +0.000 NA
ATOM     26  C   UNL     1      45.161   5.717  12.822  0.00  0.00    +0.000 A 
BRANCH  24  27
ATOM     27  C   UNL     1      43.915   2.817  10.942  0.00  0.00    +0.000 C 
ATOM     28  N   UNL     1      44.442   2.120   9.885  0.00  0.00    +0.000 N 
ATOM     29  O   UNL     1      42.956   2.395  11.572  0.00  0.00    +0.000 OA
ATOM     30  H   UNL     1      45.239   2.494   9.383  0.00  0.00    +0.000 HD
ATOM     31  H   UNL     1      44.036   1.237   9.622  0.00  0.00    +0.000 HD
ENDBRANCH  24  27
ENDBRANCH  19  21
ENDBRANCH   1  19
TORSDOF 6
ENDMDL
MODEL 6
REMARK VINA RESULT:    -6.240      2.979      7.749
REMARK INTER + INTRA:          -8.944
REMARK INTER:                  -8.419
REMARK INTRA:                  -0.525
REMARK UNBOUND:                -0.515
REMARK  Name = 
REMARK  8 active torsions:
REMARK  status: ('A' for Active; 'I' for Inactive)
REMARK    1  A    between atoms: C_1  and  O_2
REMARK    2  A    between atoms: O_2  and  C_3
REMARK    3  A    between atoms: C_5  and  C_6
REMARK    4  A    between atoms: C_6  and  N_7
REMARK    5  A    between atoms: N_7  and  C_8
REMARK    6  A    between atoms: C_11  and  C_12
REMARK    7  A    between atoms: C_20  and  C_21
REMARK    8  A    between atoms: C_22  and  C_23
REMARK                            x       y       z     vdW  Elec       q    Type
REMARK                         _______ _______ _______ _____ _____    ______ ____
ROOT
ATOM      1  C   UNL     1      49.085   8.767  15.791  0.00  0.00    +0.000 C 
ATOM      2  C   UNL     1      49.273  10.277  15.804  0.00  0.00    +0.000 C 
ATOM      3  C   UNL     1      50.359   9.433  15.240  0.00  0.00    +0.000 C 
ENDROOT
BRANCH   1   6
ATOM      4  C   UNL     1      47.422   6.025  13.582  0.00  0.00    +0.000 A 
ATOM      5  C   UNL     1      48.325   6.676  14.451  0.00  0.00    +0.000 A 
ATOM      6  C   UNL     1      48.276   8.050  14.688  0.00  0.00    +0.000 A 
ATOM      7  C   UNL     1      47.359   8.762  13.903  0.00  0.00    +0.000 A 
ATOM      8  C   UNL     1      46.359   8.143  13.120  0.00  0.00    +0.000 A 
ATOM      9  C   UNL     1      45.287   9.073  12.602  0.00  0.00    +0.000 C 
ATOM     10  C   UNL     1      46.357   6.733  12.948  0.00  0.00    +0.000 A 
BRANCH  10  11
ATOM     11  C   UNL     1      45.253   6.004  12.228  0.00  0.00    +0.000 A 
ATOM     12  C   UNL     1      44.053   5.594  12.830  0.00  0.00    +0.000 A 
ATOM     13  C   UNL     1      43.108   4.830  12.135  0.00  0.00    +0.000 A 
ATOM     14  C   UNL     1      43.347   4.532  10.808  0.00  0.00    +0.000 A 
ATOM     15  N   UNL     1      44.455   4.923  10.159  0.00  0.00    +0.000 NA
ATOM     16  C   UNL     1      45.369   5.628  10.881  0.00  0.00    +0.000 A 
ENDBRANCH  10  11
BRANCH   4  18
ATOM     17  C   UNL     1      47.156   3.759  14.354  0.00  0.00    +0.000 C 
ATOM     18  O   UNL     1      47.508   4.673  13.322  0.00  0.00    +0.000 OA
ENDBRANCH   4  18
ENDBRANCH   1   6
BRANCH   1  19
ATOM     19  N   UNL     1      49.142   8.078  17.101  0.00  0.00    +0.000 N 
ATOM     20  H   UNL     1      48.353   8.272  17.715  0.00  0.00    +0.000 HD
BRANCH  19  21
ATOM     21  C   UNL     1      49.588   6.745  17.272  0.00  0.00    +0.000 A 
ATOM     22  C   UNL     1      50.945   6.461  17.078  0.00  0.00    +0.000 A 
ATOM     23  C   UNL     1      51.421   5.150  17.151  0.00  0.00    +0.000 A 
ATOM     24  C   UNL     1      50.512   4.133  17.400  0.00  0.00    +0.000 A 
ATOM     25  N   UNL     1      49.182   4.345  17.584  0.00  0.00    +0.000 NA
ATOM     26  C   UNL     1      48.768   5.639  17.509  0.00  0.00    +0.000 A 
BRANCH  24  27
ATOM     27  C   UNL     1      50.995   2.716  17.472  0.00  0.00    +0.000 C 
ATOM     28  N   UNL     1      51.963   2.464  18.409  0.00  0.00    +0.000 N 
ATOM     29  O   UNL     1      50.564   1.834  16.743  0.00  0.00    +0.000 OA
ATOM     30  H   UNL     1      52.299   3.215  19.001  0.00  0.00    +0.000 HD
ATOM     31  H   UNL     1      52.327   1.529  18.507  0.00  0.00    +0.000 HD
ENDBRANCH  24  27
ENDBRANCH  19  21
ENDBRANCH   1  19
TORSDOF 6
ENDMDL
MODEL 7
REMARK VINA RESULT:    -6.078      2.157      3.635
REMARK INTER + INTRA:          -8.725
REMARK INTER:                  -8.140
REMARK INTRA:                  -0.585
REMARK UNBOUND:                -0.515
REMARK  Name = 
REMARK  8 active torsions:
REMARK  status: ('A' for Active; 'I' for Inactive)
REMARK    1  A    between atoms: C_1  and  O_2
REMARK    2  A    between atoms: O_2  and  C_3
REMARK    3  A    between atoms: C_5  and  C_6
REMARK    4  A    between atoms: C_6  and  N_7
REMARK    5  A    between atoms: N_7  and  C_8
REMARK    6  A    between atoms: C_11  and  C_12
REMARK    7  A    between atoms: C_20  and  C_21
REMARK    8  A    between atoms: C_22  and  C_23
REMARK                            x       y       z     vdW  Elec       q    Type
REMARK                         _______ _______ _______ _____ _____    ______ ____
ROOT
ATOM      1  C   UNL     1      45.195   8.867  11.940  0.00  0.00    +0.000 C 
ATOM      2  C   UNL     1      44.582   9.680  10.810  0.00  0.00    +0.000 C 
ATOM      3  C   UNL     1      44.524  10.230  12.190  0.00  0.00    +0.000 C 
ENDROOT
BRANCH   1   6
ATOM      4  C   UNL     1      48.790   7.856  13.048  0.00  0.00    +0.000 A 
ATOM      5  C   UNL     1      47.381   7.909  12.967  0.00  0.00    +0.000 A 
ATOM      6  C   UNL     1      46.709   8.897  12.245  0.00  0.00    +0.000 A 
ATOM      7  C   UNL     1      47.520   9.910  11.717  0.00  0.00    +0.000 A 
ATOM      8  C   UNL     1      48.930   9.831  11.666  0.00  0.00    +0.000 A 
ATOM      9  C   UNL     1      49.596  10.866  10.789  0.00  0.00    +0.000 C 
ATOM     10  C   UNL     1      49.612   8.776  12.330  0.00  0.00    +0.000 A 
BRANCH  10  11
ATOM     11  C   UNL     1      51.099   8.570  12.213  0.00  0.00    +0.000 A 
ATOM     12  C   UNL     1      52.039   9.050  13.138  0.00  0.00    +0.000 A 
ATOM     13  C   UNL     1      53.415   8.915  12.922  0.00  0.00    +0.000 A 
ATOM     14  C   UNL     1      53.843   8.236  11.799  0.00  0.00    +0.000 A 
ATOM     15  N   UNL     1      53.000   7.719  10.890  0.00  0.00    +0.000 NA
ATOM     16  C   UNL     1      51.670   7.909  11.115  0.00  0.00    +0.000 A 
ENDBRANCH  10  11
BRANCH   4  18
ATOM     17  C   UNL     1      49.225   6.881  15.207  0.00  0.00    +0.000 C 
ATOM     18  O   UNL     1      49.440   6.901  13.800  0.00  0.00    +0.000 OA
ENDBRANCH   4  18
ENDBRANCH   1   6
BRANCH   1  19
ATOM     19  N   UNL     1      44.481   7.631  12.334  0.00  0.00    +0.000 N 
ATOM     20  H   UNL     1      43.563   7.786  12.746  0.00  0.00    +0.000 HD
BRANCH  19  21
ATOM     21  C   UNL     1      44.486   6.439  11.570  0.00  0.00    +0.000 A 
ATOM     22  C   UNL     1      45.548   6.213  10.686  0.00  0.00    +0.000 A 
ATOM     23  C   UNL     1      45.558   5.096   9.848  0.00  0.00    +0.000 A 
ATOM     24  C   UNL     1      44.479   4.226   9.897  0.00  0.00    +0.000 A 
ATOM     25  N   UNL     1      43.414   4.400  10.724  0.00  0.00    +0.000 NA
ATOM     26  C   UNL     1      43.454   5.499  11.525  0.00  0.00    +0.000 A 
BRANCH  24  27
ATOM     27  C   UNL     1      44.460   3.026   9.001  0.00  0.00    +0.000 C 
ATOM     28  N   UNL     1      44.518   3.286   7.656  0.00  0.00    +0.000 N 
ATOM     29  O   UNL     1      44.391   1.883   9.429  0.00  0.00    +0.000 OA
ATOM     30  H   UNL     1      44.576   4.243   7.331  0.00  0.00    +0.000 HD
ATOM     31  H   UNL     1      44.510   2.519   7.002  0.00  0.00    +0.000 HD
ENDBRANCH  24  27
ENDBRANCH  19  21
ENDBRANCH   1  19
TORSDOF 6
ENDMDL
