MODEL 1
REMARK VINA RESULT:    -8.450      0.000      0.000
REMARK INTER + INTRA:         -11.621
REMARK INTER:                 -11.167
REMARK INTRA:                  -0.454
REMARK UNBOUND:                -0.454
REMARK  Name = 
REMARK  6 active torsions:
REMARK  status: ('A' for Active; 'I' for Inactive)
REMARK    1  A    between atoms: N_1  and  C_2
REMARK    2  A    between atoms: C_2  and  C_3
REMARK    3  A    between atoms: C_7  and  C_8
REMARK    4  A    between atoms: C_8  and  C_9
REMARK    5  A    between atoms: C_9  and  N_10
REMARK    6  A    between atoms: C_14  and  C_15
REMARK                            x       y       z     vdW  Elec       q    Type
REMARK                         _______ _______ _______ _____ _____    ______ ____
ROOT
ATOM      1  N   UNL     1      43.771   4.943   9.555  0.00  0.00    +0.000 N 
ATOM      2  C   UNL     1      44.564   3.956   8.973  0.00  0.00    +0.000 A 
ATOM      3  N   UNL     1      44.429   2.680   9.361  0.00  0.00    +0.000 NA
ATOM      4  C   UNL     1      45.262   1.769   8.815  0.00  0.00    +0.000 A 
ATOM      5  C   UNL     1      46.212   2.079   7.872  0.00  0.00    +0.000 A 
ATOM      6  C   UNL     1      46.269   3.408   7.527  0.00  0.00    +0.000 A 
ATOM      7  N   UNL     1      45.464   4.360   8.062  0.00  0.00    +0.000 NA
ATOM      8  H   UNL     1      44.262   5.819   9.417  0.00  0.00    +0.000 HD
ENDROOT
BRANCH   5   9
ATOM      9  C   UNL     1      47.101   1.026   7.360  0.00  0.00    +0.000 C 
ATOM     10  N   UNL     1      46.826  -0.271   7.683  0.00  0.00    +0.000 N 
ATOM     11  O   UNL     1      48.082   1.309   6.685  0.00  0.00    +0.000 OA
ATOM     12  H   UNL     1      46.191  -0.548   8.418  0.00  0.00    +0.000 HD
ATOM     13  H   UNL     1      47.520  -0.952   7.394  0.00  0.00    +0.000 HD
ENDBRANCH   5   9
BRANCH   1  14
ATOM     14  C   UNL     1      43.391   4.629  10.930  0.00  0.00    +0.000 C 
BRANCH  14  15
ATOM     15  C   UNL     1      43.571   5.841  11.850  0.00  0.00    +0.000 C 
BRANCH  15  20
ATOM     16  C   UNL     1      46.764   5.249  13.889  0.00  0.00    +0.000 A 
ATOM     17  C   UNL     1      47.683   6.013  13.156  0.00  0.00    +0.000 A 
ATOM     18  C   UNL     1      47.271   6.740  12.039  0.00  0.00    +0.000 A 
ATOM     19  C   UNL     1      45.938   6.705  11.632  0.00  0.00    +0.000 A 
ATOM     20  C   UNL     1      45.000   5.942  12.339  0.00  0.00    +0.000 A 
ATOM     21  C   UNL     1      45.424   5.218  13.467  0.00  0.00    +0.000 A 
BRANCH  16  22
ATOM     22  C   UNL     1      47.222   4.436  15.075  0.00  0.00    +0.000 C 
BRANCH  22  23
ATOM     23  N   UNL     1      47.594   3.077  14.695  0.00  0.00    +0.000 NA
ATOM     24  H   UNL     1      48.191   2.681  15.417  0.00  0.00    +0.000 HD
ATOM     25  H   UNL     1      48.155   3.120  13.845  0.00  0.00    +0.000 HD
ENDBRANCH  22  23
ENDBRANCH  16  22
ENDBRANCH  15  20
ENDBRANCH  14  15
ENDBRANCH   1  14
TORSDOF 6
ENDMDL
MODEL 2
REMARK VINA RESULT:    -8.036      1.729      2.147
REMARK INTER + INTRA:         -11.074
REMARK INTER:                 -10.592
REMARK INTRA:                  -0.483
REMARK UNBOUND:                -0.454
REMARK  Name = 
REMARK  6 active torsions:
REMARK  status: ('A' for Active; 'I' for Inactive)
REMARK    1  A    between atoms: N_1  and  C_2
REMARK    2  A    between atoms: C_2  and  C_3
REMARK    3  A    between atoms: C_7  and  C_8
REMARK    4  A    between atoms: C_8  and  C_9
REMARK    5  A    between atoms: C_9  and  N_10
REMARK    6  A    between atoms: C_14  and  C_15
REMARK                            x       y       z     vdW  Elec       q    Type
REMARK                         _______ _______ _______ _____ _____    ______ ____
ROOT
ATOM      1  N   UNL     1      43.776   4.749   9.883  0.00  0.00    +0.000 N 
ATOM      2  C   UNL     1      44.670   4.008   9.113  0.00  0.00    +0.000 A 
ATOM      3  N   UNL     1      44.640   2.669   9.163  0.00  0.00    +0.000 NA
ATOM      4  C   UNL     1      45.566   1.996   8.447  0.00  0.00    +0.000 A 
ATOM      5  C   UNL     1      46.509   2.610   7.659  0.00  0.00    +0.000 A 
ATOM      6  C   UNL     1      46.455   3.983   7.660  0.00  0.00    +0.000 A 
ATOM      7  N   UNL     1      45.554   4.701   8.376  0.00  0.00    +0.000 NA
ATOM      8  H   UNL     1      44.190   5.668   9.993  0.00  0.00    +0.000 HD
ENDROOT
BRANCH   5   9
ATOM      9  C   UNL     1      47.503   1.796   6.944  0.00  0.00    +0.000 C 
ATOM     10  N   UNL     1      48.577   2.424   6.384  0.00  0.00    +0.000 N 
ATOM     11  O   UNL     1      47.353   0.586   6.828  0.00  0.00    +0.000 OA
ATOM     12  H   UNL     1      48.635   3.421   6.236  0.00  0.00    +0.000 HD
ATOM     13  H   UNL     1      49.180   1.838   5.817  0.00  0.00    +0.000 HD
ENDBRANCH   5   9
BRANCH   1  14
ATOM     14  C   UNL     1      43.390   4.068  11.116  0.00  0.00    +0.000 C 
BRANCH  14  15
ATOM     15  C   UNL     1      43.429   5.020  12.317  0.00  0.00    +0.000 C 
BRANCH  15  20
ATOM     16  C   UNL     1      46.652   6.907  13.181  0.00  0.00    +0.000 A 
ATOM     17  C   UNL     1      47.449   5.853  13.651  0.00  0.00    +0.000 A 
ATOM     18  C   UNL     1      46.967   4.545  13.656  0.00  0.00    +0.000 A 
ATOM     19  C   UNL     1      45.677   4.271  13.201  0.00  0.00    +0.000 A 
ATOM     20  C   UNL     1      44.856   5.305  12.736  0.00  0.00    +0.000 A 
ATOM     21  C   UNL     1      45.354   6.620  12.729  0.00  0.00    +0.000 A 
BRANCH  16  22
ATOM     22  C   UNL     1      47.167   8.325  13.212  0.00  0.00    +0.000 C 
BRANCH  22  23
ATOM     23  N   UNL     1      47.122   8.893  14.556  0.00  0.00    +0.000 NA
ATOM     24  H   UNL     1      46.747   9.837  14.505  0.00  0.00    +0.000 HD
ATOM     25  H   UNL     1      48.077   8.978  14.904  0.00  0.00    +0.000 HD
ENDBRANCH  22  23
ENDBRANCH  16  22
ENDBRANCH  15  20
ENDBRANCH  14  15
ENDBRANCH   1  14
TORSDOF 6
ENDMDL
MODEL 3
REMARK VINA RESULT:    -7.724      2.908      6.416
REMARK INTER + INTRA:         -10.661
REMARK INTER:                 -10.105
REMARK INTRA:                  -0.556
REMARK UNBOUND:                -0.454
REMARK  Name = 
REMARK  6 active torsions:
REMARK  status: ('A' for Active; 'I' for Inactive)
REMARK    1  A    between atoms: N_1  and  C_2
REMARK    2  A    between atoms: C_2  and  C_3
REMARK    3  A    between atoms: C_7  and  C_8
REMARK    4  A    between atoms: C_8  and  C_9
REMARK    5  A    between atoms: C_9  and  N_10
REMARK    6  A    between atoms: C_14  and  C_15
REMARK                            x       y       z     vdW  Elec       q    Type
REMARK                         _______ _______ _______ _____ _____    ______ ____
ROOT
ATOM      1  N   UNL     1      44.027   3.626  12.787  0.00  0.00    +0.000 N 
ATOM      2  C   UNL     1      45.091   4.487  13.050  0.00  0.00    +0.000 A 
ATOM      3  N   UNL     1      45.190   5.646  12.385  0.00  0.00    +0.000 NA
ATOM      4  C   UNL     1      46.271   6.417  12.628  0.00  0.00    +0.000 A 
ATOM      5  C   UNL     1      47.251   6.086  13.532  0.00  0.00    +0.000 A 
ATOM      6  C   UNL     1      47.059   4.887  14.175  0.00  0.00    +0.000 A 
ATOM      7  N   UNL     1      45.998   4.072  13.950  0.00  0.00    +0.000 NA
ATOM      8  H   UNL     1      44.327   2.705  13.085  0.00  0.00    +0.000 HD
ENDROOT
BRANCH   5   9
ATOM      9  C   UNL     1      48.413   6.970  13.704  0.00  0.00    +0.000 C 
ATOM     10  N   UNL     1      48.427   8.161  13.039  0.00  0.00    +0.000 N 
ATOM     11  O   UNL     1      49.358   6.632  14.404  0.00  0.00    +0.000 OA
ATOM     12  H   UNL     1      47.808   8.389  12.273  0.00  0.00    +0.000 HD
ATOM     13  H   UNL     1      49.289   8.691  13.106  0.00  0.00    +0.000 HD
ENDBRANCH   5   9
BRANCH   1  14
ATOM     14  C   UNL     1      43.540   3.730  11.414  0.00  0.00    +0.000 C 
BRANCH  14  15
ATOM     15  C   UNL     1      43.950   2.510  10.582  0.00  0.00    +0.000 C 
BRANCH  15  20
ATOM     16  C   UNL     1      46.490   2.267   7.720  0.00  0.00    +0.000 A 
ATOM     17  C   UNL     1      46.618   3.619   7.373  0.00  0.00    +0.000 A 
ATOM     18  C   UNL     1      45.922   4.601   8.076  0.00  0.00    +0.000 A 
ATOM     19  C   UNL     1      45.079   4.247   9.129  0.00  0.00    +0.000 A 
ATOM     20  C   UNL     1      44.925   2.902   9.491  0.00  0.00    +0.000 A 
ATOM     21  C   UNL     1      45.636   1.920   8.780  0.00  0.00    +0.000 A 
BRANCH  16  22
ATOM     22  C   UNL     1      47.219   1.205   6.933  0.00  0.00    +0.000 C 
BRANCH  22  23
ATOM     23  N   UNL     1      48.358   1.752   6.203  0.00  0.00    +0.000 NA
ATOM     24  H   UNL     1      48.185   2.734   6.003  0.00  0.00    +0.000 HD
ATOM     25  H   UNL     1      48.424   1.279   5.303  0.00  0.00    +0.000 HD
ENDBRANCH  22  23
ENDBRANCH  16  22
ENDBRANCH  15  20
ENDBRANCH  14  15
ENDBRANCH   1  14
TORSDOF 6
ENDMDL
MODEL 4
REMARK VINA RESULT:    -7.397      1.868      2.944
REMARK INTER + INTRA:         -10.229
REMARK INTER:                 -10.459
REMARK INTRA:                   0.230
REMARK UNBOUND:                -0.454
REMARK  Name = 
REMARK  6 active torsions:
REMARK  status: ('A' for Active; 'I' for Inactive)
REMARK    1  A    between atoms: N_1  and  C_2
REMARK    2  A    between atoms: C_2  and  C_3
REMARK    3  A    between atoms: C_7  and  C_8
REMARK    4  A    between atoms: C_8  and  C_9
REMARK    5  A    between atoms: C_9  and  N_10
REMARK    6  A    between atoms: C_14  and  C_15
REMARK                            x       y       z     vdW  Elec       q    Type
REMARK                         _______ _______ _______ _____ _____    ______ ____
ROOT
ATOM      1  N   UNL     1      43.836   4.863   9.737  0.00  0.00    +0.000 N 
ATOM      2  C   UNL     1      44.672   4.001   9.031  0.00  0.00    +0.000 A 
ATOM      3  N   UNL     1      44.689   2.695   9.331  0.00  0.00    +0.000 NA
ATOM      4  C   UNL     1      45.560   1.910   8.663  0.00  0.00    +0.000 A 
ATOM      5  C   UNL     1      46.403   2.376   7.683  0.00  0.00    +0.000 A 
ATOM      6  C   UNL     1      46.307   3.724   7.434  0.00  0.00    +0.000 A 
ATOM      7  N   UNL     1      45.459   4.553   8.093  0.00  0.00    +0.000 NA
ATOM      8  H   UNL     1      44.231   5.790   9.632  0.00  0.00    +0.000 HD
ENDROOT
BRANCH   5   9
ATOM      9  C   UNL     1      47.346   1.453   7.034  0.00  0.00    +0.000 C 
ATOM     10  N   UNL     1      48.511   1.958   6.536  0.00  0.00    +0.000 N 
ATOM     11  O   UNL     1      47.077   0.264   6.917  0.00  0.00    +0.000 OA
ATOM     12  H   UNL     1      48.682   2.942   6.385  0.00  0.00    +0.000 HD
ATOM     13  H   UNL     1      49.082   1.306   6.010  0.00  0.00    +0.000 HD
ENDBRANCH   5   9
BRANCH   1  14
ATOM     14  C   UNL     1      43.594   4.421  11.108  0.00  0.00    +0.000 C 
BRANCH  14  15
ATOM     15  C   UNL     1      44.874   4.475  11.948  0.00  0.00    +0.000 C 
BRANCH  15  20
ATOM     16  C   UNL     1      45.040   8.301  11.777  0.00  0.00    +0.000 A 
ATOM     17  C   UNL     1      46.266   8.535  12.416  0.00  0.00    +0.000 A 
ATOM     18  C   UNL     1      47.047   7.471  12.864  0.00  0.00    +0.000 A 
ATOM     19  C   UNL     1      46.610   6.157  12.691  0.00  0.00    +0.000 A 
ATOM     20  C   UNL     1      45.385   5.895  12.065  0.00  0.00    +0.000 A 
ATOM     21  C   UNL     1      44.608   6.975  11.611  0.00  0.00    +0.000 A 
BRANCH  16  22
ATOM     22  C   UNL     1      44.183   9.458  11.326  0.00  0.00    +0.000 C 
BRANCH  22  23
ATOM     23  N   UNL     1      42.933   9.009  10.720  0.00  0.00    +0.000 NA
ATOM     24  H   UNL     1      42.195   9.038  11.420  0.00  0.00    +0.000 HD
ATOM     25  H   UNL     1      43.038   8.032  10.448  0.00  0.00    +0.000 HD
ENDBRANCH  22  23
ENDBRANCH  16  22
ENDBRANCH  15  20
ENDBRANCH  14  15
ENDBRANCH   1  14
TORSDOF 6
ENDMDL
MODEL 5
REMARK VINA RESULT:    -7.100      2.915      7.028
REMARK INTER + INTRA:          -9.836
REMARK INTER:                  -9.526
REMARK INTRA:                  -0.311
REMARK UNBOUND:                -0.454
REMARK  Name = 
REMARK  6 active torsions:
REMARK  status: ('A' for Active; 'I' for Inactive)
REMARK    1  A    between atoms: N_1  and  C_2
REMARK    2  A    between atoms: C_2  and  C_3
REMARK    3  A    between atoms: C_7  and  C_8
REMARK    4  A    between atoms: C_8  and  C_9
REMARK    5  A    between atoms: C_9  and  N_10
REMARK    6  A    between atoms: C_14  and  C_15
REMARK                            x       y       z     vdW  Elec       q    Type
REMARK                         _______ _______ _______ _____ _____    ______ ____
ROOT
ATOM      1  N   UNL     1      44.758   4.304  11.496  0.00  0.00    +0.000 N 
ATOM      2  C   UNL     1      45.629   4.763  12.483  0.00  0.00    +0.000 A 
ATOM      3  N   UNL     1      46.069   6.028  12.447  0.00  0.00    +0.000 NA
ATOM      4  C   UNL     1      46.960   6.407  13.387  0.00  0.00    +0.000 A 
ATOM      5  C   UNL     1      47.411   5.576  14.384  0.00  0.00    +0.000 A 
ATOM      6  C   UNL     1      46.896   4.303  14.349  0.00  0.00    +0.000 A 
ATOM      7  N   UNL     1      46.012   3.873  13.413  0.00  0.00    +0.000 NA
ATOM      8  H   UNL     1      44.848   3.295  11.484  0.00  0.00    +0.000 HD
ENDROOT
BRANCH   5   9
ATOM      9  C   UNL     1      48.411   6.066  15.344  0.00  0.00    +0.000 C 
ATOM     10  N   UNL     1      48.116   6.012  16.675  0.00  0.00    +0.000 N 
ATOM     11  O   UNL     1      49.471   6.540  14.956  0.00  0.00    +0.000 OA
ATOM     12  H   UNL     1      47.186   5.863  17.043  0.00  0.00    +0.000 HD
ATOM     13  H   UNL     1      48.790   6.452  17.292  0.00  0.00    +0.000 HD
ENDBRANCH   5   9
BRANCH   1  14
ATOM     14  C   UNL     1      44.946   4.981  10.216  0.00  0.00    +0.000 C 
BRANCH  14  15
ATOM     15  C   UNL     1      44.201   4.260   9.087  0.00  0.00    +0.000 C 
BRANCH  15  20
ATOM     16  C   UNL     1      46.777   2.643   6.754  0.00  0.00    +0.000 A 
ATOM     17  C   UNL     1      46.843   1.352   7.297  0.00  0.00    +0.000 A 
ATOM     18  C   UNL     1      46.040   0.996   8.380  0.00  0.00    +0.000 A 
ATOM     19  C   UNL     1      45.167   1.927   8.943  0.00  0.00    +0.000 A 
ATOM     20  C   UNL     1      45.088   3.226   8.427  0.00  0.00    +0.000 A 
ATOM     21  C   UNL     1      45.898   3.574   7.331  0.00  0.00    +0.000 A 
BRANCH  16  22
ATOM     22  C   UNL     1      47.674   3.033   5.605  0.00  0.00    +0.000 C 
BRANCH  22  23
ATOM     23  N   UNL     1      48.411   1.890   5.075  0.00  0.00    +0.000 NA
ATOM     24  H   UNL     1      49.366   2.175   4.870  0.00  0.00    +0.000 HD
ATOM     25  H   UNL     1      47.992   1.618   4.186  0.00  0.00    +0.000 HD
ENDBRANCH  22  23
ENDBRANCH  16  22
ENDBRANCH  15  20
ENDBRANCH  14  15
ENDBRANCH   1  14
TORSDOF 6
ENDMDL
MODEL 6
REMARK VINA RESULT:    -6.737      3.845      6.305
REMARK INTER + INTRA:          -9.358
REMARK INTER:                  -9.031
REMARK INTRA:                  -0.326
REMARK UNBOUND:                -0.454
REMARK  Name = 
REMARK  6 active torsions:
REMARK  status: ('A' for Active; 'I' for Inactive)
REMARK    1  A    between atoms: N_1  and  C_2
REMARK    2  A    between atoms: C_2  and  C_3
REMARK    3  A    between atoms: C_7  and  C_8
REMARK    4  A    between atoms: C_8  and  C_9
REMARK    5  A    between atoms: C_9  and  N_10
REMARK    6  A    between atoms: C_14  and  C_15
REMARK                            x       y       z     vdW  Elec       q    Type
REMARK                         _______ _______ _______ _____ _____    ______ ____
ROOT
ATOM      1  N   UNL     1      47.262   3.413  14.741  0.00  0.00    +0.000 N 
ATOM      2  C   UNL     1      46.391   3.866  13.753  0.00  0.00    +0.000 A 
ATOM      3  N   UNL     1      46.025   5.155  13.728  0.00  0.00    +0.000 NA
ATOM      4  C   UNL     1      45.131   5.533  12.790  0.00  0.00    +0.000 A 
ATOM      5  C   UNL     1      44.605   4.676  11.855  0.00  0.00    +0.000 A 
ATOM      6  C   UNL     1      45.047   3.379  11.949  0.00  0.00    +0.000 A 
ATOM      7  N   UNL     1      45.931   2.950  12.885  0.00  0.00    +0.000 NA
ATOM      8  H   UNL     1      47.114   2.413  14.813  0.00  0.00    +0.000 HD
ENDROOT
BRANCH   5   9
ATOM      9  C   UNL     1      43.607   5.170  10.894  0.00  0.00    +0.000 C 
ATOM     10  N   UNL     1      43.775   4.874   9.572  0.00  0.00    +0.000 N 
ATOM     11  O   UNL     1      42.665   5.857  11.268  0.00  0.00    +0.000 OA
ATOM     12  H   UNL     1      44.637   4.528   9.175  0.00  0.00    +0.000 HD
ATOM     13  H   UNL     1      43.121   5.318   8.938  0.00  0.00    +0.000 HD
ENDBRANCH   5   9
BRANCH   1  14
ATOM     14  C   UNL     1      47.150   4.169  15.986  0.00  0.00    +0.000 C 
BRANCH  14  15
ATOM     15  C   UNL     1      47.644   3.351  17.184  0.00  0.00    +0.000 C 
BRANCH  15  20
ATOM     16  C   UNL     1      51.387   2.623  17.584  0.00  0.00    +0.000 A 
ATOM     17  C   UNL     1      51.898   3.927  17.651  0.00  0.00    +0.000 A 
ATOM     18  C   UNL     1      51.043   5.027  17.604  0.00  0.00    +0.000 A 
ATOM     19  C   UNL     1      49.666   4.842  17.478  0.00  0.00    +0.000 A 
ATOM     20  C   UNL     1      49.130   3.551  17.400  0.00  0.00    +0.000 A 
ATOM     21  C   UNL     1      49.999   2.447  17.455  0.00  0.00    +0.000 A 
BRANCH  16  22
ATOM     22  C   UNL     1      52.320   1.437  17.600  0.00  0.00    +0.000 C 
BRANCH  22  23
ATOM     23  N   UNL     1      51.669   0.236  18.114  0.00  0.00    +0.000 NA
ATOM     24  H   UNL     1      50.744   0.155  17.699  0.00  0.00    +0.000 HD
ATOM     25  H   UNL     1      51.528   0.348  19.118  0.00  0.00    +0.000 HD
ENDBRANCH  22  23
ENDBRANCH  16  22
ENDBRANCH  15  20
ENDBRANCH  14  15
ENDBRANCH   1  14
TORSDOF 6
ENDMDL
MODEL 7
REMARK VINA RESULT:    -6.489      3.383      7.366
REMARK INTER + INTRA:          -9.029
REMARK INTER:                  -8.709
REMARK INTRA:                  -0.320
REMARK UNBOUND:                -0.454
REMARK  Name = 
REMARK  6 active torsions:
REMARK  status: ('A' for Active; 'I' for Inactive)
REMARK    1  A    between atoms: N_1  and  C_2
REMARK    2  A    between atoms: C_2  and  C_3
REMARK    3  A    between atoms: C_7  and  C_8
REMARK    4  A    between atoms: C_8  and  C_9
REMARK    5  A    between atoms: C_9  and  N_10
REMARK    6  A    between atoms: C_14  and  C_15
REMARK                            x       y       z     vdW  Elec       q    Type
REMARK                         _______ _______ _______ _____ _____    ______ ____
ROOT
ATOM      1  N   UNL     1      47.018   6.012  12.869  0.00  0.00    +0.000 N 
ATOM      2  C   UNL     1      47.368   5.515  14.123  0.00  0.00    +0.000 A 
ATOM      3  N   UNL     1      46.759   4.421  14.599  0.00  0.00    +0.000 NA
ATOM      4  C   UNL     1      47.086   4.014  15.843  0.00  0.00    +0.000 A 
ATOM      5  C   UNL     1      48.022   4.645  16.626  0.00  0.00    +0.000 A 
ATOM      6  C   UNL     1      48.604   5.748  16.051  0.00  0.00    +0.000 A 
ATOM      7  N   UNL     1      48.293   6.204  14.811  0.00  0.00    +0.000 NA
ATOM      8  H   UNL     1      47.291   6.988  12.864  0.00  0.00    +0.000 HD
ENDROOT
BRANCH   5   9
ATOM      9  C   UNL     1      48.287   4.151  17.986  0.00  0.00    +0.000 C 
ATOM     10  N   UNL     1      47.564   4.673  19.019  0.00  0.00    +0.000 N 
ATOM     11  O   UNL     1      49.156   3.314  18.189  0.00  0.00    +0.000 OA
ATOM     12  H   UNL     1      47.016   5.519  18.956  0.00  0.00    +0.000 HD
ATOM     13  H   UNL     1      47.849   4.377  19.946  0.00  0.00    +0.000 HD
ENDBRANCH   5   9
BRANCH   1  14
ATOM     14  C   UNL     1      45.629   5.732  12.516  0.00  0.00    +0.000 C 
BRANCH  14  15
ATOM     15  C   UNL     1      45.345   6.074  11.049  0.00  0.00    +0.000 C 
BRANCH  15  20
ATOM     16  C   UNL     1      45.512   3.507   8.205  0.00  0.00    +0.000 A 
ATOM     17  C   UNL     1      44.822   2.434   8.787  0.00  0.00    +0.000 A 
ATOM     18  C   UNL     1      44.278   2.548  10.065  0.00  0.00    +0.000 A 
ATOM     19  C   UNL     1      44.425   3.732  10.787  0.00  0.00    +0.000 A 
ATOM     20  C   UNL     1      45.118   4.817  10.235  0.00  0.00    +0.000 A 
ATOM     21  C   UNL     1      45.657   4.694   8.943  0.00  0.00    +0.000 A 
BRANCH  16  22
ATOM     22  C   UNL     1      46.129   3.365   6.836  0.00  0.00    +0.000 C 
BRANCH  22  23
ATOM     23  N   UNL     1      47.580   3.524   6.871  0.00  0.00    +0.000 NA
ATOM     24  H   UNL     1      47.866   3.756   7.818  0.00  0.00    +0.000 HD
ATOM     25  H   UNL     1      47.833   4.321   6.287  0.00  0.00    +0.000 HD
ENDBRANCH  22  23
ENDBRANCH  16  22
ENDBRANCH  15  20
ENDBRANCH  14  15
ENDBRANCH   1  14
TORSDOF 6
ENDMDL
MODEL 8
REMARK VINA RESULT:    -6.410      3.638      6.913
REMARK INTER + INTRA:          -8.925
REMARK INTER:                  -8.479
REMARK INTRA:                  -0.446
REMARK UNBOUND:                -0.454
REMARK  Name = 
REMARK  6 active torsions:
REMARK  status: ('A' for Active; 'I' for Inactive)
REMARK    1  A    between atoms: N_1  and  C_2
REMARK    2  A    between atoms: C_2  and  C_3
REMARK    3  A    between atoms: C_7  and  C_8
REMARK    4  A    between atoms: C_8  and  C_9
REMARK    5  A    between atoms: C_9  and  N_10
REMARK    6  A    between atoms: C_14  and  C_15
REMARK                            x       y       z     vdW  Elec       q    Type
REMARK                         _______ _______ _______ _____ _____    ______ ____
ROOT
ATOM      1  N   UNL     1      47.878   6.807  13.399  0.00  0.00    +0.000 N 
ATOM      2  C   UNL     1      47.863   5.897  14.454  0.00  0.00    +0.000 A 
ATOM      3  N   UNL     1      46.989   4.882  14.447  0.00  0.00    +0.000 NA
ATOM      4  C   UNL     1      46.969   4.064  15.520  0.00  0.00    +0.000 A 
ATOM      5  C   UNL     1      47.812   4.206  16.596  0.00  0.00    +0.000 A 
ATOM      6  C   UNL     1      48.682   5.266  16.511  0.00  0.00    +0.000 A 
ATOM      7  N   UNL     1      48.725   6.122  15.460  0.00  0.00    +0.000 NA
ATOM      8  H   UNL     1      48.308   7.651  13.757  0.00  0.00    +0.000 HD
ENDROOT
BRANCH   5   9
ATOM      9  C   UNL     1      47.693   3.289  17.740  0.00  0.00    +0.000 C 
ATOM     10  N   UNL     1      48.676   3.300  18.687  0.00  0.00    +0.000 N 
ATOM     11  O   UNL     1      46.751   2.512  17.823  0.00  0.00    +0.000 OA
ATOM     12  H   UNL     1      49.580   3.730  18.558  0.00  0.00    +0.000 HD
ATOM     13  H   UNL     1      48.604   2.583  19.400  0.00  0.00    +0.000 HD
ENDBRANCH   5   9
BRANCH   1  14
ATOM     14  C   UNL     1      46.569   6.969  12.772  0.00  0.00    +0.000 C 
BRANCH  14  15
ATOM     15  C   UNL     1      46.657   6.834  11.248  0.00  0.00    +0.000 C 
BRANCH  15  20
ATOM     16  C   UNL     1      44.280   3.826  11.217  0.00  0.00    +0.000 A 
ATOM     17  C   UNL     1      44.228   3.553   9.842  0.00  0.00    +0.000 A 
ATOM     18  C   UNL     1      44.978   4.306   8.940  0.00  0.00    +0.000 A 
ATOM     19  C   UNL     1      45.783   5.350   9.396  0.00  0.00    +0.000 A 
ATOM     20  C   UNL     1      45.846   5.651  10.762  0.00  0.00    +0.000 A 
ATOM     21  C   UNL     1      45.091   4.882  11.664  0.00  0.00    +0.000 A 
BRANCH  16  22
ATOM     22  C   UNL     1      43.439   3.030  12.184  0.00  0.00    +0.000 C 
BRANCH  22  23
ATOM     23  N   UNL     1      42.943   1.794  11.588  0.00  0.00    +0.000 NA
ATOM     24  H   UNL     1      42.335   1.324  12.255  0.00  0.00    +0.000 HD
ATOM     25  H   UNL     1      43.734   1.171  11.427  0.00  0.00    +0.000 HD
ENDBRANCH  22  23
ENDBRANCH  16  22
ENDBRANCH  15  20
ENDBRANCH  14  15
ENDBRANCH   1  14
TORSDOF 6
ENDMDL
MODEL 9
REMARK VINA RESULT:    -6.108      3.277      5.274
REMARK INTER + INTRA:          -8.525
REMARK INTER:                  -8.070
REMARK INTRA:                  -0.455
REMARK UNBOUND:                -0.454
REMARK  Name = 
REMARK  6 active torsions:
REMARK  status: ('A' for Active; 'I' for Inactive)
REMARK    1  A    between atoms: N_1  and  C_2
REMARK    2  A    between atoms: C_2  and  C_3
REMARK    3  A    between atoms: C_7  and  C_8
REMARK    4  A    between atoms: C_8  and  C_9
REMARK    5  A    between atoms: C_9  and  N_10
REMARK    6  A    between atoms: C_14  and  C_15
REMARK                            x       y       z     vdW  Elec       q    Type
REMARK                         _______ _______ _______ _____ _____    ______ ____
ROOT
ATOM      1  N   UNL     1      46.839   7.226  13.679  0.00  0.00    +0.000 N 
ATOM      2  C   UNL     1      46.073   6.227  13.080  0.00  0.00    +0.000 A 
ATOM      3  N   UNL     1      46.329   4.940  13.350  0.00  0.00    +0.000 NA
ATOM      4  C   UNL     1      45.603   4.007  12.698  0.00  0.00    +0.000 A 
ATOM      5  C   UNL     1      44.608   4.312  11.801  0.00  0.00    +0.000 A 
ATOM      6  C   UNL     1      44.407   5.655  11.597  0.00  0.00    +0.000 A 
ATOM      7  N   UNL     1      45.124   6.626  12.217  0.00  0.00    +0.000 NA
ATOM      8  H   UNL     1      46.749   8.045  13.088  0.00  0.00    +0.000 HD
ENDROOT
BRANCH   5   9
ATOM      9  C   UNL     1      43.894   3.228  11.110  0.00  0.00    +0.000 C 
ATOM     10  N   UNL     1      43.404   2.194  11.855  0.00  0.00    +0.000 N 
ATOM     11  O   UNL     1      43.768   3.238   9.893  0.00  0.00    +0.000 OA
ATOM     12  H   UNL     1      43.677   2.005  12.809  0.00  0.00    +0.000 HD
ATOM     13  H   UNL     1      43.010   1.423  11.327  0.00  0.00    +0.000 HD
ENDBRANCH   5   9
BRANCH   1  14
ATOM     14  C   UNL     1      48.202   6.794  13.974  0.00  0.00    +0.000 C 
BRANCH  14  15
ATOM     15  C   UNL     1      48.687   7.352  15.317  0.00  0.00    +0.000 C 
BRANCH  15  20
ATOM     16  C   UNL     1      48.922   4.100  17.335  0.00  0.00    +0.000 A 
ATOM     17  C   UNL     1      50.275   4.123  17.704  0.00  0.00    +0.000 A 
ATOM     18  C   UNL     1      51.092   5.191  17.338  0.00  0.00    +0.000 A 
ATOM     19  C   UNL     1      50.574   6.247  16.588  0.00  0.00    +0.000 A 
ATOM     20  C   UNL     1      49.229   6.246  16.198  0.00  0.00    +0.000 A 
ATOM     21  C   UNL     1      48.411   5.167  16.577  0.00  0.00    +0.000 A 
BRANCH  16  22
ATOM     22  C   UNL     1      48.051   2.925  17.705  0.00  0.00    +0.000 C 
BRANCH  22  23
ATOM     23  N   UNL     1      46.634   3.207  17.494  0.00  0.00    +0.000 NA
ATOM     24  H   UNL     1      46.080   2.563  18.053  0.00  0.00    +0.000 HD
ATOM     25  H   UNL     1      46.407   3.016  16.519  0.00  0.00    +0.000 HD
ENDBRANCH  22  23
ENDBRANCH  16  22
ENDBRANCH  15  20
ENDBRANCH  14  15
ENDBRANCH   1  14
TORSDOF 6
ENDMDL
