MODEL 1
REMARK VINA RESULT:    -6.430      0.000      0.000
REMARK INTER + INTRA:          -9.425
REMARK INTER:                  -8.310
REMARK INTRA:                  -1.115
REMARK UNBOUND:                -1.115
REMARK  Name = 
REMARK  10 active torsions:
REMARK  status: ('A' for Active; 'I' for Inactive)
REMARK    1  A    between atoms: C_1  and  C_2
REMARK    2  A    between atoms: C_2  and  C_3
REMARK    3  A    between atoms: C_3  and  C_4
REMARK    4  A    between atoms: C_3  and  C_5
REMARK    5  A    between atoms: C_3  and  C_6
REMARK    6  A    between atoms: N_8  and  C_9
REMARK    7  A    between atoms: C_9  and  C_10
REMARK    8  A    between atoms: C_19  and  C_20
REMARK    9  A    between atoms: N_22  and  C_23
REMARK   10  A    between atoms: N_22  and  C_24
REMARK                            x       y       z     vdW  Elec       q    Type
REMARK                         _______ _______ _______ _____ _____    ______ ____
ROOT
ATOM      1  C   UNL     1      47.729   7.560  12.816  0.00  0.00    +0.000 A 
ATOM      2  C   UNL     1      46.694   7.344  11.923  0.00  0.00    +0.000 A 
ATOM      3  N   UNL     1      46.013   6.213  12.284  0.00  0.00    +0.000 N 
ATOM      4  C   UNL     1      46.596   5.643  13.393  0.00  0.00    +0.000 A 
ATOM      5  C   UNL     1      46.330   4.431  14.054  0.00  0.00    +0.000 A 
ATOM      6  C   UNL     1      47.060   4.122  15.209  0.00  0.00    +0.000 A 
ATOM      7  C   UNL     1      47.977   5.022  15.745  0.00  0.00    +0.000 A 
ATOM      8  C   UNL     1      48.285   6.194  15.015  0.00  0.00    +0.000 A 
ATOM      9  C   UNL     1      47.609   6.515  13.811  0.00  0.00    +0.000 A 
ENDROOT
BRANCH   7  10
ATOM     10  C   UNL     1      48.747   4.781  17.008  0.00  0.00    +0.000 C 
ATOM     11  O   UNL     1      49.894   4.349  16.865  0.00  0.00    +0.000 OA
ATOM     12  N   UNL     1      48.232   5.052  18.287  0.00  0.00    +0.000 N 
ATOM     13  C   UNL     1      46.923   5.591  18.629  0.00  0.00    +0.000 C 
ATOM     14  C   UNL     1      49.073   4.737  19.435  0.00  0.00    +0.000 C 
ENDBRANCH   7  10
BRANCH   1  15
ATOM     15  C   UNL     1      48.786   8.670  12.702  0.00  0.00    +0.000 C 
ATOM     16  C   UNL     1      48.758   9.620  13.930  0.00  0.00    +0.000 C 
ATOM     17  C   UNL     1      48.462   9.560  11.475  0.00  0.00    +0.000 C 
BRANCH  15  19
ATOM     18  C   UNL     1      50.605   7.695  11.117  0.00  0.00    +0.000 C 
ATOM     19  C   UNL     1      50.224   8.107  12.535  0.00  0.00    +0.000 C 
ENDBRANCH  15  19
ENDBRANCH   1  15
BRANCH   3  20
ATOM     20  C   UNL     1      44.814   5.739  11.601  0.00  0.00    +0.000 C 
BRANCH  20  21
ATOM     21  C   UNL     1      45.080   4.817  10.450  0.00  0.00    +0.000 A 
ATOM     22  C   UNL     1      45.610   5.178   9.228  0.00  0.00    +0.000 A 
ATOM     23  N   UNL     1      45.807   4.315   8.212  0.00  0.00    +0.000 NA
ATOM     24  C   UNL     1      45.461   3.040   8.443  0.00  0.00    +0.000 A 
ATOM     25  N   UNL     1      44.960   2.562   9.590  0.00  0.00    +0.000 NA
ATOM     26  C   UNL     1      44.785   3.469  10.570  0.00  0.00    +0.000 A 
ENDBRANCH  20  21
ENDBRANCH   3  20
TORSDOF 5
ENDMDL
MODEL 2
REMARK VINA RESULT:    -6.241      1.453      2.151
REMARK INTER + INTRA:          -9.181
REMARK INTER:                  -9.063
REMARK INTRA:                  -0.118
REMARK UNBOUND:                -1.115
REMARK  Name = 
REMARK  10 active torsions:
REMARK  status: ('A' for Active; 'I' for Inactive)
REMARK    1  A    between atoms: C_1  and  C_2
REMARK    2  A    between atoms: C_2  and  C_3
REMARK    3  A    between atoms: C_3  and  C_4
REMARK    4  A    between atoms: C_3  and  C_5
REMARK    5  A    between atoms: C_3  and  C_6
REMARK    6  A    between atoms: N_8  and  C_9
REMARK    7  A    between atoms: C_9  and  C_10
REMARK    8  A    between atoms: C_19  and  C_20
REMARK    9  A    between atoms: N_22  and  C_23
REMARK   10  A    between atoms: N_22  and  C_24
REMARK                            x       y       z     vdW  Elec       q    Type
REMARK                         _______ _______ _______ _____ _____    ______ ____
ROOT
ATOM      1  C   UNL     1      46.143   7.134  12.129  0.00  0.00    +0.000 A 
ATOM      2  C   UNL     1      45.402   6.722  11.035  0.00  0.00    +0.000 A 
ATOM      3  N   UNL     1      45.192   5.371  11.113  0.00  0.00    +0.000 N 
ATOM      4  C   UNL     1      45.812   4.860  12.231  0.00  0.00    +0.000 A 
ATOM      5  C   UNL     1      45.975   3.534  12.669  0.00  0.00    +0.000 A 
ATOM      6  C   UNL     1      46.619   3.305  13.892  0.00  0.00    +0.000 A 
ATOM      7  C   UNL     1      47.022   4.362  14.703  0.00  0.00    +0.000 A 
ATOM      8  C   UNL     1      46.922   5.681  14.200  0.00  0.00    +0.000 A 
ATOM      9  C   UNL     1      46.330   5.950  12.941  0.00  0.00    +0.000 A 
ENDROOT
BRANCH   7  10
ATOM     10  C   UNL     1      47.660   4.190  16.048  0.00  0.00    +0.000 C 
ATOM     11  O   UNL     1      47.329   3.180  16.675  0.00  0.00    +0.000 OA
ATOM     12  N   UNL     1      48.602   5.089  16.574  0.00  0.00    +0.000 N 
ATOM     13  C   UNL     1      49.123   6.301  15.959  0.00  0.00    +0.000 C 
ATOM     14  C   UNL     1      49.117   4.823  17.912  0.00  0.00    +0.000 C 
ENDBRANCH   7  10
BRANCH   1  15
ATOM     15  C   UNL     1      46.671   8.559  12.360  0.00  0.00    +0.000 C 
ATOM     16  C   UNL     1      46.868   8.861  13.870  0.00  0.00    +0.000 C 
ATOM     17  C   UNL     1      45.618   9.581  11.861  0.00  0.00    +0.000 C 
BRANCH  15  19
ATOM     18  C   UNL     1      49.021   7.687  11.662  0.00  0.00    +0.000 C 
ATOM     19  C   UNL     1      48.007   8.826  11.615  0.00  0.00    +0.000 C 
ENDBRANCH  15  19
ENDBRANCH   1  15
BRANCH   3  20
ATOM     20  C   UNL     1      44.379   4.623  10.160  0.00  0.00    +0.000 C 
BRANCH  20  21
ATOM     21  C   UNL     1      45.167   3.833   9.159  0.00  0.00    +0.000 A 
ATOM     22  C   UNL     1      45.293   2.458   9.130  0.00  0.00    +0.000 A 
ATOM     23  N   UNL     1      46.036   1.793   8.222  0.00  0.00    +0.000 NA
ATOM     24  C   UNL     1      46.668   2.545   7.310  0.00  0.00    +0.000 A 
ATOM     25  N   UNL     1      46.607   3.881   7.219  0.00  0.00    +0.000 NA
ATOM     26  C   UNL     1      45.850   4.492   8.151  0.00  0.00    +0.000 A 
ENDBRANCH  20  21
ENDBRANCH   3  20
TORSDOF 5
ENDMDL
MODEL 3
REMARK VINA RESULT:    -5.820      2.773      6.711
REMARK INTER + INTRA:          -8.636
REMARK INTER:                  -8.042
REMARK INTRA:                  -0.594
REMARK UNBOUND:                -1.115
REMARK  Name = 
REMARK  10 active torsions:
REMARK  status: ('A' for Active; 'I' for Inactive)
REMARK    1  A    between atoms: C_1  and  C_2
REMARK    2  A    between atoms: C_2  and  C_3
REMARK    3  A    between atoms: C_3  and  C_4
REMARK    4  A    between atoms: C_3  and  C_5
REMARK    5  A    between atoms: C_3  and  C_6
REMARK    6  A    between atoms: N_8  and  C_9
REMARK    7  A    between atoms: C_9  and  C_10
REMARK    8  A    between atoms: C_19  and  C_20
REMARK    9  A    between atoms: N_22  and  C_23
REMARK   10  A    between atoms: N_22  and  C_24
REMARK                            x       y       z     vdW  Elec       q    Type
REMARK                         _______ _______ _______ _____ _____    ______ ____
ROOT
ATOM      1  C   UNL     1      46.037   5.294  12.825  0.00  0.00    +0.000 A 
ATOM      2  C   UNL     1      45.977   4.621  14.033  0.00  0.00    +0.000 A 
ATOM      3  N   UNL     1      46.955   5.096  14.865  0.00  0.00    +0.000 N 
ATOM      4  C   UNL     1      47.698   6.058  14.220  0.00  0.00    +0.000 A 
ATOM      5  C   UNL     1      48.861   6.742  14.615  0.00  0.00    +0.000 A 
ATOM      6  C   UNL     1      49.384   7.724  13.763  0.00  0.00    +0.000 A 
ATOM      7  C   UNL     1      48.732   8.080  12.586  0.00  0.00    +0.000 A 
ATOM      8  C   UNL     1      47.613   7.319  12.173  0.00  0.00    +0.000 A 
ATOM      9  C   UNL     1      47.088   6.278  12.979  0.00  0.00    +0.000 A 
ENDROOT
BRANCH   7  10
ATOM     10  C   UNL     1      49.202   9.161  11.661  0.00  0.00    +0.000 C 
ATOM     11  O   UNL     1      50.258   8.935  11.063  0.00  0.00    +0.000 OA
ATOM     12  N   UNL     1      48.491  10.352  11.444  0.00  0.00    +0.000 N 
ATOM     13  C   UNL     1      47.225  10.759  12.038  0.00  0.00    +0.000 C 
ATOM     14  C   UNL     1      49.079  11.338  10.546  0.00  0.00    +0.000 C 
ENDBRANCH   7  10
BRANCH   1  15
ATOM     15  C   UNL     1      45.172   4.986  11.591  0.00  0.00    +0.000 C 
ATOM     16  C   UNL     1      45.805   5.553  10.291  0.00  0.00    +0.000 C 
ATOM     17  C   UNL     1      43.804   5.697  11.737  0.00  0.00    +0.000 C 
BRANCH  15  19
ATOM     18  C   UNL     1      43.484   3.006  11.637  0.00  0.00    +0.000 C 
ATOM     19  C   UNL     1      44.921   3.465  11.406  0.00  0.00    +0.000 C 
ENDBRANCH  15  19
ENDBRANCH   1  15
BRANCH   3  20
ATOM     20  C   UNL     1      47.123   4.659  16.247  0.00  0.00    +0.000 C 
BRANCH  20  21
ATOM     21  C   UNL     1      48.282   3.734  16.468  0.00  0.00    +0.000 A 
ATOM     22  C   UNL     1      48.388   2.441  15.995  0.00  0.00    +0.000 A 
ATOM     23  N   UNL     1      49.441   1.637  16.243  0.00  0.00    +0.000 NA
ATOM     24  C   UNL     1      50.424   2.162  16.989  0.00  0.00    +0.000 A 
ATOM     25  N   UNL     1      50.449   3.407  17.485  0.00  0.00    +0.000 NA
ATOM     26  C   UNL     1      49.371   4.165  17.206  0.00  0.00    +0.000 A 
ENDBRANCH  20  21
ENDBRANCH   3  20
TORSDOF 5
ENDMDL
MODEL 4
REMARK VINA RESULT:    -5.807      1.837      2.650
REMARK INTER + INTRA:          -8.620
REMARK INTER:                  -7.614
REMARK INTRA:                  -1.006
REMARK UNBOUND:                -1.115
REMARK  Name = 
REMARK  10 active torsions:
REMARK  status: ('A' for Active; 'I' for Inactive)
REMARK    1  A    between atoms: C_1  and  C_2
REMARK    2  A    between atoms: C_2  and  C_3
REMARK    3  A    between atoms: C_3  and  C_4
REMARK    4  A    between atoms: C_3  and  C_5
REMARK    5  A    between atoms: C_3  and  C_6
REMARK    6  A    between atoms: N_8  and  C_9
REMARK    7  A    between atoms: C_9  and  C_10
REMARK    8  A    between atoms: C_19  and  C_20
REMARK    9  A    between atoms: N_22  and  C_23
REMARK   10  A    between atoms: N_22  and  C_24
REMARK                            x       y       z     vdW  Elec       q    Type
REMARK                         _______ _______ _______ _____ _____    ______ ____
ROOT
ATOM      1  C   UNL     1      48.214   6.615  13.861  0.00  0.00    +0.000 A 
ATOM      2  C   UNL     1      47.494   5.841  12.968  0.00  0.00    +0.000 A 
ATOM      3  N   UNL     1      47.032   4.723  13.607  0.00  0.00    +0.000 N 
ATOM      4  C   UNL     1      47.459   4.715  14.915  0.00  0.00    +0.000 A 
ATOM      5  C   UNL     1      47.339   3.737  15.918  0.00  0.00    +0.000 A 
ATOM      6  C   UNL     1      47.834   4.022  17.197  0.00  0.00    +0.000 A 
ATOM      7  C   UNL     1      48.364   5.272  17.503  0.00  0.00    +0.000 A 
ATOM      8  C   UNL     1      48.550   6.205  16.456  0.00  0.00    +0.000 A 
ATOM      9  C   UNL     1      48.115   5.932  15.135  0.00  0.00    +0.000 A 
ENDROOT
BRANCH   7  10
ATOM     10  C   UNL     1      48.855   5.665  18.863  0.00  0.00    +0.000 C 
ATOM     11  O   UNL     1      48.048   6.274  19.571  0.00  0.00    +0.000 OA
ATOM     12  N   UNL     1      50.136   5.345  19.341  0.00  0.00    +0.000 N 
ATOM     13  C   UNL     1      51.190   4.609  18.656  0.00  0.00    +0.000 C 
ATOM     14  C   UNL     1      50.500   5.820  20.671  0.00  0.00    +0.000 C 
ENDBRANCH   7  10
BRANCH   1  15
ATOM     15  C   UNL     1      48.979   7.901  13.510  0.00  0.00    +0.000 C 
ATOM     16  C   UNL     1      50.410   7.902  14.114  0.00  0.00    +0.000 C 
ATOM     17  C   UNL     1      48.255   9.115  14.144  0.00  0.00    +0.000 C 
BRANCH  15  19
ATOM     18  C   UNL     1      50.409   7.736  11.342  0.00  0.00    +0.000 C 
ATOM     19  C   UNL     1      49.080   8.133  11.978  0.00  0.00    +0.000 C 
ENDBRANCH  15  19
ENDBRANCH   1  15
BRANCH   3  20
ATOM     20  C   UNL     1      46.168   3.730  12.976  0.00  0.00    +0.000 C 
BRANCH  20  21
ATOM     21  C   UNL     1      44.877   4.278  12.448  0.00  0.00    +0.000 A 
ATOM     22  C   UNL     1      44.580   4.513  11.120  0.00  0.00    +0.000 A 
ATOM     23  N   UNL     1      43.411   5.033  10.694  0.00  0.00    +0.000 NA
ATOM     24  C   UNL     1      42.510   5.319  11.645  0.00  0.00    +0.000 A 
ATOM     25  N   UNL     1      42.669   5.117  12.960  0.00  0.00    +0.000 NA
ATOM     26  C   UNL     1      43.856   4.594  13.327  0.00  0.00    +0.000 A 
ENDBRANCH  20  21
ENDBRANCH   3  20
TORSDOF 5
ENDMDL
MODEL 5
REMARK VINA RESULT:    -5.700      2.429      5.160
REMARK INTER + INTRA:          -8.481
REMARK INTER:                  -7.455
REMARK INTRA:                  -1.026
REMARK UNBOUND:                -1.115
REMARK  Name = 
REMARK  10 active torsions:
REMARK  status: ('A' for Active; 'I' for Inactive)
REMARK    1  A    between atoms: C_1  and  C_2
REMARK    2  A    between atoms: C_2  and  C_3
REMARK    3  A    between atoms: C_3  and  C_4
REMARK    4  A    between atoms: C_3  and  C_5
REMARK    5  A    between atoms: C_3  and  C_6
REMARK    6  A    between atoms: N_8  and  C_9
REMARK    7  A    between atoms: C_9  and  C_10
REMARK    8  A    between atoms: C_19  and  C_20
REMARK    9  A    between atoms: N_22  and  C_23
REMARK   10  A    between atoms: N_22  and  C_24
REMARK                            x       y       z     vdW  Elec       q    Type
REMARK                         _______ _______ _______ _____ _____    ______ ____
ROOT
ATOM      1  C   UNL     1      47.778   4.531  15.894  0.00  0.00    +0.000 A 
ATOM      2  C   UNL     1      47.052   3.703  15.055  0.00  0.00    +0.000 A 
ATOM      3  N   UNL     1      46.829   4.345  13.867  0.00  0.00    +0.000 N 
ATOM      4  C   UNL     1      47.368   5.611  13.904  0.00  0.00    +0.000 A 
ATOM      5  C   UNL     1      47.296   6.670  12.983  0.00  0.00    +0.000 A 
ATOM      6  C   UNL     1      47.994   7.852  13.264  0.00  0.00    +0.000 A 
ATOM      7  C   UNL     1      48.807   7.960  14.388  0.00  0.00    +0.000 A 
ATOM      8  C   UNL     1      48.794   6.912  15.338  0.00  0.00    +0.000 A 
ATOM      9  C   UNL     1      48.055   5.723  15.119  0.00  0.00    +0.000 A 
ENDROOT
BRANCH   7  10
ATOM     10  C   UNL     1      49.628   9.170  14.716  0.00  0.00    +0.000 C 
ATOM     11  O   UNL     1      49.139   9.942  15.546  0.00  0.00    +0.000 OA
ATOM     12  N   UNL     1      50.891   9.420  14.155  0.00  0.00    +0.000 N 
ATOM     13  C   UNL     1      51.621   8.603  13.196  0.00  0.00    +0.000 C 
ATOM     14  C   UNL     1      51.567  10.655  14.533  0.00  0.00    +0.000 C 
ENDBRANCH   7  10
BRANCH   1  15
ATOM     15  C   UNL     1      48.146   4.218  17.353  0.00  0.00    +0.000 C 
ATOM     16  C   UNL     1      47.531   2.873  17.825  0.00  0.00    +0.000 C 
ATOM     17  C   UNL     1      47.539   5.304  18.276  0.00  0.00    +0.000 C 
BRANCH  15  19
ATOM     18  C   UNL     1      50.340   2.818  17.365  0.00  0.00    +0.000 C 
ATOM     19  C   UNL     1      49.681   4.177  17.583  0.00  0.00    +0.000 C 
ENDBRANCH  15  19
ENDBRANCH   1  15
BRANCH   3  20
ATOM     20  C   UNL     1      46.161   3.725  12.727  0.00  0.00    +0.000 C 
BRANCH  20  21
ATOM     21  C   UNL     1      44.827   4.323  12.391  0.00  0.00    +0.000 A 
ATOM     22  C   UNL     1      43.817   4.605  13.289  0.00  0.00    +0.000 A 
ATOM     23  N   UNL     1      42.622   5.119  12.935  0.00  0.00    +0.000 NA
ATOM     24  C   UNL     1      42.447   5.362  11.628  0.00  0.00    +0.000 A 
ATOM     25  N   UNL     1      43.355   5.154  10.665  0.00  0.00    +0.000 NA
ATOM     26  C   UNL     1      44.530   4.640  11.077  0.00  0.00    +0.000 A 
ENDBRANCH  20  21
ENDBRANCH   3  20
TORSDOF 5
ENDMDL
MODEL 6
REMARK VINA RESULT:    -5.494      2.775      6.668
REMARK INTER + INTRA:          -8.216
REMARK INTER:                  -7.599
REMARK INTRA:                  -0.617
REMARK UNBOUND:                -1.115
REMARK  Name = 
REMARK  10 active torsions:
REMARK  status: ('A' for Active; 'I' for Inactive)
REMARK    1  A    between atoms: C_1  and  C_2
REMARK    2  A    between atoms: C_2  and  C_3
REMARK    3  A    between atoms: C_3  and  C_4
REMARK    4  A    between atoms: C_3  and  C_5
REMARK    5  A    between atoms: C_3  and  C_6
REMARK    6  A    between atoms: N_8  and  C_9
REMARK    7  A    between atoms: C_9  and  C_10
REMARK    8  A    between atoms: C_19  and  C_20
REMARK    9  A    between atoms: N_22  and  C_23
REMARK   10  A    between atoms: N_22  and  C_24
REMARK                            x       y       z     vdW  Elec       q    Type
REMARK                         _______ _______ _______ _____ _____    ______ ____
ROOT
ATOM      1  C   UNL     1      46.039   5.369  12.866  0.00  0.00    +0.000 A 
ATOM      2  C   UNL     1      45.927   4.597  14.010  0.00  0.00    +0.000 A 
ATOM      3  N   UNL     1      46.881   4.983  14.912  0.00  0.00    +0.000 N 
ATOM      4  C   UNL     1      47.659   5.985  14.379  0.00  0.00    +0.000 A 
ATOM      5  C   UNL     1      48.816   6.614  14.870  0.00  0.00    +0.000 A 
ATOM      6  C   UNL     1      49.383   7.656  14.125  0.00  0.00    +0.000 A 
ATOM      7  C   UNL     1      48.778   8.121  12.960  0.00  0.00    +0.000 A 
ATOM      8  C   UNL     1      47.665   7.416  12.445  0.00  0.00    +0.000 A 
ATOM      9  C   UNL     1      47.097   6.319  13.140  0.00  0.00    +0.000 A 
ENDROOT
BRANCH   7  10
ATOM     10  C   UNL     1      49.296   9.269  12.148  0.00  0.00    +0.000 C 
ATOM     11  O   UNL     1      48.630  10.307  12.199  0.00  0.00    +0.000 OA
ATOM     12  N   UNL     1      50.478   9.206  11.393  0.00  0.00    +0.000 N 
ATOM     13  C   UNL     1      51.392   8.081  11.251  0.00  0.00    +0.000 C 
ATOM     14  C   UNL     1      50.849  10.384  10.618  0.00  0.00    +0.000 C 
ENDBRANCH   7  10
BRANCH   1  15
ATOM     15  C   UNL     1      45.216   5.181  11.581  0.00  0.00    +0.000 C 
ATOM     16  C   UNL     1      44.905   3.684  11.311  0.00  0.00    +0.000 C 
ATOM     17  C   UNL     1      46.049   5.663  10.367  0.00  0.00    +0.000 C 
BRANCH  15  19
ATOM     18  C   UNL     1      42.658   5.183  12.060  0.00  0.00    +0.000 C 
ATOM     19  C   UNL     1      43.882   5.975  11.609  0.00  0.00    +0.000 C 
ENDBRANCH  15  19
ENDBRANCH   1  15
BRANCH   3  20
ATOM     20  C   UNL     1      46.993   4.428  16.257  0.00  0.00    +0.000 C 
BRANCH  20  21
ATOM     21  C   UNL     1      48.209   3.580  16.478  0.00  0.00    +0.000 A 
ATOM     22  C   UNL     1      48.456   2.351  15.898  0.00  0.00    +0.000 A 
ATOM     23  N   UNL     1      49.555   1.612  16.149  0.00  0.00    +0.000 NA
ATOM     24  C   UNL     1      50.438   2.138  17.010  0.00  0.00    +0.000 A 
ATOM     25  N   UNL     1      50.325   3.327  17.618  0.00  0.00    +0.000 NA
ATOM     26  C   UNL     1      49.207   4.022  17.329  0.00  0.00    +0.000 A 
ENDBRANCH  20  21
ENDBRANCH   3  20
TORSDOF 5
ENDMDL
MODEL 7
REMARK VINA RESULT:    -5.399      2.441      6.428
REMARK INTER + INTRA:          -8.093
REMARK INTER:                  -7.512
REMARK INTRA:                  -0.580
REMARK UNBOUND:                -1.115
REMARK  Name = 
REMARK  10 active torsions:
REMARK  status: ('A' for Active; 'I' for Inactive)
REMARK    1  A    between atoms: C_1  and  C_2
REMARK    2  A    between atoms: C_2  and  C_3
REMARK    3  A    between atoms: C_3  and  C_4
REMARK    4  A    between atoms: C_3  and  C_5
REMARK    5  A    between atoms: C_3  and  C_6
REMARK    6  A    between atoms: N_8  and  C_9
REMARK    7  A    between atoms: C_9  and  C_10
REMARK    8  A    between atoms: C_19  and  C_20
REMARK    9  A    between atoms: N_22  and  C_23
REMARK   10  A    between atoms: N_22  and  C_24
REMARK                            x       y       z     vdW  Elec       q    Type
REMARK                         _______ _______ _______ _____ _____    ______ ____
ROOT
ATOM      1  C   UNL     1      49.246   7.341  14.586  0.00  0.00    +0.000 A 
ATOM      2  C   UNL     1      49.572   6.911  15.860  0.00  0.00    +0.000 A 
ATOM      3  N   UNL     1      48.761   5.864  16.207  0.00  0.00    +0.000 N 
ATOM      4  C   UNL     1      47.866   5.603  15.195  0.00  0.00    +0.000 A 
ATOM      5  C   UNL     1      46.779   4.715  15.132  0.00  0.00    +0.000 A 
ATOM      6  C   UNL     1      46.057   4.620  13.935  0.00  0.00    +0.000 A 
ATOM      7  C   UNL     1      46.447   5.325  12.800  0.00  0.00    +0.000 A 
ATOM      8  C   UNL     1      47.490   6.273  12.915  0.00  0.00    +0.000 A 
ATOM      9  C   UNL     1      48.208   6.441  14.126  0.00  0.00    +0.000 A 
ENDROOT
BRANCH   7  10
ATOM     10  C   UNL     1      45.758   5.224  11.473  0.00  0.00    +0.000 C 
ATOM     11  O   UNL     1      46.108   6.047  10.622  0.00  0.00    +0.000 OA
ATOM     12  N   UNL     1      44.795   4.246  11.178  0.00  0.00    +0.000 N 
ATOM     13  C   UNL     1      44.296   3.190  12.047  0.00  0.00    +0.000 C 
ATOM     14  C   UNL     1      44.176   4.283   9.859  0.00  0.00    +0.000 C 
ENDBRANCH   7  10
BRANCH   1  15
ATOM     15  C   UNL     1      49.858   8.557  13.873  0.00  0.00    +0.000 C 
ATOM     16  C   UNL     1      50.624   8.143  12.587  0.00  0.00    +0.000 C 
ATOM     17  C   UNL     1      50.914   9.213  14.798  0.00  0.00    +0.000 C 
BRANCH  15  19
ATOM     18  C   UNL     1      48.504   9.772  12.012  0.00  0.00    +0.000 C 
ATOM     19  C   UNL     1      48.795   9.626  13.502  0.00  0.00    +0.000 C 
ENDBRANCH  15  19
ENDBRANCH   1  15
BRANCH   3  20
ATOM     20  C   UNL     1      48.890   5.122  17.457  0.00  0.00    +0.000 C 
BRANCH  20  21
ATOM     21  C   UNL     1      49.743   3.893  17.362  0.00  0.00    +0.000 A 
ATOM     22  C   UNL     1      49.330   2.653  16.915  0.00  0.00    +0.000 A 
ATOM     23  N   UNL     1      50.130   1.568  16.873  0.00  0.00    +0.000 NA
ATOM     24  C   UNL     1      51.391   1.746  17.290  0.00  0.00    +0.000 A 
ATOM     25  N   UNL     1      51.917   2.901  17.723  0.00  0.00    +0.000 NA
ATOM     26  C   UNL     1      51.072   3.950  17.743  0.00  0.00    +0.000 A 
ENDBRANCH  20  21
ENDBRANCH   3  20
TORSDOF 5
ENDMDL
MODEL 8
REMARK VINA RESULT:    -5.241      2.114      5.146
REMARK INTER + INTRA:          -7.889
REMARK INTER:                  -7.300
REMARK INTRA:                  -0.588
REMARK UNBOUND:                -1.115
REMARK  Name = 
REMARK  10 active torsions:
REMARK  status: ('A' for Active; 'I' for Inactive)
REMARK    1  A    between atoms: C_1  and  C_2
REMARK    2  A    between atoms: C_2  and  C_3
REMARK    3  A    between atoms: C_3  and  C_4
REMARK    4  A    between atoms: C_3  and  C_5
REMARK    5  A    between atoms: C_3  and  C_6
REMARK    6  A    between atoms: N_8  and  C_9
REMARK    7  A    between atoms: C_9  and  C_10
REMARK    8  A    between atoms: C_19  and  C_20
REMARK    9  A    between atoms: N_22  and  C_23
REMARK   10  A    between atoms: N_22  and  C_24
REMARK                            x       y       z     vdW  Elec       q    Type
REMARK                         _______ _______ _______ _____ _____    ______ ____
ROOT
ATOM      1  C   UNL     1      45.997   5.772  12.403  0.00  0.00    +0.000 A 
ATOM      2  C   UNL     1      46.309   6.935  11.720  0.00  0.00    +0.000 A 
ATOM      3  N   UNL     1      47.271   7.621  12.410  0.00  0.00    +0.000 N 
ATOM      4  C   UNL     1      47.590   6.952  13.569  0.00  0.00    +0.000 A 
ATOM      5  C   UNL     1      48.423   7.313  14.642  0.00  0.00    +0.000 A 
ATOM      6  C   UNL     1      48.605   6.400  15.689  0.00  0.00    +0.000 A 
ATOM      7  C   UNL     1      48.041   5.128  15.641  0.00  0.00    +0.000 A 
ATOM      8  C   UNL     1      47.141   4.823  14.594  0.00  0.00    +0.000 A 
ATOM      9  C   UNL     1      46.885   5.743  13.546  0.00  0.00    +0.000 A 
ENDROOT
BRANCH   7  10
ATOM     10  C   UNL     1      48.244   4.081  16.695  0.00  0.00    +0.000 C 
ATOM     11  O   UNL     1      48.741   3.020  16.309  0.00  0.00    +0.000 OA
ATOM     12  N   UNL     1      47.928   4.280  18.048  0.00  0.00    +0.000 N 
ATOM     13  C   UNL     1      47.371   5.473  18.672  0.00  0.00    +0.000 C 
ATOM     14  C   UNL     1      48.140   3.166  18.964  0.00  0.00    +0.000 C 
ENDBRANCH   7  10
BRANCH   1  15
ATOM     15  C   UNL     1      44.893   4.777  12.008  0.00  0.00    +0.000 C 
ATOM     16  C   UNL     1      45.334   3.307  12.245  0.00  0.00    +0.000 C 
ATOM     17  C   UNL     1      44.620   4.894  10.488  0.00  0.00    +0.000 C 
BRANCH  15  19
ATOM     18  C   UNL     1      42.395   5.499  11.906  0.00  0.00    +0.000 C 
ATOM     19  C   UNL     1      43.564   5.032  12.769  0.00  0.00    +0.000 C 
ENDBRANCH  15  19
ENDBRANCH   1  15
BRANCH   3  20
ATOM     20  C   UNL     1      47.886   8.854  11.929  0.00  0.00    +0.000 C 
BRANCH  20  21
ATOM     21  C   UNL     1      49.367   8.764  11.710  0.00  0.00    +0.000 A 
ATOM     22  C   UNL     1      50.035   7.709  11.121  0.00  0.00    +0.000 A 
ATOM     23  N   UNL     1      51.374   7.662  10.969  0.00  0.00    +0.000 NA
ATOM     24  C   UNL     1      52.058   8.721  11.423  0.00  0.00    +0.000 A 
ATOM     25  N   UNL     1      51.525   9.813  11.990  0.00  0.00    +0.000 NA
ATOM     26  C   UNL     1      50.184   9.805  12.115  0.00  0.00    +0.000 A 
ENDBRANCH  20  21
ENDBRANCH   3  20
TORSDOF 5
ENDMDL
MODEL 9
REMARK VINA RESULT:    -5.212      2.937      6.845
REMARK INTER + INTRA:          -7.851
REMARK INTER:                  -6.777
REMARK INTRA:                  -1.074
REMARK UNBOUND:                -1.115
REMARK  Name = 
REMARK  10 active torsions:
REMARK  status: ('A' for Active; 'I' for Inactive)
REMARK    1  A    between atoms: C_1  and  C_2
REMARK    2  A    between atoms: C_2  and  C_3
REMARK    3  A    between atoms: C_3  and  C_4
REMARK    4  A    between atoms: C_3  and  C_5
REMARK    5  A    between atoms: C_3  and  C_6
REMARK    6  A    between atoms: N_8  and  C_9
REMARK    7  A    between atoms: C_9  and  C_10
REMARK    8  A    between atoms: C_19  and  C_20
REMARK    9  A    between atoms: N_22  and  C_23
REMARK   10  A    between atoms: N_22  and  C_24
REMARK                            x       y       z     vdW  Elec       q    Type
REMARK                         _______ _______ _______ _____ _____    ______ ____
ROOT
ATOM      1  C   UNL     1      48.813   5.757  16.652  0.00  0.00    +0.000 A 
ATOM      2  C   UNL     1      49.609   6.887  16.586  0.00  0.00    +0.000 A 
ATOM      3  N   UNL     1      49.482   7.458  15.348  0.00  0.00    +0.000 N 
ATOM      4  C   UNL     1      48.636   6.707  14.565  0.00  0.00    +0.000 A 
ATOM      5  C   UNL     1      48.291   6.823  13.207  0.00  0.00    +0.000 A 
ATOM      6  C   UNL     1      47.349   5.933  12.675  0.00  0.00    +0.000 A 
ATOM      7  C   UNL     1      46.703   5.000  13.481  0.00  0.00    +0.000 A 
ATOM      8  C   UNL     1      47.129   4.850  14.821  0.00  0.00    +0.000 A 
ATOM      9  C   UNL     1      48.121   5.692  15.381  0.00  0.00    +0.000 A 
ENDROOT
BRANCH   7  10
ATOM     10  C   UNL     1      45.643   4.061  12.991  0.00  0.00    +0.000 C 
ATOM     11  O   UNL     1      45.980   2.878  12.886  0.00  0.00    +0.000 OA
ATOM     12  N   UNL     1      44.332   4.466  12.693  0.00  0.00    +0.000 N 
ATOM     13  C   UNL     1      43.764   5.804  12.792  0.00  0.00    +0.000 C 
ATOM     14  C   UNL     1      43.410   3.456  12.188  0.00  0.00    +0.000 C 
ENDBRANCH   7  10
BRANCH   1  15
ATOM     15  C   UNL     1      48.751   4.780  17.838  0.00  0.00    +0.000 C 
ATOM     16  C   UNL     1      47.298   4.592  18.352  0.00  0.00    +0.000 C 
ATOM     17  C   UNL     1      49.545   5.373  19.029  0.00  0.00    +0.000 C 
BRANCH  15  19
ATOM     18  C   UNL     1      50.870   3.307  17.501  0.00  0.00    +0.000 C 
ATOM     19  C   UNL     1      49.346   3.388  17.493  0.00  0.00    +0.000 C 
ENDBRANCH  15  19
ENDBRANCH   1  15
BRANCH   3  20
ATOM     20  C   UNL     1      50.124   8.712  14.967  0.00  0.00    +0.000 C 
BRANCH  20  21
ATOM     21  C   UNL     1      51.378   8.546  14.161  0.00  0.00    +0.000 A 
ATOM     22  C   UNL     1      51.483   8.680  12.791  0.00  0.00    +0.000 A 
ATOM     23  N   UNL     1      52.629   8.495  12.106  0.00  0.00    +0.000 NA
ATOM     24  C   UNL     1      53.707   8.170  12.834  0.00  0.00    +0.000 A 
ATOM     25  N   UNL     1      53.739   8.033  14.167  0.00  0.00    +0.000 NA
ATOM     26  C   UNL     1      52.565   8.230  14.798  0.00  0.00    +0.000 A 
ENDBRANCH  20  21
ENDBRANCH   3  20
TORSDOF 5
ENDMDL
