MODEL 1
REMARK VINA RESULT:    -9.938      0.000      0.000
REMARK INTER + INTRA:         -13.807
REMARK INTER:                 -12.843
REMARK INTRA:                  -0.964
REMARK UNBOUND:                -0.964
REMARK  Name = 
REMARK  5 active torsions:
REMARK  status: ('A' for Active; 'I' for Inactive)
REMARK    1  A    between atoms: C_2  and  C_4
REMARK    2  A    between atoms: N_8  and  C_9
REMARK    3  A    between atoms: C_9  and  C_10
REMARK    4  A    between atoms: C_10  and  C_13
REMARK    5  A    between atoms: C_15  and  C_16
REMARK                            x       y       z     vdW  Elec       q    Type
REMARK                         _______ _______ _______ _____ _____    ______ ____
ROOT
ATOM      1  C   UNL     1      43.474   5.528  12.201  0.00  0.00    +0.000 C 
ATOM      2  F   UNL     1      43.148   6.710  11.592  0.00  0.00    +0.000 F 
ATOM      3  F   UNL     1      42.564   5.392  13.220  0.00  0.00    +0.000 F 
ENDROOT
BRANCH   1   4
ATOM      4  C   UNL     1      44.903   5.540  12.735  0.00  0.00    +0.000 A 
ATOM      5  C   UNL     1      45.771   6.545  12.299  0.00  0.00    +0.000 A 
ATOM      6  C   UNL     1      47.096   6.597  12.760  0.00  0.00    +0.000 A 
ATOM      7  C   UNL     1      47.494   5.589  13.645  0.00  0.00    +0.000 A 
ATOM      8  C   UNL     1      46.586   4.611  14.019  0.00  0.00    +0.000 A 
ATOM      9  N   UNL     1      45.308   4.567  13.592  0.00  0.00    +0.000 NA
BRANCH   6  10
ATOM     10  C   UNL     1      48.018   7.666  12.309  0.00  0.00    +0.000 A 
ATOM     11  C   UNL     1      47.581   9.002  12.180  0.00  0.00    +0.000 A 
ATOM     12  C   UNL     1      48.430  10.008  11.711  0.00  0.00    +0.000 A 
ATOM     13  C   UNL     1      49.742   9.700  11.379  0.00  0.00    +0.000 A 
ATOM     14  F   UNL     1      50.541  10.678  10.927  0.00  0.00    +0.000 F 
ATOM     15  C   UNL     1      50.211   8.399  11.514  0.00  0.00    +0.000 A 
ATOM     16 CL   UNL     1      51.841   8.009  11.114  0.00  0.00    +0.000 Cl
ATOM     17  C   UNL     1      49.357   7.390  11.971  0.00  0.00    +0.000 A 
ENDBRANCH   6  10
ENDBRANCH   1   4
BRANCH   1  18
ATOM     18  C   UNL     1      43.249   4.376  11.196  0.00  0.00    +0.000 C 
BRANCH  18  23
ATOM     19  C   UNL     1      46.472   2.519   7.709  0.00  0.00    +0.000 A 
ATOM     20  C   UNL     1      45.638   1.840   8.588  0.00  0.00    +0.000 A 
ATOM     21  C   UNL     1      44.709   2.562   9.337  0.00  0.00    +0.000 A 
ATOM     22  C   UNL     1      44.645   3.946   9.207  0.00  0.00    +0.000 A 
ATOM     23  N   UNL     1      43.689   4.720   9.834  0.00  0.00    +0.000 N 
ATOM     24  N   UNL     1      45.475   4.617   8.385  0.00  0.00    +0.000 NA
ATOM     25  C   UNL     1      46.373   3.898   7.660  0.00  0.00    +0.000 A 
ATOM     26  H   UNL     1      43.932   5.699   9.690  0.00  0.00    +0.000 HD
BRANCH  19  28
ATOM     27  N   UNL     1      48.526   2.558   6.414  0.00  0.00    +0.000 N 
ATOM     28  C   UNL     1      47.444   1.832   6.836  0.00  0.00    +0.000 C 
ATOM     29  O   UNL     1      47.315   0.653   6.536  0.00  0.00    +0.000 OA
ATOM     30  H   UNL     1      49.240   2.043   5.916  0.00  0.00    +0.000 HD
ATOM     31  H   UNL     1      48.799   3.425   6.851  0.00  0.00    +0.000 HD
ENDBRANCH  19  28
ENDBRANCH  18  23
ENDBRANCH   1  18
TORSDOF 5
ENDMDL
MODEL 2
REMARK VINA RESULT:    -9.895      2.645      3.996
REMARK INTER + INTRA:         -13.751
REMARK INTER:                 -12.662
REMARK INTRA:                  -1.089
REMARK UNBOUND:                -0.964
REMARK  Name = 
REMARK  5 active torsions:
REMARK  status: ('A' for Active; 'I' for Inactive)
REMARK    1  A    between atoms: C_2  and  C_4
REMARK    2  A    between atoms: N_8  and  C_9
REMARK    3  A    between atoms: C_9  and  C_10
REMARK    4  A    between atoms: C_10  and  C_13
REMARK    5  A    between atoms: C_15  and  C_16
REMARK                            x       y       z     vdW  Elec       q    Type
REMARK                         _______ _______ _______ _____ _____    ______ ____
ROOT
ATOM      1  C   UNL     1      43.511   5.546  12.106  0.00  0.00    +0.000 C 
ATOM      2  F   UNL     1      42.874   6.653  11.613  0.00  0.00    +0.000 F 
ATOM      3  F   UNL     1      42.852   5.250  13.274  0.00  0.00    +0.000 F 
ENDROOT
BRANCH   1   4
ATOM      4  C   UNL     1      44.992   5.809  12.359  0.00  0.00    +0.000 A 
ATOM      5  C   UNL     1      45.566   5.321  13.536  0.00  0.00    +0.000 A 
ATOM      6  C   UNL     1      46.924   5.538  13.814  0.00  0.00    +0.000 A 
ATOM      7  C   UNL     1      47.650   6.277  12.873  0.00  0.00    +0.000 A 
ATOM      8  C   UNL     1      47.011   6.748  11.736  0.00  0.00    +0.000 A 
ATOM      9  N   UNL     1      45.710   6.527  11.456  0.00  0.00    +0.000 NA
BRANCH   6  10
ATOM     10  C   UNL     1      47.541   5.016  15.057  0.00  0.00    +0.000 A 
ATOM     11  C   UNL     1      47.302   3.694  15.492  0.00  0.00    +0.000 A 
ATOM     12  C   UNL     1      47.840   3.208  16.686  0.00  0.00    +0.000 A 
ATOM     13  C   UNL     1      48.646   4.030  17.461  0.00  0.00    +0.000 A 
ATOM     14  F   UNL     1      49.152   3.547  18.606  0.00  0.00    +0.000 F 
ATOM     15  C   UNL     1      48.920   5.330  17.052  0.00  0.00    +0.000 A 
ATOM     16 CL   UNL     1      49.928   6.355  18.002  0.00  0.00    +0.000 Cl
ATOM     17  C   UNL     1      48.369   5.821  15.863  0.00  0.00    +0.000 A 
ENDBRANCH   6  10
ENDBRANCH   1   4
BRANCH   1  18
ATOM     18  C   UNL     1      43.298   4.374  11.122  0.00  0.00    +0.000 C 
BRANCH  18  23
ATOM     19  C   UNL     1      46.519   2.472   7.658  0.00  0.00    +0.000 A 
ATOM     20  C   UNL     1      45.688   1.804   8.548  0.00  0.00    +0.000 A 
ATOM     21  C   UNL     1      44.759   2.535   9.288  0.00  0.00    +0.000 A 
ATOM     22  C   UNL     1      44.691   3.917   9.137  0.00  0.00    +0.000 A 
ATOM     23  N   UNL     1      43.734   4.698   9.754  0.00  0.00    +0.000 N 
ATOM     24  N   UNL     1      45.518   4.577   8.304  0.00  0.00    +0.000 NA
ATOM     25  C   UNL     1      46.416   3.850   7.587  0.00  0.00    +0.000 A 
ATOM     26  H   UNL     1      43.975   5.675   9.595  0.00  0.00    +0.000 HD
BRANCH  19  28
ATOM     27  N   UNL     1      48.564   2.499   6.348  0.00  0.00    +0.000 N 
ATOM     28  C   UNL     1      47.491   1.773   6.793  0.00  0.00    +0.000 C 
ATOM     29  O   UNL     1      47.369   0.587   6.519  0.00  0.00    +0.000 OA
ATOM     30  H   UNL     1      49.279   1.979   5.857  0.00  0.00    +0.000 HD
ATOM     31  H   UNL     1      48.832   3.378   6.765  0.00  0.00    +0.000 HD
ENDBRANCH  19  28
ENDBRANCH  18  23
ENDBRANCH   1  18
TORSDOF 5
ENDMDL
MODEL 3
REMARK VINA RESULT:    -9.214      1.587      2.100
REMARK INTER + INTRA:         -12.871
REMARK INTER:                 -11.697
REMARK INTRA:                  -1.174
REMARK UNBOUND:                -0.964
REMARK  Name = 
REMARK  5 active torsions:
REMARK  status: ('A' for Active; 'I' for Inactive)
REMARK    1  A    between atoms: C_2  and  C_4
REMARK    2  A    between atoms: N_8  and  C_9
REMARK    3  A    between atoms: C_9  and  C_10
REMARK    4  A    between atoms: C_10  and  C_13
REMARK    5  A    between atoms: C_15  and  C_16
REMARK                            x       y       z     vdW  Elec       q    Type
REMARK                         _______ _______ _______ _____ _____    ______ ____
ROOT
ATOM      1  C   UNL     1      44.441   4.306  12.282  0.00  0.00    +0.000 C 
ATOM      2  F   UNL     1      43.860   4.112  13.506  0.00  0.00    +0.000 F 
ATOM      3  F   UNL     1      45.455   3.382  12.221  0.00  0.00    +0.000 F 
ENDROOT
BRANCH   1   4
ATOM      4  C   UNL     1      44.977   5.726  12.126  0.00  0.00    +0.000 A 
ATOM      5  C   UNL     1      46.310   5.977  12.461  0.00  0.00    +0.000 A 
ATOM      6  C   UNL     1      46.849   7.267  12.336  0.00  0.00    +0.000 A 
ATOM      7  C   UNL     1      45.983   8.270  11.888  0.00  0.00    +0.000 A 
ATOM      8  C   UNL     1      44.666   7.954  11.593  0.00  0.00    +0.000 A 
ATOM      9  N   UNL     1      44.148   6.712  11.695  0.00  0.00    +0.000 NA
BRANCH   6  10
ATOM     10  C   UNL     1      48.265   7.538  12.681  0.00  0.00    +0.000 A 
ATOM     11  C   UNL     1      48.744   7.360  13.997  0.00  0.00    +0.000 A 
ATOM     12  C   UNL     1      50.065   7.658  14.342  0.00  0.00    +0.000 A 
ATOM     13  C   UNL     1      50.940   8.123  13.370  0.00  0.00    +0.000 A 
ATOM     14  F   UNL     1      52.203   8.406  13.721  0.00  0.00    +0.000 F 
ATOM     15  C   UNL     1      50.508   8.289  12.060  0.00  0.00    +0.000 A 
ATOM     16 CL   UNL     1      51.590   8.855  10.845  0.00  0.00    +0.000 Cl
ATOM     17  C   UNL     1      49.181   8.004  11.719  0.00  0.00    +0.000 A 
ENDBRANCH   6  10
ENDBRANCH   1   4
BRANCH   1  18
ATOM     18  C   UNL     1      43.408   3.961  11.185  0.00  0.00    +0.000 C 
BRANCH  18  23
ATOM     19  C   UNL     1      46.667   2.743   7.458  0.00  0.00    +0.000 A 
ATOM     20  C   UNL     1      45.903   1.912   8.268  0.00  0.00    +0.000 A 
ATOM     21  C   UNL     1      44.944   2.477   9.109  0.00  0.00    +0.000 A 
ATOM     22  C   UNL     1      44.782   3.858   9.138  0.00  0.00    +0.000 A 
ATOM     23  N   UNL     1      43.790   4.486   9.864  0.00  0.00    +0.000 N 
ATOM     24  N   UNL     1      45.543   4.675   8.384  0.00  0.00    +0.000 NA
ATOM     25  C   UNL     1      46.471   4.108   7.568  0.00  0.00    +0.000 A 
ATOM     26  H   UNL     1      43.961   5.490   9.828  0.00  0.00    +0.000 HD
BRANCH  19  28
ATOM     27  N   UNL     1      47.882   2.974   5.369  0.00  0.00    +0.000 N 
ATOM     28  C   UNL     1      47.663   2.229   6.497  0.00  0.00    +0.000 C 
ATOM     29  O   UNL     1      48.297   1.206   6.716  0.00  0.00    +0.000 OA
ATOM     30  H   UNL     1      48.647   2.673   4.780  0.00  0.00    +0.000 HD
ATOM     31  H   UNL     1      47.584   3.935   5.289  0.00  0.00    +0.000 HD
ENDBRANCH  19  28
ENDBRANCH  18  23
ENDBRANCH   1  18
TORSDOF 5
ENDMDL
MODEL 4
REMARK VINA RESULT:    -8.606      4.173      7.549
REMARK INTER + INTRA:         -12.086
REMARK INTER:                 -11.200
REMARK INTRA:                  -0.885
REMARK UNBOUND:                -0.964
REMARK  Name = 
REMARK  5 active torsions:
REMARK  status: ('A' for Active; 'I' for Inactive)
REMARK    1  A    between atoms: C_2  and  C_4
REMARK    2  A    between atoms: N_8  and  C_9
REMARK    3  A    between atoms: C_9  and  C_10
REMARK    4  A    between atoms: C_10  and  C_13
REMARK    5  A    between atoms: C_15  and  C_16
REMARK                            x       y       z     vdW  Elec       q    Type
REMARK                         _______ _______ _______ _____ _____    ______ ____
ROOT
ATOM      1  C   UNL     1      45.711   7.181  12.217  0.00  0.00    +0.000 C 
ATOM      2  F   UNL     1      44.840   7.979  12.909  0.00  0.00    +0.000 F 
ATOM      3  F   UNL     1      46.306   8.017  11.304  0.00  0.00    +0.000 F 
ENDROOT
BRANCH   1   4
ATOM      4  C   UNL     1      44.996   6.025  11.524  0.00  0.00    +0.000 A 
ATOM      5  C   UNL     1      45.649   5.367  10.479  0.00  0.00    +0.000 A 
ATOM      6  C   UNL     1      45.033   4.298   9.809  0.00  0.00    +0.000 A 
ATOM      7  C   UNL     1      43.742   3.955  10.226  0.00  0.00    +0.000 A 
ATOM      8  C   UNL     1      43.146   4.666  11.257  0.00  0.00    +0.000 A 
ATOM      9  N   UNL     1      43.742   5.681  11.915  0.00  0.00    +0.000 NA
BRANCH   6  10
ATOM     10  C   UNL     1      45.724   3.589   8.706  0.00  0.00    +0.000 A 
ATOM     11  C   UNL     1      46.251   4.293   7.602  0.00  0.00    +0.000 A 
ATOM     12  C   UNL     1      46.862   3.630   6.535  0.00  0.00    +0.000 A 
ATOM     13  C   UNL     1      46.975   2.247   6.561  0.00  0.00    +0.000 A 
ATOM     14  F   UNL     1      47.562   1.627   5.526  0.00  0.00    +0.000 F 
ATOM     15  C   UNL     1      46.487   1.524   7.643  0.00  0.00    +0.000 A 
ATOM     16 CL   UNL     1      46.632  -0.192   7.689  0.00  0.00    +0.000 Cl
ATOM     17  C   UNL     1      45.862   2.188   8.704  0.00  0.00    +0.000 A 
ENDBRANCH   6  10
ENDBRANCH   1   4
BRANCH   1  18
ATOM     18  C   UNL     1      46.800   6.678  13.192  0.00  0.00    +0.000 C 
BRANCH  18  23
ATOM     19  C   UNL     1      48.618   3.782  16.974  0.00  0.00    +0.000 A 
ATOM     20  C   UNL     1      48.676   5.161  16.813  0.00  0.00    +0.000 A 
ATOM     21  C   UNL     1      47.954   5.755  15.779  0.00  0.00    +0.000 A 
ATOM     22  C   UNL     1      47.203   4.961  14.918  0.00  0.00    +0.000 A 
ATOM     23  N   UNL     1      46.382   5.479  13.936  0.00  0.00    +0.000 N 
ATOM     24  N   UNL     1      47.170   3.620  15.043  0.00  0.00    +0.000 NA
ATOM     25  C   UNL     1      47.877   3.056  16.058  0.00  0.00    +0.000 A 
ATOM     26  H   UNL     1      46.051   4.705  13.362  0.00  0.00    +0.000 HD
BRANCH  19  28
ATOM     27  N   UNL     1      48.669   3.048  19.288  0.00  0.00    +0.000 N 
ATOM     28  C   UNL     1      49.303   3.075  18.074  0.00  0.00    +0.000 C 
ATOM     29  O   UNL     1      50.369   2.500  17.901  0.00  0.00    +0.000 OA
ATOM     30  H   UNL     1      49.091   2.462  19.996  0.00  0.00    +0.000 HD
ATOM     31  H   UNL     1      47.690   3.270  19.392  0.00  0.00    +0.000 HD
ENDBRANCH  19  28
ENDBRANCH  18  23
ENDBRANCH   1  18
TORSDOF 5
ENDMDL
MODEL 5
REMARK VINA RESULT:    -7.932      4.203      7.733
REMARK INTER + INTRA:         -11.214
REMARK INTER:                 -10.209
REMARK INTRA:                  -1.006
REMARK UNBOUND:                -0.964
REMARK  Name = 
REMARK  5 active torsions:
REMARK  status: ('A' for Active; 'I' for Inactive)
REMARK    1  A    between atoms: C_2  and  C_4
REMARK    2  A    between atoms: N_8  and  C_9
REMARK    3  A    between atoms: C_9  and  C_10
REMARK    4  A    between atoms: C_10  and  C_13
REMARK    5  A    between atoms: C_15  and  C_16
REMARK                            x       y       z     vdW  Elec       q    Type
REMARK                         _______ _______ _______ _____ _____    ______ ____
ROOT
ATOM      1  C   UNL     1      48.922   8.110  12.250  0.00  0.00    +0.000 C 
ATOM      2  F   UNL     1      49.399   9.114  11.451  0.00  0.00    +0.000 F 
ATOM      3  F   UNL     1      49.673   7.009  11.921  0.00  0.00    +0.000 F 
ENDROOT
BRANCH   1   4
ATOM      4  C   UNL     1      47.436   7.856  12.017  0.00  0.00    +0.000 A 
ATOM      5  C   UNL     1      47.052   6.665  11.394  0.00  0.00    +0.000 A 
ATOM      6  C   UNL     1      45.697   6.386  11.155  0.00  0.00    +0.000 A 
ATOM      7  C   UNL     1      44.775   7.362  11.549  0.00  0.00    +0.000 A 
ATOM      8  C   UNL     1      45.228   8.530  12.143  0.00  0.00    +0.000 A 
ATOM      9  N   UNL     1      46.527   8.794  12.390  0.00  0.00    +0.000 NA
BRANCH   6  10
ATOM     10  C   UNL     1      45.283   5.121  10.503  0.00  0.00    +0.000 A 
ATOM     11  C   UNL     1      44.504   4.166  11.192  0.00  0.00    +0.000 A 
ATOM     12  C   UNL     1      44.148   2.950  10.602  0.00  0.00    +0.000 A 
ATOM     13  C   UNL     1      44.550   2.673   9.303  0.00  0.00    +0.000 A 
ATOM     14  F   UNL     1      44.201   1.499   8.755  0.00  0.00    +0.000 F 
ATOM     15  C   UNL     1      45.299   3.600   8.589  0.00  0.00    +0.000 A 
ATOM     16 CL   UNL     1      45.794   3.270   6.972  0.00  0.00    +0.000 Cl
ATOM     17  C   UNL     1      45.667   4.811   9.185  0.00  0.00    +0.000 A 
ENDBRANCH   6  10
ENDBRANCH   1   4
BRANCH   1  18
ATOM     18  C   UNL     1      49.215   8.470  13.725  0.00  0.00    +0.000 C 
BRANCH  18  23
ATOM     19  C   UNL     1      48.128   4.522  16.762  0.00  0.00    +0.000 A 
ATOM     20  C   UNL     1      47.436   5.000  15.656  0.00  0.00    +0.000 A 
ATOM     21  C   UNL     1      48.018   5.994  14.869  0.00  0.00    +0.000 A 
ATOM     22  C   UNL     1      49.267   6.502  15.212  0.00  0.00    +0.000 A 
ATOM     23  N   UNL     1      49.952   7.410  14.430  0.00  0.00    +0.000 N 
ATOM     24  N   UNL     1      49.929   6.071  16.303  0.00  0.00    +0.000 NA
ATOM     25  C   UNL     1      49.350   5.100  17.058  0.00  0.00    +0.000 A 
ATOM     26  H   UNL     1      50.769   7.723  14.954  0.00  0.00    +0.000 HD
BRANCH  19  28
ATOM     27  N   UNL     1      48.403   3.045  18.669  0.00  0.00    +0.000 N 
ATOM     28  C   UNL     1      47.616   3.433  17.618  0.00  0.00    +0.000 C 
ATOM     29  O   UNL     1      46.519   2.927  17.424  0.00  0.00    +0.000 OA
ATOM     30  H   UNL     1      47.988   2.383  19.313  0.00  0.00    +0.000 HD
ATOM     31  H   UNL     1      49.166   3.609  19.011  0.00  0.00    +0.000 HD
ENDBRANCH  19  28
ENDBRANCH  18  23
ENDBRANCH   1  18
TORSDOF 5
ENDMDL
MODEL 6
REMARK VINA RESULT:    -7.578      4.534      7.751
REMARK INTER + INTRA:         -10.757
REMARK INTER:                 -10.110
REMARK INTRA:                  -0.647
REMARK UNBOUND:                -0.964
REMARK  Name = 
REMARK  5 active torsions:
REMARK  status: ('A' for Active; 'I' for Inactive)
REMARK    1  A    between atoms: C_2  and  C_4
REMARK    2  A    between atoms: N_8  and  C_9
REMARK    3  A    between atoms: C_9  and  C_10
REMARK    4  A    between atoms: C_10  and  C_13
REMARK    5  A    between atoms: C_15  and  C_16
REMARK                            x       y       z     vdW  Elec       q    Type
REMARK                         _______ _______ _______ _____ _____    ______ ____
ROOT
ATOM      1  C   UNL     1      45.250   7.037  12.110  0.00  0.00    +0.000 C 
ATOM      2  F   UNL     1      44.612   7.398  13.266  0.00  0.00    +0.000 F 
ATOM      3  F   UNL     1      45.021   8.075  11.241  0.00  0.00    +0.000 F 
ENDROOT
BRANCH   1   4
ATOM      4  C   UNL     1      44.715   5.722  11.553  0.00  0.00    +0.000 A 
ATOM      5  C   UNL     1      45.379   5.134  10.473  0.00  0.00    +0.000 A 
ATOM      6  C   UNL     1      44.925   3.925   9.923  0.00  0.00    +0.000 A 
ATOM      7  C   UNL     1      43.777   3.367  10.495  0.00  0.00    +0.000 A 
ATOM      8  C   UNL     1      43.156   4.014  11.552  0.00  0.00    +0.000 A 
ATOM      9  N   UNL     1      43.599   5.167  12.094  0.00  0.00    +0.000 NA
BRANCH   6  10
ATOM     10  C   UNL     1      45.631   3.293   8.784  0.00  0.00    +0.000 A 
ATOM     11  C   UNL     1      46.108   4.063   7.701  0.00  0.00    +0.000 A 
ATOM     12  C   UNL     1      46.732   3.470   6.600  0.00  0.00    +0.000 A 
ATOM     13  C   UNL     1      46.910   2.094   6.570  0.00  0.00    +0.000 A 
ATOM     14  F   UNL     1      47.509   1.543   5.504  0.00  0.00    +0.000 F 
ATOM     15  C   UNL     1      46.472   1.308   7.629  0.00  0.00    +0.000 A 
ATOM     16 CL   UNL     1      46.697  -0.400   7.606  0.00  0.00    +0.000 Cl
ATOM     17  C   UNL     1      45.834   1.901   8.724  0.00  0.00    +0.000 A 
ENDBRANCH   6  10
ENDBRANCH   1   4
BRANCH   1  18
ATOM     18  C   UNL     1      46.769   6.965  12.385  0.00  0.00    +0.000 C 
BRANCH  18  23
ATOM     19  C   UNL     1      50.916   7.339  15.328  0.00  0.00    +0.000 A 
ATOM     20  C   UNL     1      50.606   8.012  14.153  0.00  0.00    +0.000 A 
ATOM     21  C   UNL     1      49.328   7.875  13.609  0.00  0.00    +0.000 A 
ATOM     22  C   UNL     1      48.395   7.058  14.240  0.00  0.00    +0.000 A 
ATOM     23  N   UNL     1      47.083   6.951  13.823  0.00  0.00    +0.000 N 
ATOM     24  N   UNL     1      48.698   6.373  15.359  0.00  0.00    +0.000 NA
ATOM     25  C   UNL     1      49.947   6.519  15.878  0.00  0.00    +0.000 A 
ATOM     26  H   UNL     1      46.644   6.201  14.356  0.00  0.00    +0.000 HD
BRANCH  19  28
ATOM     27  N   UNL     1      53.287   6.826  15.434  0.00  0.00    +0.000 N 
ATOM     28  C   UNL     1      52.222   7.471  16.005  0.00  0.00    +0.000 C 
ATOM     29  O   UNL     1      52.358   8.160  17.007  0.00  0.00    +0.000 OA
ATOM     30  H   UNL     1      54.193   7.021  15.840  0.00  0.00    +0.000 HD
ATOM     31  H   UNL     1      53.266   6.483  14.486  0.00  0.00    +0.000 HD
ENDBRANCH  19  28
ENDBRANCH  18  23
ENDBRANCH   1  18
TORSDOF 5
ENDMDL
MODEL 7
REMARK VINA RESULT:    -7.298      4.408      7.948
REMARK INTER + INTRA:         -10.395
REMARK INTER:                  -9.324
REMARK INTRA:                  -1.071
REMARK UNBOUND:                -0.964
REMARK  Name = 
REMARK  5 active torsions:
REMARK  status: ('A' for Active; 'I' for Inactive)
REMARK    1  A    between atoms: C_2  and  C_4
REMARK    2  A    between atoms: N_8  and  C_9
REMARK    3  A    between atoms: C_9  and  C_10
REMARK    4  A    between atoms: C_10  and  C_13
REMARK    5  A    between atoms: C_15  and  C_16
REMARK                            x       y       z     vdW  Elec       q    Type
REMARK                         _______ _______ _______ _____ _____    ______ ____
ROOT
ATOM      1  C   UNL     1      49.105   8.408  12.525  0.00  0.00    +0.000 C 
ATOM      2  F   UNL     1      49.586   9.570  11.985  0.00  0.00    +0.000 F 
ATOM      3  F   UNL     1      49.860   7.413  11.954  0.00  0.00    +0.000 F 
ENDROOT
BRANCH   1   4
ATOM      4  C   UNL     1      47.621   8.215  12.228  0.00  0.00    +0.000 A 
ATOM      5  C   UNL     1      47.211   7.029  11.614  0.00  0.00    +0.000 A 
ATOM      6  C   UNL     1      45.858   6.805  11.319  0.00  0.00    +0.000 A 
ATOM      7  C   UNL     1      44.964   7.830  11.648  0.00  0.00    +0.000 A 
ATOM      8  C   UNL     1      45.443   8.990  12.237  0.00  0.00    +0.000 A 
ATOM      9  N   UNL     1      46.740   9.202  12.539  0.00  0.00    +0.000 NA
BRANCH   6  10
ATOM     10  C   UNL     1      45.416   5.544  10.676  0.00  0.00    +0.000 A 
ATOM     11  C   UNL     1      45.752   5.250   9.337  0.00  0.00    +0.000 A 
ATOM     12  C   UNL     1      45.300   4.087   8.708  0.00  0.00    +0.000 A 
ATOM     13  C   UNL     1      44.518   3.184   9.414  0.00  0.00    +0.000 A 
ATOM     14  F   UNL     1      44.091   2.074   8.792  0.00  0.00    +0.000 F 
ATOM     15  C   UNL     1      44.186   3.431  10.740  0.00  0.00    +0.000 A 
ATOM     16 CL   UNL     1      43.224   2.312  11.628  0.00  0.00    +0.000 Cl
ATOM     17  C   UNL     1      44.627   4.603  11.365  0.00  0.00    +0.000 A 
ENDBRANCH   6  10
ENDBRANCH   1   4
BRANCH   1  18
ATOM     18  C   UNL     1      49.387   8.416  14.045  0.00  0.00    +0.000 C 
BRANCH  18  23
ATOM     19  C   UNL     1      49.096   4.422  17.201  0.00  0.00    +0.000 A 
ATOM     20  C   UNL     1      50.092   5.384  17.086  0.00  0.00    +0.000 A 
ATOM     21  C   UNL     1      49.875   6.491  16.266  0.00  0.00    +0.000 A 
ATOM     22  C   UNL     1      48.678   6.606  15.566  0.00  0.00    +0.000 A 
ATOM     23  N   UNL     1      48.346   7.717  14.817  0.00  0.00    +0.000 N 
ATOM     24  N   UNL     1      47.722   5.661  15.642  0.00  0.00    +0.000 NA
ATOM     25  C   UNL     1      47.947   4.589  16.448  0.00  0.00    +0.000 A 
ATOM     26  H   UNL     1      47.492   7.506  14.302  0.00  0.00    +0.000 HD
BRANCH  19  28
ATOM     27  N   UNL     1      48.431   3.234  19.212  0.00  0.00    +0.000 N 
ATOM     28  C   UNL     1      49.215   3.248  18.089  0.00  0.00    +0.000 C 
ATOM     29  O   UNL     1      49.949   2.309  17.814  0.00  0.00    +0.000 OA
ATOM     30  H   UNL     1      48.436   2.374  19.745  0.00  0.00    +0.000 HD
ATOM     31  H   UNL     1      47.638   3.846  19.325  0.00  0.00    +0.000 HD
ENDBRANCH  19  28
ENDBRANCH  18  23
ENDBRANCH   1  18
TORSDOF 5
ENDMDL
MODEL 8
REMARK VINA RESULT:    -7.184      6.176      8.670
REMARK INTER + INTRA:         -10.247
REMARK INTER:                  -9.437
REMARK INTRA:                  -0.811
REMARK UNBOUND:                -0.964
REMARK  Name = 
REMARK  5 active torsions:
REMARK  status: ('A' for Active; 'I' for Inactive)
REMARK    1  A    between atoms: C_2  and  C_4
REMARK    2  A    between atoms: N_8  and  C_9
REMARK    3  A    between atoms: C_9  and  C_10
REMARK    4  A    between atoms: C_10  and  C_13
REMARK    5  A    between atoms: C_15  and  C_16
REMARK                            x       y       z     vdW  Elec       q    Type
REMARK                         _______ _______ _______ _____ _____    ______ ____
ROOT
ATOM      1  C   UNL     1      47.977   3.859  17.049  0.00  0.00    +0.000 C 
ATOM      2  F   UNL     1      48.202   2.584  16.602  0.00  0.00    +0.000 F 
ATOM      3  F   UNL     1      46.772   3.796  17.704  0.00  0.00    +0.000 F 
ENDROOT
BRANCH   1   4
ATOM      4  C   UNL     1      47.931   4.863  15.902  0.00  0.00    +0.000 A 
ATOM      5  C   UNL     1      47.115   4.585  14.802  0.00  0.00    +0.000 A 
ATOM      6  C   UNL     1      47.040   5.477  13.721  0.00  0.00    +0.000 A 
ATOM      7  C   UNL     1      47.833   6.627  13.799  0.00  0.00    +0.000 A 
ATOM      8  C   UNL     1      48.635   6.830  14.911  0.00  0.00    +0.000 A 
ATOM      9  N   UNL     1      48.697   5.984  15.960  0.00  0.00    +0.000 NA
BRANCH   6  10
ATOM     10  C   UNL     1      46.169   5.191  12.556  0.00  0.00    +0.000 A 
ATOM     11  C   UNL     1      46.221   5.988  11.392  0.00  0.00    +0.000 A 
ATOM     12  C   UNL     1      45.371   5.756  10.308  0.00  0.00    +0.000 A 
ATOM     13  C   UNL     1      44.464   4.708  10.359  0.00  0.00    +0.000 A 
ATOM     14  F   UNL     1      43.654   4.502   9.309  0.00  0.00    +0.000 F 
ATOM     15  C   UNL     1      44.400   3.890  11.480  0.00  0.00    +0.000 A 
ATOM     16 CL   UNL     1      43.284   2.580  11.549  0.00  0.00    +0.000 Cl
ATOM     17  C   UNL     1      45.242   4.132  12.572  0.00  0.00    +0.000 A 
ENDBRANCH   6  10
ENDBRANCH   1   4
BRANCH   1  18
ATOM     18  C   UNL     1      49.069   4.220  18.081  0.00  0.00    +0.000 C 
BRANCH  18  23
ATOM     19  C   UNL     1      53.249   1.318  17.757  0.00  0.00    +0.000 A 
ATOM     20  C   UNL     1      51.911   0.946  17.709  0.00  0.00    +0.000 A 
ATOM     21  C   UNL     1      50.932   1.937  17.643  0.00  0.00    +0.000 A 
ATOM     22  C   UNL     1      51.307   3.277  17.644  0.00  0.00    +0.000 A 
ATOM     23  N   UNL     1      50.409   4.312  17.478  0.00  0.00    +0.000 N 
ATOM     24  N   UNL     1      52.599   3.648  17.727  0.00  0.00    +0.000 NA
ATOM     25  C   UNL     1      53.541   2.670  17.788  0.00  0.00    +0.000 A 
ATOM     26  H   UNL     1      50.902   5.187  17.648  0.00  0.00    +0.000 HD
BRANCH  19  28
ATOM     27  N   UNL     1      54.021  -0.976  17.572  0.00  0.00    +0.000 N 
ATOM     28  C   UNL     1      54.353   0.338  17.770  0.00  0.00    +0.000 C 
ATOM     29  O   UNL     1      55.517   0.686  17.908  0.00  0.00    +0.000 OA
ATOM     30  H   UNL     1      54.796  -1.618  17.465  0.00  0.00    +0.000 HD
ATOM     31  H   UNL     1      53.130  -1.258  17.193  0.00  0.00    +0.000 HD
ENDBRANCH  19  28
ENDBRANCH  18  23
ENDBRANCH   1  18
TORSDOF 5
ENDMDL
