MODEL 1
REMARK VINA RESULT:    -7.371      0.000      0.000
REMARK INTER + INTRA:          -9.897
REMARK INTER:                  -9.310
REMARK INTRA:                  -0.587
REMARK UNBOUND:                -0.587
REMARK  Name = 
REMARK  5 active torsions:
REMARK  status: ('A' for Active; 'I' for Inactive)
REMARK    1  A    between atoms: N_1  and  C_2
REMARK    2  A    between atoms: C_2  and  C_3
REMARK    3  A    between atoms: C_6  and  C_7
REMARK    4  A    between atoms: C_7  and  N_8
REMARK    5  A    between atoms: C_13  and  C_14
REMARK                            x       y       z     vdW  Elec       q    Type
REMARK                         _______ _______ _______ _____ _____    ______ ____
ROOT
ATOM      1  N   UNL     1      44.435   4.720  10.348  0.00  0.00    +0.000 N 
ATOM      2  C   UNL     1      43.719   3.662  10.861  0.00  0.00    +0.000 A 
ATOM      3  C   UNL     1      44.124   2.517  10.215  0.00  0.00    +0.000 A 
ATOM      4  C   UNL     1      45.068   2.897   9.227  0.00  0.00    +0.000 A 
ATOM      5  C   UNL     1      45.800   2.206   8.248  0.00  0.00    +0.000 A 
ATOM      6  C   UNL     1      46.620   2.948   7.397  0.00  0.00    +0.000 A 
ATOM      7  C   UNL     1      46.697   4.328   7.595  0.00  0.00    +0.000 A 
ATOM      8  N   UNL     1      46.035   5.044   8.547  0.00  0.00    +0.000 NA
ATOM      9  C   UNL     1      45.234   4.279   9.319  0.00  0.00    +0.000 A 
ENDROOT
BRANCH   6  10
ATOM     10  C   UNL     1      47.397   2.347   6.287  0.00  0.00    +0.000 C 
ATOM     11  N   UNL     1      47.365   2.950   5.059  0.00  0.00    +0.000 N 
ATOM     12  O   UNL     1      48.067   1.335   6.453  0.00  0.00    +0.000 OA
ATOM     13  H   UNL     1      46.868   3.799   4.836  0.00  0.00    +0.000 HD
ATOM     14  H   UNL     1      47.925   2.533   4.328  0.00  0.00    +0.000 HD
ENDBRANCH   6  10
BRANCH   1  15
ATOM     15  C   UNL     1      44.364   6.084  10.856  0.00  0.00    +0.000 C 
BRANCH  15  19
ATOM     16  C   UNL     1      47.308   8.063  12.390  0.00  0.00    +0.000 C 
ATOM     17  C   UNL     1      47.390   6.643  11.801  0.00  0.00    +0.000 C 
ATOM     18  C   UNL     1      46.361   5.697  12.419  0.00  0.00    +0.000 C 
ATOM     19  C   UNL     1      44.920   6.221  12.295  0.00  0.00    +0.000 C 
ATOM     20  C   UNL     1      44.816   7.666  12.813  0.00  0.00    +0.000 C 
ATOM     21  C   UNL     1      45.875   8.599  12.227  0.00  0.00    +0.000 C 
BRANCH  16  22
ATOM     22  C   UNL     1      47.829   8.068  13.843  0.00  0.00    +0.000 C 
BRANCH  22  23
ATOM     23  N   UNL     1      47.274   9.150  14.649  0.00  0.00    +0.000 NA
ATOM     24  H   UNL     1      47.564  10.042  14.248  0.00  0.00    +0.000 HD
ATOM     25  H   UNL     1      47.678   9.126  15.584  0.00  0.00    +0.000 HD
ENDBRANCH  22  23
ENDBRANCH  16  22
ENDBRANCH  15  19
ENDBRANCH   1  15
TORSDOF 5
ENDMDL
MODEL 2
REMARK VINA RESULT:    -5.953      4.395      6.195
REMARK INTER + INTRA:          -8.106
REMARK INTER:                  -7.678
REMARK INTRA:                  -0.428
REMARK UNBOUND:                -0.587
REMARK  Name = 
REMARK  5 active torsions:
REMARK  status: ('A' for Active; 'I' for Inactive)
REMARK    1  A    between atoms: N_1  and  C_2
REMARK    2  A    between atoms: C_2  and  C_3
REMARK    3  A    between atoms: C_6  and  C_7
REMARK    4  A    between atoms: C_7  and  N_8
REMARK    5  A    between atoms: C_13  and  C_14
REMARK                            x       y       z     vdW  Elec       q    Type
REMARK                         _______ _______ _______ _____ _____    ______ ____
ROOT
ATOM      1  N   UNL     1      47.364   5.312  14.572  0.00  0.00    +0.000 N 
ATOM      2  C   UNL     1      47.949   6.489  14.160  0.00  0.00    +0.000 A 
ATOM      3  C   UNL     1      47.442   6.807  12.921  0.00  0.00    +0.000 A 
ATOM      4  C   UNL     1      46.573   5.757  12.533  0.00  0.00    +0.000 A 
ATOM      5  C   UNL     1      45.799   5.491  11.391  0.00  0.00    +0.000 A 
ATOM      6  C   UNL     1      45.087   4.292  11.347  0.00  0.00    +0.000 A 
ATOM      7  C   UNL     1      45.151   3.447  12.456  0.00  0.00    +0.000 A 
ATOM      8  N   UNL     1      45.858   3.669  13.600  0.00  0.00    +0.000 NA
ATOM      9  C   UNL     1      46.552   4.828  13.573  0.00  0.00    +0.000 A 
ENDROOT
BRANCH   6  10
ATOM     10  C   UNL     1      44.282   3.866  10.177  0.00  0.00    +0.000 C 
ATOM     11  N   UNL     1      44.138   4.732   9.128  0.00  0.00    +0.000 N 
ATOM     12  O   UNL     1      43.755   2.761  10.134  0.00  0.00    +0.000 OA
ATOM     13  H   UNL     1      44.557   5.647   9.062  0.00  0.00    +0.000 HD
ATOM     14  H   UNL     1      43.605   4.405   8.333  0.00  0.00    +0.000 HD
ENDBRANCH   6  10
BRANCH   1  15
ATOM     15  C   UNL     1      47.565   4.709  15.883  0.00  0.00    +0.000 C 
BRANCH  15  19
ATOM     16  C   UNL     1      48.671   4.566  19.583  0.00  0.00    +0.000 C 
ATOM     17  C   UNL     1      47.665   5.566  18.984  0.00  0.00    +0.000 C 
ATOM     18  C   UNL     1      48.233   6.308  17.775  0.00  0.00    +0.000 C 
ATOM     19  C   UNL     1      48.729   5.357  16.672  0.00  0.00    +0.000 C 
ATOM     20  C   UNL     1      49.686   4.300  17.250  0.00  0.00    +0.000 C 
ATOM     21  C   UNL     1      49.135   3.591  18.486  0.00  0.00    +0.000 C 
BRANCH  16  22
ATOM     22  C   UNL     1      49.817   5.322  20.290  0.00  0.00    +0.000 C 
BRANCH  22  23
ATOM     23  N   UNL     1      50.890   4.444  20.743  0.00  0.00    +0.000 NA
ATOM     24  H   UNL     1      50.675   3.487  20.463  0.00  0.00    +0.000 HD
ATOM     25  H   UNL     1      50.918   4.432  21.762  0.00  0.00    +0.000 HD
ENDBRANCH  22  23
ENDBRANCH  16  22
ENDBRANCH  15  19
ENDBRANCH   1  15
TORSDOF 5
ENDMDL
MODEL 3
REMARK VINA RESULT:    -5.893      4.630      8.336
REMARK INTER + INTRA:          -8.031
REMARK INTER:                  -7.541
REMARK INTRA:                  -0.490
REMARK UNBOUND:                -0.587
REMARK  Name = 
REMARK  5 active torsions:
REMARK  status: ('A' for Active; 'I' for Inactive)
REMARK    1  A    between atoms: N_1  and  C_2
REMARK    2  A    between atoms: C_2  and  C_3
REMARK    3  A    between atoms: C_6  and  C_7
REMARK    4  A    between atoms: C_7  and  N_8
REMARK    5  A    between atoms: C_13  and  C_14
REMARK                            x       y       z     vdW  Elec       q    Type
REMARK                         _______ _______ _______ _____ _____    ______ ____
ROOT
ATOM      1  N   UNL     1      48.094   6.614  14.280  0.00  0.00    +0.000 N 
ATOM      2  C   UNL     1      48.500   7.919  14.444  0.00  0.00    +0.000 A 
ATOM      3  C   UNL     1      49.039   8.044  15.703  0.00  0.00    +0.000 A 
ATOM      4  C   UNL     1      48.895   6.793  16.355  0.00  0.00    +0.000 A 
ATOM      5  C   UNL     1      49.212   6.307  17.634  0.00  0.00    +0.000 A 
ATOM      6  C   UNL     1      48.863   4.992  17.941  0.00  0.00    +0.000 A 
ATOM      7  C   UNL     1      48.258   4.222  16.945  0.00  0.00    +0.000 A 
ATOM      8  N   UNL     1      47.958   4.631  15.681  0.00  0.00    +0.000 NA
ATOM      9  C   UNL     1      48.288   5.920  15.452  0.00  0.00    +0.000 A 
ENDROOT
BRANCH   6  10
ATOM     10  C   UNL     1      49.088   4.379  19.272  0.00  0.00    +0.000 C 
ATOM     11  N   UNL     1      48.371   3.265  19.613  0.00  0.00    +0.000 N 
ATOM     12  O   UNL     1      49.904   4.845  20.059  0.00  0.00    +0.000 OA
ATOM     13  H   UNL     1      47.702   2.795  19.022  0.00  0.00    +0.000 HD
ATOM     14  H   UNL     1      48.564   2.854  20.517  0.00  0.00    +0.000 HD
ENDBRANCH   6  10
BRANCH   1  15
ATOM     15  C   UNL     1      47.571   6.065  13.035  0.00  0.00    +0.000 C 
BRANCH  15  19
ATOM     16  C   UNL     1      44.965   4.252  10.832  0.00  0.00    +0.000 C 
ATOM     17  C   UNL     1      45.665   5.579  10.487  0.00  0.00    +0.000 C 
ATOM     18  C   UNL     1      45.520   6.619  11.598  0.00  0.00    +0.000 C 
ATOM     19  C   UNL     1      46.025   6.111  12.959  0.00  0.00    +0.000 C 
ATOM     20  C   UNL     1      45.395   4.751  13.304  0.00  0.00    +0.000 C 
ATOM     21  C   UNL     1      45.502   3.727  12.175  0.00  0.00    +0.000 C 
BRANCH  16  22
ATOM     22  C   UNL     1      43.431   4.431  10.785  0.00  0.00    +0.000 C 
BRANCH  22  23
ATOM     23  N   UNL     1      42.706   3.345  11.434  0.00  0.00    +0.000 NA
ATOM     24  H   UNL     1      42.642   3.540  12.433  0.00  0.00    +0.000 HD
ATOM     25  H   UNL     1      43.240   2.480  11.358  0.00  0.00    +0.000 HD
ENDBRANCH  22  23
ENDBRANCH  16  22
ENDBRANCH  15  19
ENDBRANCH   1  15
TORSDOF 5
ENDMDL
MODEL 4
REMARK VINA RESULT:    -5.614      4.143      6.459
REMARK INTER + INTRA:          -7.678
REMARK INTER:                  -7.196
REMARK INTRA:                  -0.482
REMARK UNBOUND:                -0.587
REMARK  Name = 
REMARK  5 active torsions:
REMARK  status: ('A' for Active; 'I' for Inactive)
REMARK    1  A    between atoms: N_1  and  C_2
REMARK    2  A    between atoms: C_2  and  C_3
REMARK    3  A    between atoms: C_6  and  C_7
REMARK    4  A    between atoms: C_7  and  N_8
REMARK    5  A    between atoms: C_13  and  C_14
REMARK                            x       y       z     vdW  Elec       q    Type
REMARK                         _______ _______ _______ _____ _____    ______ ____
ROOT
ATOM      1  N   UNL     1      48.238   6.750  14.354  0.00  0.00    +0.000 N 
ATOM      2  C   UNL     1      47.939   7.967  13.786  0.00  0.00    +0.000 A 
ATOM      3  C   UNL     1      46.878   7.791  12.930  0.00  0.00    +0.000 A 
ATOM      4  C   UNL     1      46.562   6.408  12.921  0.00  0.00    +0.000 A 
ATOM      5  C   UNL     1      45.622   5.618  12.240  0.00  0.00    +0.000 A 
ATOM      6  C   UNL     1      45.644   4.240  12.459  0.00  0.00    +0.000 A 
ATOM      7  C   UNL     1      46.570   3.733  13.372  0.00  0.00    +0.000 A 
ATOM      8  N   UNL     1      47.481   4.455  14.082  0.00  0.00    +0.000 NA
ATOM      9  C   UNL     1      47.435   5.776  13.806  0.00  0.00    +0.000 A 
ENDROOT
BRANCH   6  10
ATOM     10  C   UNL     1      44.745   3.291  11.759  0.00  0.00    +0.000 C 
ATOM     11  N   UNL     1      43.895   2.519  12.504  0.00  0.00    +0.000 N 
ATOM     12  O   UNL     1      44.746   3.194  10.538  0.00  0.00    +0.000 OA
ATOM     13  H   UNL     1      43.803   2.550  13.508  0.00  0.00    +0.000 HD
ATOM     14  H   UNL     1      43.276   1.899  11.998  0.00  0.00    +0.000 HD
ENDBRANCH   6  10
BRANCH   1  15
ATOM     15  C   UNL     1      49.236   6.552  15.398  0.00  0.00    +0.000 C 
BRANCH  15  19
ATOM     16  C   UNL     1      49.931   4.765  18.753  0.00  0.00    +0.000 C 
ATOM     17  C   UNL     1      48.917   4.311  17.687  0.00  0.00    +0.000 C 
ATOM     18  C   UNL     1      47.941   5.424  17.304  0.00  0.00    +0.000 C 
ATOM     19  C   UNL     1      48.653   6.701  16.824  0.00  0.00    +0.000 C 
ATOM     20  C   UNL     1      49.723   7.144  17.836  0.00  0.00    +0.000 C 
ATOM     21  C   UNL     1      50.669   6.019  18.253  0.00  0.00    +0.000 C 
BRANCH  16  22
ATOM     22  C   UNL     1      49.229   4.940  20.117  0.00  0.00    +0.000 C 
BRANCH  22  23
ATOM     23  N   UNL     1      48.548   3.733  20.572  0.00  0.00    +0.000 NA
ATOM     24  H   UNL     1      48.604   3.026  19.839  0.00  0.00    +0.000 HD
ATOM     25  H   UNL     1      47.555   3.923  20.695  0.00  0.00    +0.000 HD
ENDBRANCH  22  23
ENDBRANCH  16  22
ENDBRANCH  15  19
ENDBRANCH   1  15
TORSDOF 5
ENDMDL
MODEL 5
REMARK VINA RESULT:    -5.565      3.941      6.666
REMARK INTER + INTRA:          -7.617
REMARK INTER:                  -7.197
REMARK INTRA:                  -0.420
REMARK UNBOUND:                -0.587
REMARK  Name = 
REMARK  5 active torsions:
REMARK  status: ('A' for Active; 'I' for Inactive)
REMARK    1  A    between atoms: N_1  and  C_2
REMARK    2  A    between atoms: C_2  and  C_3
REMARK    3  A    between atoms: C_6  and  C_7
REMARK    4  A    between atoms: C_7  and  N_8
REMARK    5  A    between atoms: C_13  and  C_14
REMARK                            x       y       z     vdW  Elec       q    Type
REMARK                         _______ _______ _______ _____ _____    ______ ____
ROOT
ATOM      1  N   UNL     1      46.250   8.495  12.404  0.00  0.00    +0.000 N 
ATOM      2  C   UNL     1      45.886   9.794  12.128  0.00  0.00    +0.000 A 
ATOM      3  C   UNL     1      47.002  10.466  11.688  0.00  0.00    +0.000 A 
ATOM      4  C   UNL     1      48.098   9.570  11.764  0.00  0.00    +0.000 A 
ATOM      5  C   UNL     1      49.472   9.670  11.491  0.00  0.00    +0.000 A 
ATOM      6  C   UNL     1      50.272   8.555  11.740  0.00  0.00    +0.000 A 
ATOM      7  C   UNL     1      49.655   7.392  12.205  0.00  0.00    +0.000 A 
ATOM      8  N   UNL     1      48.326   7.230  12.456  0.00  0.00    +0.000 NA
ATOM      9  C   UNL     1      47.607   8.350  12.228  0.00  0.00    +0.000 A 
ENDROOT
BRANCH   6  10
ATOM     10  C   UNL     1      51.743   8.549  11.551  0.00  0.00    +0.000 C 
ATOM     11  N   UNL     1      52.536   8.102  12.572  0.00  0.00    +0.000 N 
ATOM     12  O   UNL     1      52.252   8.928  10.503  0.00  0.00    +0.000 OA
ATOM     13  H   UNL     1      52.207   7.744  13.456  0.00  0.00    +0.000 HD
ATOM     14  H   UNL     1      53.533   8.085  12.405  0.00  0.00    +0.000 HD
ENDBRANCH   6  10
BRANCH   1  15
ATOM     15  C   UNL     1      45.318   7.444  12.791  0.00  0.00    +0.000 C 
BRANCH  15  19
ATOM     16  C   UNL     1      43.685   3.947  12.590  0.00  0.00    +0.000 C 
ATOM     17  C   UNL     1      45.193   4.228  12.725  0.00  0.00    +0.000 C 
ATOM     18  C   UNL     1      45.705   5.182  11.646  0.00  0.00    +0.000 C 
ATOM     19  C   UNL     1      44.936   6.513  11.614  0.00  0.00    +0.000 C 
ATOM     20  C   UNL     1      43.419   6.268  11.547  0.00  0.00    +0.000 C 
ATOM     21  C   UNL     1      42.916   5.280  12.599  0.00  0.00    +0.000 C 
BRANCH  16  22
ATOM     22  C   UNL     1      43.416   3.064  11.352  0.00  0.00    +0.000 C 
BRANCH  22  23
ATOM     23  N   UNL     1      42.967   1.719  11.692  0.00  0.00    +0.000 NA
ATOM     24  H   UNL     1      41.948   1.712  11.735  0.00  0.00    +0.000 HD
ATOM     25  H   UNL     1      43.283   1.477  12.630  0.00  0.00    +0.000 HD
ENDBRANCH  22  23
ENDBRANCH  16  22
ENDBRANCH  15  19
ENDBRANCH   1  15
TORSDOF 5
ENDMDL
MODEL 6
REMARK VINA RESULT:    -5.383      3.116      4.952
REMARK INTER + INTRA:          -7.386
REMARK INTER:                  -6.838
REMARK INTRA:                  -0.548
REMARK UNBOUND:                -0.587
REMARK  Name = 
REMARK  5 active torsions:
REMARK  status: ('A' for Active; 'I' for Inactive)
REMARK    1  A    between atoms: N_1  and  C_2
REMARK    2  A    between atoms: C_2  and  C_3
REMARK    3  A    between atoms: C_6  and  C_7
REMARK    4  A    between atoms: C_7  and  N_8
REMARK    5  A    between atoms: C_13  and  C_14
REMARK                            x       y       z     vdW  Elec       q    Type
REMARK                         _______ _______ _______ _____ _____    ______ ____
ROOT
ATOM      1  N   UNL     1      47.533   6.335  13.885  0.00  0.00    +0.000 N 
ATOM      2  C   UNL     1      47.617   5.422  14.912  0.00  0.00    +0.000 A 
ATOM      3  C   UNL     1      46.926   4.293  14.539  0.00  0.00    +0.000 A 
ATOM      4  C   UNL     1      46.342   4.550  13.273  0.00  0.00    +0.000 A 
ATOM      5  C   UNL     1      45.515   3.819  12.404  0.00  0.00    +0.000 A 
ATOM      6  C   UNL     1      45.088   4.439  11.229  0.00  0.00    +0.000 A 
ATOM      7  C   UNL     1      45.542   5.732  10.965  0.00  0.00    +0.000 A 
ATOM      8  N   UNL     1      46.368   6.474  11.755  0.00  0.00    +0.000 NA
ATOM      9  C   UNL     1      46.722   5.836  12.891  0.00  0.00    +0.000 A 
ENDROOT
BRANCH   6  10
ATOM     10  C   UNL     1      44.167   3.799  10.260  0.00  0.00    +0.000 C 
ATOM     11  N   UNL     1      43.929   4.426   9.067  0.00  0.00    +0.000 N 
ATOM     12  O   UNL     1      43.629   2.726  10.504  0.00  0.00    +0.000 OA
ATOM     13  H   UNL     1      44.347   5.293   8.767  0.00  0.00    +0.000 HD
ATOM     14  H   UNL     1      43.317   3.954   8.414  0.00  0.00    +0.000 HD
ENDBRANCH   6  10
BRANCH   1  15
ATOM     15  C   UNL     1      48.231   7.614  13.862  0.00  0.00    +0.000 C 
BRANCH  15  19
ATOM     16  C   UNL     1      50.551  10.194  12.161  0.00  0.00    +0.000 C 
ATOM     17  C   UNL     1      49.466   9.360  11.456  0.00  0.00    +0.000 C 
ATOM     18  C   UNL     1      49.622   7.862  11.721  0.00  0.00    +0.000 C 
ATOM     19  C   UNL     1      49.637   7.522  13.221  0.00  0.00    +0.000 C 
ATOM     20  C   UNL     1      50.665   8.388  13.969  0.00  0.00    +0.000 C 
ATOM     21  C   UNL     1      50.536   9.880  13.667  0.00  0.00    +0.000 C 
BRANCH  16  22
ATOM     22  C   UNL     1      51.919   9.977  11.478  0.00  0.00    +0.000 C 
BRANCH  22  23
ATOM     23  N   UNL     1      51.895  10.248  10.045  0.00  0.00    +0.000 NA
ATOM     24  H   UNL     1      52.186  11.212   9.886  0.00  0.00    +0.000 HD
ATOM     25  H   UNL     1      50.938  10.191   9.700  0.00  0.00    +0.000 HD
ENDBRANCH  22  23
ENDBRANCH  16  22
ENDBRANCH  15  19
ENDBRANCH   1  15
TORSDOF 5
ENDMDL
MODEL 7
REMARK VINA RESULT:    -5.162      3.240      5.057
REMARK INTER + INTRA:          -7.107
REMARK INTER:                  -6.573
REMARK INTRA:                  -0.534
REMARK UNBOUND:                -0.587
REMARK  Name = 
REMARK  5 active torsions:
REMARK  status: ('A' for Active; 'I' for Inactive)
REMARK    1  A    between atoms: N_1  and  C_2
REMARK    2  A    between atoms: C_2  and  C_3
REMARK    3  A    between atoms: C_6  and  C_7
REMARK    4  A    between atoms: C_7  and  N_8
REMARK    5  A    between atoms: C_13  and  C_14
REMARK                            x       y       z     vdW  Elec       q    Type
REMARK                         _______ _______ _______ _____ _____    ______ ____
ROOT
ATOM      1  N   UNL     1      46.024   8.160  12.741  0.00  0.00    +0.000 N 
ATOM      2  C   UNL     1      45.236   9.039  12.033  0.00  0.00    +0.000 A 
ATOM      3  C   UNL     1      44.297   8.311  11.341  0.00  0.00    +0.000 A 
ATOM      4  C   UNL     1      44.563   6.938  11.577  0.00  0.00    +0.000 A 
ATOM      5  C   UNL     1      43.990   5.734  11.136  0.00  0.00    +0.000 A 
ATOM      6  C   UNL     1      44.573   4.538  11.556  0.00  0.00    +0.000 A 
ATOM      7  C   UNL     1      45.665   4.607  12.423  0.00  0.00    +0.000 A 
ATOM      8  N   UNL     1      46.240   5.744  12.906  0.00  0.00    +0.000 NA
ATOM      9  C   UNL     1      45.655   6.869  12.441  0.00  0.00    +0.000 A 
ENDROOT
BRANCH   6  10
ATOM     10  C   UNL     1      44.101   3.204  11.115  0.00  0.00    +0.000 C 
ATOM     11  N   UNL     1      44.931   2.433  10.347  0.00  0.00    +0.000 N 
ATOM     12  O   UNL     1      42.994   2.783  11.430  0.00  0.00    +0.000 OA
ATOM     13  H   UNL     1      45.866   2.683  10.063  0.00  0.00    +0.000 HD
ATOM     14  H   UNL     1      44.592   1.518  10.082  0.00  0.00    +0.000 HD
ENDBRANCH   6  10
BRANCH   1  15
ATOM     15  C   UNL     1      47.063   8.560  13.681  0.00  0.00    +0.000 C 
BRANCH  15  19
ATOM     16  C   UNL     1      50.852   8.174  13.026  0.00  0.00    +0.000 C 
ATOM     17  C   UNL     1      50.214   8.726  14.315  0.00  0.00    +0.000 C 
ATOM     18  C   UNL     1      49.239   9.870  14.037  0.00  0.00    +0.000 C 
ATOM     19  C   UNL     1      48.132   9.480  13.043  0.00  0.00    +0.000 C 
ATOM     20  C   UNL     1      48.732   8.861  11.769  0.00  0.00    +0.000 C 
ATOM     21  C   UNL     1      49.741   7.748  12.050  0.00  0.00    +0.000 C 
BRANCH  16  22
ATOM     22  C   UNL     1      51.852   9.198  12.446  0.00  0.00    +0.000 C 
BRANCH  22  23
ATOM     23  N   UNL     1      52.957   8.576  11.725  0.00  0.00    +0.000 NA
ATOM     24  H   UNL     1      52.710   7.610  11.512  0.00  0.00    +0.000 HD
ATOM     25  H   UNL     1      53.776   8.523  12.329  0.00  0.00    +0.000 HD
ENDBRANCH  22  23
ENDBRANCH  16  22
ENDBRANCH  15  19
ENDBRANCH   1  15
TORSDOF 5
ENDMDL
MODEL 8
REMARK VINA RESULT:    -4.919      3.151      5.108
REMARK INTER + INTRA:          -6.801
REMARK INTER:                  -6.337
REMARK INTRA:                  -0.464
REMARK UNBOUND:                -0.587
REMARK  Name = 
REMARK  5 active torsions:
REMARK  status: ('A' for Active; 'I' for Inactive)
REMARK    1  A    between atoms: N_1  and  C_2
REMARK    2  A    between atoms: C_2  and  C_3
REMARK    3  A    between atoms: C_6  and  C_7
REMARK    4  A    between atoms: C_7  and  N_8
REMARK    5  A    between atoms: C_13  and  C_14
REMARK                            x       y       z     vdW  Elec       q    Type
REMARK                         _______ _______ _______ _____ _____    ______ ____
ROOT
ATOM      1  N   UNL     1      47.761   6.206  13.853  0.00  0.00    +0.000 N 
ATOM      2  C   UNL     1      47.715   5.364  14.941  0.00  0.00    +0.000 A 
ATOM      3  C   UNL     1      46.865   4.325  14.642  0.00  0.00    +0.000 A 
ATOM      4  C   UNL     1      46.320   4.576  13.357  0.00  0.00    +0.000 A 
ATOM      5  C   UNL     1      45.393   3.915  12.535  0.00  0.00    +0.000 A 
ATOM      6  C   UNL     1      45.056   4.509  11.318  0.00  0.00    +0.000 A 
ATOM      7  C   UNL     1      45.693   5.701  10.969  0.00  0.00    +0.000 A 
ATOM      8  N   UNL     1      46.622   6.367  11.711  0.00  0.00    +0.000 NA
ATOM      9  C   UNL     1      46.883   5.764  12.891  0.00  0.00    +0.000 A 
ENDROOT
BRANCH   6  10
ATOM     10  C   UNL     1      44.049   3.945  10.389  0.00  0.00    +0.000 C 
ATOM     11  N   UNL     1      44.027   4.388   9.094  0.00  0.00    +0.000 N 
ATOM     12  O   UNL     1      43.249   3.092  10.756  0.00  0.00    +0.000 OA
ATOM     13  H   UNL     1      44.662   5.062   8.695  0.00  0.00    +0.000 HD
ATOM     14  H   UNL     1      43.346   3.967   8.476  0.00  0.00    +0.000 HD
ENDBRANCH   6  10
BRANCH   1  15
ATOM     15  C   UNL     1      48.638   7.365  13.747  0.00  0.00    +0.000 C 
BRANCH  15  19
ATOM     16  C   UNL     1      50.656  10.453  14.901  0.00  0.00    +0.000 C 
ATOM     17  C   UNL     1      51.252   9.150  14.336  0.00  0.00    +0.000 C 
ATOM     18  C   UNL     1      50.757   7.913  15.085  0.00  0.00    +0.000 C 
ATOM     19  C   UNL     1      49.222   7.806  15.111  0.00  0.00    +0.000 C 
ATOM     20  C   UNL     1      48.591   9.118  15.608  0.00  0.00    +0.000 C 
ATOM     21  C   UNL     1      49.120  10.358  14.888  0.00  0.00    +0.000 C 
BRANCH  16  22
ATOM     22  C   UNL     1      51.264  10.760  16.287  0.00  0.00    +0.000 C 
BRANCH  22  23
ATOM     23  N   UNL     1      52.722  10.798  16.279  0.00  0.00    +0.000 NA
ATOM     24  H   UNL     1      53.070  10.019  15.719  0.00  0.00    +0.000 HD
ATOM     25  H   UNL     1      53.076  10.639  17.221  0.00  0.00    +0.000 HD
ENDBRANCH  22  23
ENDBRANCH  16  22
ENDBRANCH  15  19
ENDBRANCH   1  15
TORSDOF 5
ENDMDL
MODEL 9
REMARK VINA RESULT:    -4.893      3.860      6.093
REMARK INTER + INTRA:          -6.768
REMARK INTER:                  -6.319
REMARK INTRA:                  -0.449
REMARK UNBOUND:                -0.587
REMARK  Name = 
REMARK  5 active torsions:
REMARK  status: ('A' for Active; 'I' for Inactive)
REMARK    1  A    between atoms: N_1  and  C_2
REMARK    2  A    between atoms: C_2  and  C_3
REMARK    3  A    between atoms: C_6  and  C_7
REMARK    4  A    between atoms: C_7  and  N_8
REMARK    5  A    between atoms: C_13  and  C_14
REMARK                            x       y       z     vdW  Elec       q    Type
REMARK                         _______ _______ _______ _____ _____    ______ ____
ROOT
ATOM      1  N   UNL     1      47.978   6.426  13.628  0.00  0.00    +0.000 N 
ATOM      2  C   UNL     1      48.576   7.155  12.624  0.00  0.00    +0.000 A 
ATOM      3  C   UNL     1      47.713   7.198  11.555  0.00  0.00    +0.000 A 
ATOM      4  C   UNL     1      46.580   6.412  11.888  0.00  0.00    +0.000 A 
ATOM      5  C   UNL     1      45.401   6.051  11.217  0.00  0.00    +0.000 A 
ATOM      6  C   UNL     1      44.512   5.195  11.868  0.00  0.00    +0.000 A 
ATOM      7  C   UNL     1      44.826   4.782  13.164  0.00  0.00    +0.000 A 
ATOM      8  N   UNL     1      45.938   5.126  13.873  0.00  0.00    +0.000 NA
ATOM      9  C   UNL     1      46.776   5.929  13.181  0.00  0.00    +0.000 A 
ENDROOT
BRANCH   6  10
ATOM     10  C   UNL     1      43.263   4.693  11.247  0.00  0.00    +0.000 C 
ATOM     11  N   UNL     1      42.086   5.333  11.526  0.00  0.00    +0.000 N 
ATOM     12  O   UNL     1      43.270   3.729  10.491  0.00  0.00    +0.000 OA
ATOM     13  H   UNL     1      41.987   6.149  12.111  0.00  0.00    +0.000 HD
ATOM     14  H   UNL     1      41.255   4.985  11.068  0.00  0.00    +0.000 HD
ENDBRANCH   6  10
BRANCH   1  15
ATOM     15  C   UNL     1      48.538   6.250  14.962  0.00  0.00    +0.000 C 
BRANCH  15  19
ATOM     16  C   UNL     1      50.522   7.029  18.185  0.00  0.00    +0.000 C 
ATOM     17  C   UNL     1      49.020   7.289  17.970  0.00  0.00    +0.000 C 
ATOM     18  C   UNL     1      48.747   8.113  16.713  0.00  0.00    +0.000 C 
ATOM     19  C   UNL     1      49.344   7.480  15.444  0.00  0.00    +0.000 C 
ATOM     20  C   UNL     1      50.832   7.145  15.648  0.00  0.00    +0.000 C 
ATOM     21  C   UNL     1      51.108   6.360  16.929  0.00  0.00    +0.000 C 
BRANCH  16  22
ATOM     22  C   UNL     1      51.234   8.334  18.602  0.00  0.00    +0.000 C 
BRANCH  22  23
ATOM     23  N   UNL     1      50.623   8.977  19.760  0.00  0.00    +0.000 NA
ATOM     24  H   UNL     1      49.714   9.352  19.489  0.00  0.00    +0.000 HD
ATOM     25  H   UNL     1      51.179   9.783  20.041  0.00  0.00    +0.000 HD
ENDBRANCH  22  23
ENDBRANCH  16  22
ENDBRANCH  15  19
ENDBRANCH   1  15
TORSDOF 5
ENDMDL
