MODEL 1
REMARK VINA RESULT:    -7.985      0.000      0.000
REMARK INTER + INTRA:         -11.882
REMARK INTER:                 -10.786
REMARK INTRA:                  -1.095
REMARK UNBOUND:                -1.095
REMARK  Name = 
REMARK  6 active torsions:
REMARK  status: ('A' for Active; 'I' for Inactive)
REMARK    1  A    between atoms: C_2  and  C_25
REMARK    2  A    between atoms: N_3  and  C_4
REMARK    3  A    between atoms: C_4  and  C_5
REMARK    4  A    between atoms: C_8  and  C_9
REMARK    5  A    between atoms: C_9  and  N_10
REMARK    6  A    between atoms: C_11  and  C_13
REMARK                            x       y       z     vdW  Elec       q    Type
REMARK                         _______ _______ _______ _____ _____    ______ ____
ROOT
ATOM      1  C   UNL     1      45.141   5.565  10.700  0.00  0.00    +0.000 A 
ATOM      2  C   UNL     1      44.515   5.912  11.905  0.00  0.00    +0.000 A 
ATOM      3  C   UNL     1      45.147   6.765  12.820  0.00  0.00    +0.000 A 
ATOM      4  C   UNL     1      46.407   7.307  12.540  0.00  0.00    +0.000 A 
ATOM      5  C   UNL     1      47.026   6.972  11.328  0.00  0.00    +0.000 A 
ATOM      6  C   UNL     1      46.395   6.121  10.412  0.00  0.00    +0.000 A 
ENDROOT
BRANCH   1   7
ATOM      7  C   UNL     1      44.495   4.589   9.751  0.00  0.00    +0.000 C 
BRANCH   7  10
ATOM      8  O   UNL     1      45.067   1.933   9.239  0.00  0.00    +0.000 OA
ATOM      9  C   UNL     1      45.596   2.785   8.529  0.00  0.00    +0.000 C 
ATOM     10  N   UNL     1      45.390   4.134   8.716  0.00  0.00    +0.000 N 
ATOM     11  H   UNL     1      45.713   4.795   8.026  0.00  0.00    +0.000 HD
BRANCH   9  12
ATOM     12  C   UNL     1      46.455   2.425   7.432  0.00  0.00    +0.000 A 
ATOM     13  C   UNL     1      47.368   1.408   7.240  0.00  0.00    +0.000 A 
ATOM     14  N   UNL     1      47.950   1.486   5.998  0.00  0.00    +0.000 NA
ATOM     15  C   UNL     1      47.398   2.527   5.423  0.00  0.00    +0.000 A 
ATOM     16  N   UNL     1      46.483   3.121   6.241  0.00  0.00    +0.000 N 
ATOM     17  H   UNL     1      45.918   3.934   6.030  0.00  0.00    +0.000 HD
ENDBRANCH   9  12
ENDBRANCH   7  10
ENDBRANCH   1   7
BRANCH   4  18
ATOM     18  C   UNL     1      47.104   8.204  13.532  0.00  0.00    +0.000 C 
BRANCH  18  19
ATOM     19  N   UNL     1      47.527   7.477  14.704  0.00  0.00    +0.000 N 
ATOM     20  C   UNL     1      48.756   6.865  14.751  0.00  0.00    +0.000 C 
ATOM     21  O   UNL     1      49.555   6.945  13.822  0.00  0.00    +0.000 OA
ATOM     22  H   UNL     1      46.809   7.210  15.371  0.00  0.00    +0.000 HD
BRANCH  20  23
ATOM     23  C   UNL     1      49.100   6.161  15.995  0.00  0.00    +0.000 A 
ATOM     24  C   UNL     1      50.188   6.589  16.746  0.00  0.00    +0.000 A 
ATOM     25  S   UNL     1      50.417   5.706  18.186  0.00  0.00    +0.000 S 
ATOM     26  C   UNL     1      49.105   4.683  17.831  0.00  0.00    +0.000 A 
ATOM     27  N   UNL     1      48.767   3.665  18.667  0.00  0.00    +0.000 NA
ATOM     28  C   UNL     1      47.779   2.943  18.257  0.00  0.00    +0.000 A 
ATOM     29  N   UNL     1      47.094   3.152  17.087  0.00  0.00    +0.000 N 
ATOM     30  C   UNL     1      47.377   4.187  16.229  0.00  0.00    +0.000 A 
ATOM     31  O   UNL     1      46.714   4.375  15.214  0.00  0.00    +0.000 OA
ATOM     32  C   UNL     1      48.491   5.022  16.638  0.00  0.00    +0.000 A 
ATOM     33  H   UNL     1      46.325   2.554  16.826  0.00  0.00    +0.000 HD
ENDBRANCH  20  23
ENDBRANCH  18  19
ENDBRANCH   4  18
TORSDOF 6
ENDMDL
MODEL 2
REMARK VINA RESULT:    -7.637      2.275      3.850
REMARK INTER + INTRA:         -11.412
REMARK INTER:                 -10.423
REMARK INTRA:                  -0.989
REMARK UNBOUND:                -1.095
REMARK  Name = 
REMARK  6 active torsions:
REMARK  status: ('A' for Active; 'I' for Inactive)
REMARK    1  A    between atoms: C_2  and  C_25
REMARK    2  A    between atoms: N_3  and  C_4
REMARK    3  A    between atoms: C_4  and  C_5
REMARK    4  A    between atoms: C_8  and  C_9
REMARK    5  A    between atoms: C_9  and  N_10
REMARK    6  A    between atoms: C_11  and  C_13
REMARK                            x       y       z     vdW  Elec       q    Type
REMARK                         _______ _______ _______ _____ _____    ______ ____
ROOT
ATOM      1  C   UNL     1      44.724   4.317  10.940  0.00  0.00    +0.000 A 
ATOM      2  C   UNL     1      45.134   3.184  11.656  0.00  0.00    +0.000 A 
ATOM      3  C   UNL     1      45.800   3.315  12.883  0.00  0.00    +0.000 A 
ATOM      4  C   UNL     1      46.049   4.580  13.429  0.00  0.00    +0.000 A 
ATOM      5  C   UNL     1      45.626   5.712  12.720  0.00  0.00    +0.000 A 
ATOM      6  C   UNL     1      44.960   5.582  11.495  0.00  0.00    +0.000 A 
ENDROOT
BRANCH   1   7
ATOM      7  C   UNL     1      44.076   4.177   9.587  0.00  0.00    +0.000 C 
BRANCH   7  10
ATOM      8  O   UNL     1      46.254   5.139   8.181  0.00  0.00    +0.000 OA
ATOM      9  C   UNL     1      45.940   3.961   8.025  0.00  0.00    +0.000 C 
ATOM     10  N   UNL     1      44.861   3.393   8.665  0.00  0.00    +0.000 N 
ATOM     11  H   UNL     1      44.723   2.395   8.636  0.00  0.00    +0.000 HD
BRANCH   9  12
ATOM     12  C   UNL     1      46.700   3.084   7.174  0.00  0.00    +0.000 A 
ATOM     13  C   UNL     1      47.205   1.810   7.338  0.00  0.00    +0.000 A 
ATOM     14  N   UNL     1      47.874   1.389   6.215  0.00  0.00    +0.000 NA
ATOM     15  C   UNL     1      47.777   2.381   5.362  0.00  0.00    +0.000 A 
ATOM     16  N   UNL     1      47.069   3.421   5.888  0.00  0.00    +0.000 N 
ATOM     17  H   UNL     1      46.849   4.297   5.430  0.00  0.00    +0.000 HD
ENDBRANCH   9  12
ENDBRANCH   7  10
ENDBRANCH   1   7
BRANCH   4  18
ATOM     18  C   UNL     1      46.790   4.729  14.735  0.00  0.00    +0.000 C 
BRANCH  18  19
ATOM     19  N   UNL     1      47.532   5.965  14.791  0.00  0.00    +0.000 N 
ATOM     20  C   UNL     1      48.626   6.095  15.611  0.00  0.00    +0.000 C 
ATOM     21  O   UNL     1      49.039   5.162  16.293  0.00  0.00    +0.000 OA
ATOM     22  H   UNL     1      47.079   6.797  14.423  0.00  0.00    +0.000 HD
BRANCH  20  23
ATOM     23  C   UNL     1      49.323   7.390  15.587  0.00  0.00    +0.000 A 
ATOM     24  C   UNL     1      49.537   8.074  16.776  0.00  0.00    +0.000 A 
ATOM     25  S   UNL     1      50.408   9.527  16.585  0.00  0.00    +0.000 S 
ATOM     26  C   UNL     1      50.482   9.323  14.897  0.00  0.00    +0.000 A 
ATOM     27  N   UNL     1      51.086  10.251  14.107  0.00  0.00    +0.000 NA
ATOM     28  C   UNL     1      51.034   9.990  12.844  0.00  0.00    +0.000 A 
ATOM     29  N   UNL     1      50.437   8.882  12.300  0.00  0.00    +0.000 N 
ATOM     30  C   UNL     1      49.846   7.902  13.060  0.00  0.00    +0.000 A 
ATOM     31  O   UNL     1      49.363   6.898  12.546  0.00  0.00    +0.000 OA
ATOM     32  C   UNL     1      49.864   8.153  14.489  0.00  0.00    +0.000 A 
ATOM     33  H   UNL     1      50.437   8.734  11.302  0.00  0.00    +0.000 HD
ENDBRANCH  20  23
ENDBRANCH  18  19
ENDBRANCH   4  18
TORSDOF 6
ENDMDL
MODEL 3
REMARK VINA RESULT:    -7.502      2.271      2.682
REMARK INTER + INTRA:         -11.228
REMARK INTER:                 -10.325
REMARK INTRA:                  -0.904
REMARK UNBOUND:                -1.095
REMARK  Name = 
REMARK  6 active torsions:
REMARK  status: ('A' for Active; 'I' for Inactive)
REMARK    1  A    between atoms: C_2  and  C_25
REMARK    2  A    between atoms: N_3  and  C_4
REMARK    3  A    between atoms: C_4  and  C_5
REMARK    4  A    between atoms: C_8  and  C_9
REMARK    5  A    between atoms: C_9  and  N_10
REMARK    6  A    between atoms: C_11  and  C_13
REMARK                            x       y       z     vdW  Elec       q    Type
REMARK                         _______ _______ _______ _____ _____    ______ ____
ROOT
ATOM      1  C   UNL     1      45.311   5.248  11.250  0.00  0.00    +0.000 A 
ATOM      2  C   UNL     1      45.628   6.591  11.001  0.00  0.00    +0.000 A 
ATOM      3  C   UNL     1      46.495   7.291  11.850  0.00  0.00    +0.000 A 
ATOM      4  C   UNL     1      47.082   6.657  12.953  0.00  0.00    +0.000 A 
ATOM      5  C   UNL     1      46.777   5.311  13.193  0.00  0.00    +0.000 A 
ATOM      6  C   UNL     1      45.912   4.611  12.344  0.00  0.00    +0.000 A 
ENDROOT
BRANCH   1   7
ATOM      7  C   UNL     1      44.321   4.519  10.380  0.00  0.00    +0.000 C 
BRANCH   7  10
ATOM      8  O   UNL     1      45.790   4.788   8.053  0.00  0.00    +0.000 OA
ATOM      9  C   UNL     1      45.639   3.659   8.514  0.00  0.00    +0.000 C 
ATOM     10  N   UNL     1      44.909   3.418   9.657  0.00  0.00    +0.000 N 
ATOM     11  H   UNL     1      44.934   2.508  10.091  0.00  0.00    +0.000 HD
BRANCH   9  12
ATOM     12  C   UNL     1      46.241   2.506   7.897  0.00  0.00    +0.000 A 
ATOM     13  C   UNL     1      47.099   2.345   6.828  0.00  0.00    +0.000 A 
ATOM     14  N   UNL     1      47.398   1.021   6.621  0.00  0.00    +0.000 NA
ATOM     15  C   UNL     1      46.746   0.369   7.554  0.00  0.00    +0.000 A 
ATOM     16  N   UNL     1      46.043   1.220   8.356  0.00  0.00    +0.000 N 
ATOM     17  H   UNL     1      45.467   0.968   9.149  0.00  0.00    +0.000 HD
ENDBRANCH   9  12
ENDBRANCH   7  10
ENDBRANCH   1   7
BRANCH   4  18
ATOM     18  C   UNL     1      47.995   7.413  13.887  0.00  0.00    +0.000 C 
BRANCH  18  19
ATOM     19  N   UNL     1      47.907   6.916  15.238  0.00  0.00    +0.000 N 
ATOM     20  C   UNL     1      49.029   6.504  15.914  0.00  0.00    +0.000 C 
ATOM     21  O   UNL     1      50.148   6.578  15.415  0.00  0.00    +0.000 OA
ATOM     22  H   UNL     1      46.989   6.636  15.573  0.00  0.00    +0.000 HD
BRANCH  20  23
ATOM     23  C   UNL     1      48.837   6.027  17.292  0.00  0.00    +0.000 A 
ATOM     24  C   UNL     1      49.122   4.704  17.605  0.00  0.00    +0.000 A 
ATOM     25  S   UNL     1      48.903   4.327  19.253  0.00  0.00    +0.000 S 
ATOM     26  C   UNL     1      48.365   5.904  19.598  0.00  0.00    +0.000 A 
ATOM     27  N   UNL     1      47.983   6.252  20.856  0.00  0.00    +0.000 NA
ATOM     28  C   UNL     1      47.559   7.466  20.968  0.00  0.00    +0.000 A 
ATOM     29  N   UNL     1      47.489   8.365  19.936  0.00  0.00    +0.000 N 
ATOM     30  C   UNL     1      47.896   8.070  18.656  0.00  0.00    +0.000 A 
ATOM     31  O   UNL     1      47.866   8.913  17.766  0.00  0.00    +0.000 OA
ATOM     32  C   UNL     1      48.369   6.711  18.473  0.00  0.00    +0.000 A 
ATOM     33  H   UNL     1      47.154   9.304  20.091  0.00  0.00    +0.000 HD
ENDBRANCH  20  23
ENDBRANCH  18  19
ENDBRANCH   4  18
TORSDOF 6
ENDMDL
MODEL 4
REMARK VINA RESULT:    -7.389      1.900      2.262
REMARK INTER + INTRA:         -11.076
REMARK INTER:                 -10.221
REMARK INTRA:                  -0.855
REMARK UNBOUND:                -1.095
REMARK  Name = 
REMARK  6 active torsions:
REMARK  status: ('A' for Active; 'I' for Inactive)
REMARK    1  A    between atoms: C_2  and  C_25
REMARK    2  A    between atoms: N_3  and  C_4
REMARK    3  A    between atoms: C_4  and  C_5
REMARK    4  A    between atoms: C_8  and  C_9
REMARK    5  A    between atoms: C_9  and  N_10
REMARK    6  A    between atoms: C_11  and  C_13
REMARK                            x       y       z     vdW  Elec       q    Type
REMARK                         _______ _______ _______ _____ _____    ______ ____
ROOT
ATOM      1  C   UNL     1      44.590   4.784  11.430  0.00  0.00    +0.000 A 
ATOM      2  C   UNL     1      43.842   5.951  11.226  0.00  0.00    +0.000 A 
ATOM      3  C   UNL     1      44.312   7.191  11.679  0.00  0.00    +0.000 A 
ATOM      4  C   UNL     1      45.551   7.293  12.326  0.00  0.00    +0.000 A 
ATOM      5  C   UNL     1      46.305   6.128  12.516  0.00  0.00    +0.000 A 
ATOM      6  C   UNL     1      45.836   4.889  12.062  0.00  0.00    +0.000 A 
ENDROOT
BRANCH   1   7
ATOM      7  C   UNL     1      44.049   3.441  11.010  0.00  0.00    +0.000 C 
BRANCH   7  10
ATOM      8  O   UNL     1      44.473   4.011   8.338  0.00  0.00    +0.000 OA
ATOM      9  C   UNL     1      45.107   3.086   8.839  0.00  0.00    +0.000 C 
ATOM     10  N   UNL     1      44.954   2.712  10.155  0.00  0.00    +0.000 N 
ATOM     11  H   UNL     1      45.596   2.056  10.574  0.00  0.00    +0.000 HD
BRANCH   9  12
ATOM     12  C   UNL     1      46.078   2.340   8.082  0.00  0.00    +0.000 A 
ATOM     13  C   UNL     1      46.368   0.994   7.980  0.00  0.00    +0.000 A 
ATOM     14  N   UNL     1      47.405   0.771   7.107  0.00  0.00    +0.000 NA
ATOM     15  C   UNL     1      47.746   1.957   6.665  0.00  0.00    +0.000 A 
ATOM     16  N   UNL     1      46.970   2.935   7.213  0.00  0.00    +0.000 N 
ATOM     17  H   UNL     1      47.028   3.929   7.030  0.00  0.00    +0.000 HD
ENDBRANCH   9  12
ENDBRANCH   7  10
ENDBRANCH   1   7
BRANCH   4  18
ATOM     18  C   UNL     1      46.051   8.620  12.840  0.00  0.00    +0.000 C 
BRANCH  18  19
ATOM     19  N   UNL     1      46.681   8.490  14.131  0.00  0.00    +0.000 N 
ATOM     20  C   UNL     1      47.947   8.975  14.351  0.00  0.00    +0.000 C 
ATOM     21  O   UNL     1      48.573   9.570  13.479  0.00  0.00    +0.000 OA
ATOM     22  H   UNL     1      46.284   7.814  14.778  0.00  0.00    +0.000 HD
BRANCH  20  23
ATOM     23  C   UNL     1      48.497   8.806  15.705  0.00  0.00    +0.000 A 
ATOM     24  C   UNL     1      48.767   9.927  16.479  0.00  0.00    +0.000 A 
ATOM     25  S   UNL     1      49.344   9.559  18.040  0.00  0.00    +0.000 S 
ATOM     26  C   UNL     1      49.306   7.889  17.720  0.00  0.00    +0.000 A 
ATOM     27  N   UNL     1      49.710   6.989  18.656  0.00  0.00    +0.000 NA
ATOM     28  C   UNL     1      49.668   5.759  18.266  0.00  0.00    +0.000 A 
ATOM     29  N   UNL     1      49.253   5.348  17.025  0.00  0.00    +0.000 N 
ATOM     30  C   UNL     1      48.804   6.218  16.060  0.00  0.00    +0.000 A 
ATOM     31  O   UNL     1      48.394   5.814  14.977  0.00  0.00    +0.000 OA
ATOM     32  C   UNL     1      48.845   7.616  16.443  0.00  0.00    +0.000 A 
ATOM     33  H   UNL     1      49.238   4.369  16.785  0.00  0.00    +0.000 HD
ENDBRANCH  20  23
ENDBRANCH  18  19
ENDBRANCH   4  18
TORSDOF 6
ENDMDL
MODEL 5
REMARK VINA RESULT:    -7.263      4.680      9.555
REMARK INTER + INTRA:         -10.906
REMARK INTER:                 -10.120
REMARK INTRA:                  -0.786
REMARK UNBOUND:                -1.095
REMARK  Name = 
REMARK  6 active torsions:
REMARK  status: ('A' for Active; 'I' for Inactive)
REMARK    1  A    between atoms: C_2  and  C_25
REMARK    2  A    between atoms: N_3  and  C_4
REMARK    3  A    between atoms: C_4  and  C_5
REMARK    4  A    between atoms: C_8  and  C_9
REMARK    5  A    between atoms: C_9  and  N_10
REMARK    6  A    between atoms: C_11  and  C_13
REMARK                            x       y       z     vdW  Elec       q    Type
REMARK                         _______ _______ _______ _____ _____    ______ ____
ROOT
ATOM      1  C   UNL     1      51.471   2.905  17.741  0.00  0.00    +0.000 A 
ATOM      2  C   UNL     1      50.873   4.131  18.062  0.00  0.00    +0.000 A 
ATOM      3  C   UNL     1      49.511   4.350  17.814  0.00  0.00    +0.000 A 
ATOM      4  C   UNL     1      48.714   3.340  17.261  0.00  0.00    +0.000 A 
ATOM      5  C   UNL     1      49.309   2.109  16.954  0.00  0.00    +0.000 A 
ATOM      6  C   UNL     1      50.669   1.889  17.203  0.00  0.00    +0.000 A 
ENDROOT
BRANCH   1   7
ATOM      7  C   UNL     1      52.950   2.696  17.938  0.00  0.00    +0.000 C 
BRANCH   7  10
ATOM      8  O   UNL     1      54.304   0.638  16.682  0.00  0.00    +0.000 OA
ATOM      9  C   UNL     1      53.958   0.474  17.849  0.00  0.00    +0.000 C 
ATOM     10  N   UNL     1      53.263   1.430  18.555  0.00  0.00    +0.000 N 
ATOM     11  H   UNL     1      53.131   1.329  19.550  0.00  0.00    +0.000 HD
BRANCH   9  12
ATOM     12  C   UNL     1      54.280  -0.730  18.568  0.00  0.00    +0.000 A 
ATOM     13  C   UNL     1      55.468  -1.286  18.999  0.00  0.00    +0.000 A 
ATOM     14  N   UNL     1      55.255  -2.471  19.659  0.00  0.00    +0.000 NA
ATOM     15  C   UNL     1      53.955  -2.644  19.649  0.00  0.00    +0.000 A 
ATOM     16  N   UNL     1      53.322  -1.617  19.015  0.00  0.00    +0.000 N 
ATOM     17  H   UNL     1      52.324  -1.511  18.880  0.00  0.00    +0.000 HD
ENDBRANCH   9  12
ENDBRANCH   7  10
ENDBRANCH   1   7
BRANCH   4  18
ATOM     18  C   UNL     1      47.254   3.578  16.966  0.00  0.00    +0.000 C 
BRANCH  18  19
ATOM     19  N   UNL     1      47.071   4.603  15.967  0.00  0.00    +0.000 N 
ATOM     20  C   UNL     1      47.103   4.298  14.628  0.00  0.00    +0.000 C 
ATOM     21  O   UNL     1      47.248   3.145  14.230  0.00  0.00    +0.000 OA
ATOM     22  H   UNL     1      47.181   5.568  16.264  0.00  0.00    +0.000 HD
BRANCH  20  23
ATOM     23  C   UNL     1      46.892   5.409  13.689  0.00  0.00    +0.000 A 
ATOM     24  C   UNL     1      47.939   6.278  13.409  0.00  0.00    +0.000 A 
ATOM     25  S   UNL     1      47.550   7.474  12.259  0.00  0.00    +0.000 S 
ATOM     26  C   UNL     1      45.950   6.909  12.134  0.00  0.00    +0.000 A 
ATOM     27  N   UNL     1      45.054   7.524  11.316  0.00  0.00    +0.000 NA
ATOM     28  C   UNL     1      43.868   7.017  11.348  0.00  0.00    +0.000 A 
ATOM     29  N   UNL     1      43.497   5.948  12.121  0.00  0.00    +0.000 N 
ATOM     30  C   UNL     1      44.375   5.273  12.936  0.00  0.00    +0.000 A 
ATOM     31  O   UNL     1      44.024   4.289  13.578  0.00  0.00    +0.000 OA
ATOM     32  C   UNL     1      45.722   5.812  12.947  0.00  0.00    +0.000 A 
ATOM     33  H   UNL     1      42.552   5.595  12.095  0.00  0.00    +0.000 HD
ENDBRANCH  20  23
ENDBRANCH  18  19
ENDBRANCH   4  18
TORSDOF 6
ENDMDL
MODEL 6
REMARK VINA RESULT:    -6.854      4.683      9.584
REMARK INTER + INTRA:         -10.353
REMARK INTER:                  -9.318
REMARK INTRA:                  -1.035
REMARK UNBOUND:                -1.095
REMARK  Name = 
REMARK  6 active torsions:
REMARK  status: ('A' for Active; 'I' for Inactive)
REMARK    1  A    between atoms: C_2  and  C_25
REMARK    2  A    between atoms: N_3  and  C_4
REMARK    3  A    between atoms: C_4  and  C_5
REMARK    4  A    between atoms: C_8  and  C_9
REMARK    5  A    between atoms: C_9  and  N_10
REMARK    6  A    between atoms: C_11  and  C_13
REMARK                            x       y       z     vdW  Elec       q    Type
REMARK                         _______ _______ _______ _____ _____    ______ ____
ROOT
ATOM      1  C   UNL     1      51.548   2.852  17.687  0.00  0.00    +0.000 A 
ATOM      2  C   UNL     1      50.989   4.087  18.041  0.00  0.00    +0.000 A 
ATOM      3  C   UNL     1      49.627   4.344  17.830  0.00  0.00    +0.000 A 
ATOM      4  C   UNL     1      48.791   3.362  17.282  0.00  0.00    +0.000 A 
ATOM      5  C   UNL     1      49.348   2.122  16.942  0.00  0.00    +0.000 A 
ATOM      6  C   UNL     1      50.708   1.865  17.153  0.00  0.00    +0.000 A 
ENDROOT
BRANCH   1   7
ATOM      7  C   UNL     1      53.026   2.604  17.843  0.00  0.00    +0.000 C 
BRANCH   7  10
ATOM      8  O   UNL     1      54.258   0.410  16.696  0.00  0.00    +0.000 OA
ATOM      9  C   UNL     1      53.954   0.346  17.885  0.00  0.00    +0.000 C 
ATOM     10  N   UNL     1      53.321   1.378  18.542  0.00  0.00    +0.000 N 
ATOM     11  H   UNL     1      53.225   1.355  19.546  0.00  0.00    +0.000 HD
BRANCH   9  12
ATOM     12  C   UNL     1      54.264  -0.812  18.681  0.00  0.00    +0.000 A 
ATOM     13  C   UNL     1      55.154  -1.042  19.711  0.00  0.00    +0.000 A 
ATOM     14  N   UNL     1      55.077  -2.337  20.158  0.00  0.00    +0.000 NA
ATOM     15  C   UNL     1      54.146  -2.901  19.428  0.00  0.00    +0.000 A 
ATOM     16  N   UNL     1      53.617  -2.021  18.531  0.00  0.00    +0.000 N 
ATOM     17  H   UNL     1      52.882  -2.207  17.860  0.00  0.00    +0.000 HD
ENDBRANCH   9  12
ENDBRANCH   7  10
ENDBRANCH   1   7
BRANCH   4  18
ATOM     18  C   UNL     1      47.331   3.640  17.028  0.00  0.00    +0.000 C 
BRANCH  18  19
ATOM     19  N   UNL     1      47.148   4.634  15.998  0.00  0.00    +0.000 N 
ATOM     20  C   UNL     1      47.194   4.291  14.669  0.00  0.00    +0.000 C 
ATOM     21  O   UNL     1      47.352   3.129  14.306  0.00  0.00    +0.000 OA
ATOM     22  H   UNL     1      47.248   5.609  16.268  0.00  0.00    +0.000 HD
BRANCH  20  23
ATOM     23  C   UNL     1      46.982   5.373  13.696  0.00  0.00    +0.000 A 
ATOM     24  C   UNL     1      45.918   5.296  12.808  0.00  0.00    +0.000 A 
ATOM     25  S   UNL     1      45.775   6.654  11.788  0.00  0.00    +0.000 S 
ATOM     26  C   UNL     1      47.165   7.370  12.458  0.00  0.00    +0.000 A 
ATOM     27  N   UNL     1      47.623   8.568  12.003  0.00  0.00    +0.000 NA
ATOM     28  C   UNL     1      48.707   8.975  12.572  0.00  0.00    +0.000 A 
ATOM     29  N   UNL     1      49.373   8.295  13.558  0.00  0.00    +0.000 N 
ATOM     30  C   UNL     1      48.930   7.100  14.074  0.00  0.00    +0.000 A 
ATOM     31  O   UNL     1      49.523   6.541  14.990  0.00  0.00    +0.000 OA
ATOM     32  C   UNL     1      47.720   6.590  13.458  0.00  0.00    +0.000 A 
ATOM     33  H   UNL     1      50.215   8.672  13.967  0.00  0.00    +0.000 HD
ENDBRANCH  20  23
ENDBRANCH  18  19
ENDBRANCH   4  18
TORSDOF 6
ENDMDL
MODEL 7
REMARK VINA RESULT:    -6.727      3.889      8.345
REMARK INTER + INTRA:         -10.182
REMARK INTER:                  -9.347
REMARK INTRA:                  -0.835
REMARK UNBOUND:                -1.095
REMARK  Name = 
REMARK  6 active torsions:
REMARK  status: ('A' for Active; 'I' for Inactive)
REMARK    1  A    between atoms: C_2  and  C_25
REMARK    2  A    between atoms: N_3  and  C_4
REMARK    3  A    between atoms: C_4  and  C_5
REMARK    4  A    between atoms: C_8  and  C_9
REMARK    5  A    between atoms: C_9  and  N_10
REMARK    6  A    between atoms: C_11  and  C_13
REMARK                            x       y       z     vdW  Elec       q    Type
REMARK                         _______ _______ _______ _____ _____    ______ ____
ROOT
ATOM      1  C   UNL     1      50.112   4.465  17.709  0.00  0.00    +0.000 A 
ATOM      2  C   UNL     1      48.783   4.499  17.265  0.00  0.00    +0.000 A 
ATOM      3  C   UNL     1      48.341   5.514  16.404  0.00  0.00    +0.000 A 
ATOM      4  C   UNL     1      49.225   6.502  15.951  0.00  0.00    +0.000 A 
ATOM      5  C   UNL     1      50.557   6.458  16.384  0.00  0.00    +0.000 A 
ATOM      6  C   UNL     1      50.999   5.444  17.242  0.00  0.00    +0.000 A 
ENDROOT
BRANCH   1   7
ATOM      7  C   UNL     1      50.567   3.418  18.693  0.00  0.00    +0.000 C 
BRANCH   7  10
ATOM      8  O   UNL     1      50.935   1.063  17.293  0.00  0.00    +0.000 OA
ATOM      9  C   UNL     1      51.933   1.686  17.647  0.00  0.00    +0.000 C 
ATOM     10  N   UNL     1      51.855   2.859  18.365  0.00  0.00    +0.000 N 
ATOM     11  H   UNL     1      52.680   3.422  18.505  0.00  0.00    +0.000 HD
BRANCH   9  12
ATOM     12  C   UNL     1      53.259   1.239  17.312  0.00  0.00    +0.000 A 
ATOM     13  C   UNL     1      54.496   1.852  17.330  0.00  0.00    +0.000 A 
ATOM     14  N   UNL     1      55.484   0.994  16.914  0.00  0.00    +0.000 NA
ATOM     15  C   UNL     1      54.874  -0.137  16.653  0.00  0.00    +0.000 A 
ATOM     16  N   UNL     1      53.534  -0.045  16.888  0.00  0.00    +0.000 N 
ATOM     17  H   UNL     1      52.846  -0.778  16.771  0.00  0.00    +0.000 HD
ENDBRANCH   9  12
ENDBRANCH   7  10
ENDBRANCH   1   7
BRANCH   4  18
ATOM     18  C   UNL     1      48.750   7.612  15.047  0.00  0.00    +0.000 C 
BRANCH  18  19
ATOM     19  N   UNL     1      47.520   7.267  14.378  0.00  0.00    +0.000 N 
ATOM     20  C   UNL     1      47.529   6.523  13.223  0.00  0.00    +0.000 C 
ATOM     21  O   UNL     1      48.571   6.092  12.739  0.00  0.00    +0.000 OA
ATOM     22  H   UNL     1      46.690   7.797  14.626  0.00  0.00    +0.000 HD
BRANCH  20  23
ATOM     23  C   UNL     1      46.222   6.212  12.624  0.00  0.00    +0.000 A 
ATOM     24  C   UNL     1      45.456   7.236  12.082  0.00  0.00    +0.000 A 
ATOM     25  S   UNL     1      43.999   6.703  11.376  0.00  0.00    +0.000 S 
ATOM     26  C   UNL     1      44.312   5.090  11.819  0.00  0.00    +0.000 A 
ATOM     27  N   UNL     1      43.424   4.102  11.530  0.00  0.00    +0.000 NA
ATOM     28  C   UNL     1      43.768   2.934  11.958  0.00  0.00    +0.000 A 
ATOM     29  N   UNL     1      44.923   2.665  12.645  0.00  0.00    +0.000 N 
ATOM     30  C   UNL     1      45.866   3.624  12.930  0.00  0.00    +0.000 A 
ATOM     31  O   UNL     1      46.912   3.341  13.504  0.00  0.00    +0.000 OA
ATOM     32  C   UNL     1      45.520   4.959  12.482  0.00  0.00    +0.000 A 
ATOM     33  H   UNL     1      45.137   1.726  12.948  0.00  0.00    +0.000 HD
ENDBRANCH  20  23
ENDBRANCH  18  19
ENDBRANCH   4  18
TORSDOF 6
ENDMDL
MODEL 8
REMARK VINA RESULT:    -6.561      3.456      4.281
REMARK INTER + INTRA:          -9.957
REMARK INTER:                  -8.942
REMARK INTRA:                  -1.016
REMARK UNBOUND:                -1.095
REMARK  Name = 
REMARK  6 active torsions:
REMARK  status: ('A' for Active; 'I' for Inactive)
REMARK    1  A    between atoms: C_2  and  C_25
REMARK    2  A    between atoms: N_3  and  C_4
REMARK    3  A    between atoms: C_4  and  C_5
REMARK    4  A    between atoms: C_8  and  C_9
REMARK    5  A    between atoms: C_9  and  N_10
REMARK    6  A    between atoms: C_11  and  C_13
REMARK                            x       y       z     vdW  Elec       q    Type
REMARK                         _______ _______ _______ _____ _____    ______ ____
ROOT
ATOM      1  C   UNL     1      44.693   5.541  10.987  0.00  0.00    +0.000 A 
ATOM      2  C   UNL     1      45.774   5.372  11.863  0.00  0.00    +0.000 A 
ATOM      3  C   UNL     1      46.259   6.448  12.618  0.00  0.00    +0.000 A 
ATOM      4  C   UNL     1      45.660   7.712  12.529  0.00  0.00    +0.000 A 
ATOM      5  C   UNL     1      44.570   7.877  11.664  0.00  0.00    +0.000 A 
ATOM      6  C   UNL     1      44.084   6.801  10.911  0.00  0.00    +0.000 A 
ENDROOT
BRANCH   1   7
ATOM      7  C   UNL     1      44.221   4.403  10.120  0.00  0.00    +0.000 C 
BRANCH   7  10
ATOM      8  O   UNL     1      44.452   1.757   9.352  0.00  0.00    +0.000 OA
ATOM      9  C   UNL     1      45.269   2.561   8.908  0.00  0.00    +0.000 C 
ATOM     10  N   UNL     1      45.250   3.896   9.246  0.00  0.00    +0.000 N 
ATOM     11  H   UNL     1      45.832   4.552   8.749  0.00  0.00    +0.000 HD
BRANCH   9  12
ATOM     12  C   UNL     1      46.293   2.161   7.981  0.00  0.00    +0.000 A 
ATOM     13  C   UNL     1      46.791   0.933   7.593  0.00  0.00    +0.000 A 
ATOM     14  N   UNL     1      47.787   1.070   6.657  0.00  0.00    +0.000 NA
ATOM     15  C   UNL     1      47.899   2.362   6.458  0.00  0.00    +0.000 A 
ATOM     16  N   UNL     1      47.013   3.061   7.223  0.00  0.00    +0.000 N 
ATOM     17  H   UNL     1      46.895   4.067   7.247  0.00  0.00    +0.000 HD
ENDBRANCH   9  12
ENDBRANCH   7  10
ENDBRANCH   1   7
BRANCH   4  18
ATOM     18  C   UNL     1      46.195   8.881  13.318  0.00  0.00    +0.000 C 
BRANCH  18  19
ATOM     19  N   UNL     1      47.611   9.060  13.114  0.00  0.00    +0.000 N 
ATOM     20  C   UNL     1      48.499   8.914  14.152  0.00  0.00    +0.000 C 
ATOM     21  O   UNL     1      48.131   8.588  15.277  0.00  0.00    +0.000 OA
ATOM     22  H   UNL     1      47.903   9.546  12.270  0.00  0.00    +0.000 HD
BRANCH  20  23
ATOM     23  C   UNL     1      49.923   9.104  13.840  0.00  0.00    +0.000 A 
ATOM     24  C   UNL     1      50.700   9.917  14.654  0.00  0.00    +0.000 A 
ATOM     25  S   UNL     1      52.340   9.986  14.191  0.00  0.00    +0.000 S 
ATOM     26  C   UNL     1      52.059   8.976  12.851  0.00  0.00    +0.000 A 
ATOM     27  N   UNL     1      53.068   8.650  11.999  0.00  0.00    +0.000 NA
ATOM     28  C   UNL     1      52.707   7.911  11.004  0.00  0.00    +0.000 A 
ATOM     29  N   UNL     1      51.430   7.464  10.788  0.00  0.00    +0.000 N 
ATOM     30  C   UNL     1      50.386   7.738  11.640  0.00  0.00    +0.000 A 
ATOM     31  O   UNL     1      49.265   7.282  11.444  0.00  0.00    +0.000 OA
ATOM     32  C   UNL     1      50.736   8.579  12.769  0.00  0.00    +0.000 A 
ATOM     33  H   UNL     1      51.214   6.882   9.992  0.00  0.00    +0.000 HD
ENDBRANCH  20  23
ENDBRANCH  18  19
ENDBRANCH   4  18
TORSDOF 6
ENDMDL
MODEL 9
REMARK VINA RESULT:    -6.320      1.855      2.604
REMARK INTER + INTRA:          -9.633
REMARK INTER:                  -8.955
REMARK INTRA:                  -0.678
REMARK UNBOUND:                -1.095
REMARK  Name = 
REMARK  6 active torsions:
REMARK  status: ('A' for Active; 'I' for Inactive)
REMARK    1  A    between atoms: C_2  and  C_25
REMARK    2  A    between atoms: N_3  and  C_4
REMARK    3  A    between atoms: C_4  and  C_5
REMARK    4  A    between atoms: C_8  and  C_9
REMARK    5  A    between atoms: C_9  and  N_10
REMARK    6  A    between atoms: C_11  and  C_13
REMARK                            x       y       z     vdW  Elec       q    Type
REMARK                         _______ _______ _______ _____ _____    ______ ____
ROOT
ATOM      1  C   UNL     1      45.371   5.955  11.241  0.00  0.00    +0.000 A 
ATOM      2  C   UNL     1      45.138   7.330  11.384  0.00  0.00    +0.000 A 
ATOM      3  C   UNL     1      45.889   8.092  12.290  0.00  0.00    +0.000 A 
ATOM      4  C   UNL     1      46.902   7.500  13.055  0.00  0.00    +0.000 A 
ATOM      5  C   UNL     1      47.144   6.129  12.900  0.00  0.00    +0.000 A 
ATOM      6  C   UNL     1      46.395   5.367  11.995  0.00  0.00    +0.000 A 
ENDROOT
BRANCH   1   7
ATOM      7  C   UNL     1      44.513   5.123  10.323  0.00  0.00    +0.000 C 
BRANCH   7  10
ATOM      8  O   UNL     1      44.523   2.398   9.855  0.00  0.00    +0.000 OA
ATOM      9  C   UNL     1      45.193   3.113   9.114  0.00  0.00    +0.000 C 
ATOM     10  N   UNL     1      45.269   4.479   9.277  0.00  0.00    +0.000 N 
ATOM     11  H   UNL     1      45.699   5.050   8.566  0.00  0.00    +0.000 HD
BRANCH   9  12
ATOM     12  C   UNL     1      45.931   2.569   8.005  0.00  0.00    +0.000 A 
ATOM     13  C   UNL     1      46.582   1.369   7.799  0.00  0.00    +0.000 A 
ATOM     14  N   UNL     1      47.149   1.316   6.549  0.00  0.00    +0.000 NA
ATOM     15  C   UNL     1      46.846   2.460   5.983  0.00  0.00    +0.000 A 
ATOM     16  N   UNL     1      46.103   3.245   6.814  0.00  0.00    +0.000 N 
ATOM     17  H   UNL     1      45.739   4.167   6.612  0.00  0.00    +0.000 HD
ENDBRANCH   9  12
ENDBRANCH   7  10
ENDBRANCH   1   7
BRANCH   4  18
ATOM     18  C   UNL     1      47.695   8.309  14.051  0.00  0.00    +0.000 C 
BRANCH  18  19
ATOM     19  N   UNL     1      47.921   7.578  15.274  0.00  0.00    +0.000 N 
ATOM     20  C   UNL     1      49.124   6.960  15.516  0.00  0.00    +0.000 C 
ATOM     21  O   UNL     1      50.061   7.038  14.728  0.00  0.00    +0.000 OA
ATOM     22  H   UNL     1      47.103   7.313  15.816  0.00  0.00    +0.000 HD
BRANCH  20  23
ATOM     23  C   UNL     1      49.260   6.252  16.798  0.00  0.00    +0.000 A 
ATOM     24  C   UNL     1      48.642   5.020  16.969  0.00  0.00    +0.000 A 
ATOM     25  S   UNL     1      48.945   4.305  18.486  0.00  0.00    +0.000 S 
ATOM     26  C   UNL     1      49.867   5.642  18.992  0.00  0.00    +0.000 A 
ATOM     27  N   UNL     1      50.413   5.683  20.237  0.00  0.00    +0.000 NA
ATOM     28  C   UNL     1      51.053   6.772  20.503  0.00  0.00    +0.000 A 
ATOM     29  N   UNL     1      51.201   7.821  19.634  0.00  0.00    +0.000 N 
ATOM     30  C   UNL     1      50.698   7.811  18.355  0.00  0.00    +0.000 A 
ATOM     31  O   UNL     1      50.889   8.746  17.585  0.00  0.00    +0.000 OA
ATOM     32  C   UNL     1      49.956   6.613  18.009  0.00  0.00    +0.000 A 
ATOM     33  H   UNL     1      51.721   8.644  19.901  0.00  0.00    +0.000 HD
ENDBRANCH  20  23
ENDBRANCH  18  19
ENDBRANCH   4  18
TORSDOF 6
ENDMDL
