MODEL 1
REMARK VINA RESULT:    -8.364      0.000      0.000
REMARK INTER + INTRA:         -13.253
REMARK INTER:                 -12.520
REMARK INTRA:                  -0.733
REMARK UNBOUND:                -0.733
REMARK  Name = 
REMARK  9 active torsions:
REMARK  status: ('A' for Active; 'I' for Inactive)
REMARK    1  A    between atoms: N_1  and  C_2
REMARK    2  A    between atoms: C_2  and  N_3
REMARK    3  A    between atoms: C_2  and  C_19
REMARK    4  A    between atoms: N_3  and  C_4
REMARK    5  A    between atoms: C_4  and  C_5
REMARK    6  A    between atoms: C_8  and  C_9
REMARK    7  A    between atoms: C_9  and  N_10
REMARK    8  A    between atoms: N_10  and  C_11
REMARK    9  A    between atoms: C_11  and  C_12
REMARK                            x       y       z     vdW  Elec       q    Type
REMARK                         _______ _______ _______ _____ _____    ______ ____
ROOT
ATOM      1  N   UNL     1      47.206   5.132  16.046  0.00  0.00    +0.000 NA
ATOM      2  H   UNL     1      47.667   5.870  16.589  0.00  0.00    +0.000 HD
ENDROOT
BRANCH   1   3
ATOM      3  C   UNL     1      47.731   3.885  16.576  0.00  0.00    +0.000 C 
BRANCH   3   4
ATOM      4  C   UNL     1      48.934   4.203  17.450  0.00  0.00    +0.000 A 
ATOM      5  C   UNL     1      49.063   5.317  18.269  0.00  0.00    +0.000 A 
ATOM      6  S   UNL     1      50.566   5.422  19.071  0.00  0.00    +0.000 S 
ATOM      7  C   UNL     1      51.091   3.958  18.382  0.00  0.00    +0.000 A 
ATOM      8  N   UNL     1      52.332   3.473  18.644  0.00  0.00    +0.000 NA
ATOM      9  C   UNL     1      52.591   2.353  18.059  0.00  0.00    +0.000 A 
ATOM     10  N   UNL     1      51.718   1.661  17.261  0.00  0.00    +0.000 N 
ATOM     11  C   UNL     1      50.452   2.113  16.969  0.00  0.00    +0.000 A 
ATOM     12  O   UNL     1      49.680   1.498  16.240  0.00  0.00    +0.000 OA
ATOM     13  C   UNL     1      50.124   3.389  17.583  0.00  0.00    +0.000 A 
ATOM     14  H   UNL     1      51.986   0.781  16.842  0.00  0.00    +0.000 HD
ENDBRANCH   3   4
BRANCH   3  15
ATOM     15  N   UNL     1      46.697   3.338  17.424  0.00  0.00    +0.000 NA
ATOM     16  H   UNL     1      46.123   4.089  17.786  0.00  0.00    +0.000 HD
ATOM     17  H   UNL     1      47.186   2.947  18.227  0.00  0.00    +0.000 HD
ENDBRANCH   3  15
ENDBRANCH   1   3
BRANCH   1  18
ATOM     18  C   UNL     1      47.541   5.376  14.644  0.00  0.00    +0.000 C 
BRANCH  18  19
ATOM     19  C   UNL     1      46.502   4.822  13.707  0.00  0.00    +0.000 A 
ATOM     20  C   UNL     1      45.481   5.629  13.194  0.00  0.00    +0.000 A 
ATOM     21  C   UNL     1      44.506   5.077  12.370  0.00  0.00    +0.000 A 
ATOM     22  C   UNL     1      44.580   3.722  12.063  0.00  0.00    +0.000 A 
ATOM     23  N   UNL     1      45.560   2.913  12.542  0.00  0.00    +0.000 NA
ATOM     24  C   UNL     1      46.490   3.479  13.348  0.00  0.00    +0.000 A 
BRANCH  22  25
ATOM     25  C   UNL     1      43.494   3.064  11.235  0.00  0.00    +0.000 C 
BRANCH  25  26
ATOM     26  N   UNL     1      44.019   2.292  10.096  0.00  0.00    +0.000 NA
ATOM     27  H   UNL     1      43.192   1.912   9.622  0.00  0.00    +0.000 HD
BRANCH  26  28
ATOM     28  C   UNL     1      44.688   3.175   9.124  0.00  0.00    +0.000 C 
BRANCH  28  29
ATOM     29  C   UNL     1      45.725   2.430   8.349  0.00  0.00    +0.000 A 
ATOM     30  N   UNL     1      46.000   1.143   8.404  0.00  0.00    +0.000 NA
ATOM     31  C   UNL     1      47.029   0.946   7.523  0.00  0.00    +0.000 A 
ATOM     32  C   UNL     1      47.384   2.127   6.917  0.00  0.00    +0.000 A 
ATOM     33  N   UNL     1      46.543   3.062   7.446  0.00  0.00    +0.000 N 
ATOM     34  H   UNL     1      46.523   4.056   7.261  0.00  0.00    +0.000 HD
ENDBRANCH  28  29
ENDBRANCH  26  28
ENDBRANCH  25  26
ENDBRANCH  22  25
ENDBRANCH  18  19
ENDBRANCH   1  18
TORSDOF 9
ENDMDL
MODEL 2
REMARK VINA RESULT:    -7.606      1.880      2.593
REMARK INTER + INTRA:         -12.119
REMARK INTER:                 -11.322
REMARK INTRA:                  -0.797
REMARK UNBOUND:                -0.733
REMARK  Name = 
REMARK  9 active torsions:
REMARK  status: ('A' for Active; 'I' for Inactive)
REMARK    1  A    between atoms: N_1  and  C_2
REMARK    2  A    between atoms: C_2  and  N_3
REMARK    3  A    between atoms: C_2  and  C_19
REMARK    4  A    between atoms: N_3  and  C_4
REMARK    5  A    between atoms: C_4  and  C_5
REMARK    6  A    between atoms: C_8  and  C_9
REMARK    7  A    between atoms: C_9  and  N_10
REMARK    8  A    between atoms: N_10  and  C_11
REMARK    9  A    between atoms: C_11  and  C_12
REMARK                            x       y       z     vdW  Elec       q    Type
REMARK                         _______ _______ _______ _____ _____    ______ ____
ROOT
ATOM      1  N   UNL     1      47.108   4.848  16.102  0.00  0.00    +0.000 NA
ATOM      2  H   UNL     1      47.355   5.631  16.716  0.00  0.00    +0.000 HD
ENDROOT
BRANCH   1   3
ATOM      3  C   UNL     1      47.730   3.681  16.707  0.00  0.00    +0.000 C 
BRANCH   3   4
ATOM      4  C   UNL     1      48.836   4.155  17.638  0.00  0.00    +0.000 A 
ATOM      5  C   UNL     1      50.182   3.835  17.518  0.00  0.00    +0.000 A 
ATOM      6  S   UNL     1      51.161   4.469  18.763  0.00  0.00    +0.000 S 
ATOM      7  C   UNL     1      49.827   5.229  19.493  0.00  0.00    +0.000 A 
ATOM      8  N   UNL     1      49.974   5.937  20.642  0.00  0.00    +0.000 NA
ATOM      9  C   UNL     1      48.879   6.462  21.078  0.00  0.00    +0.000 A 
ATOM     10  N   UNL     1      47.660   6.368  20.460  0.00  0.00    +0.000 N 
ATOM     11  C   UNL     1      47.464   5.663  19.295  0.00  0.00    +0.000 A 
ATOM     12  O   UNL     1      46.367   5.567  18.755  0.00  0.00    +0.000 OA
ATOM     13  C   UNL     1      48.666   5.027  18.781  0.00  0.00    +0.000 A 
ATOM     14  H   UNL     1      46.844   6.816  20.854  0.00  0.00    +0.000 HD
ENDBRANCH   3   4
BRANCH   3  15
ATOM     15  N   UNL     1      46.710   3.051  17.513  0.00  0.00    +0.000 NA
ATOM     16  H   UNL     1      46.577   2.094  17.206  0.00  0.00    +0.000 HD
ATOM     17  H   UNL     1      45.846   3.539  17.284  0.00  0.00    +0.000 HD
ENDBRANCH   3  15
ENDBRANCH   1   3
BRANCH   1  18
ATOM     18  C   UNL     1      47.623   5.180  14.774  0.00  0.00    +0.000 C 
BRANCH  18  19
ATOM     19  C   UNL     1      46.635   4.858  13.685  0.00  0.00    +0.000 A 
ATOM     20  C   UNL     1      45.996   5.869  12.961  0.00  0.00    +0.000 A 
ATOM     21  C   UNL     1      45.050   5.542  11.995  0.00  0.00    +0.000 A 
ATOM     22  C   UNL     1      44.772   4.199  11.761  0.00  0.00    +0.000 A 
ATOM     23  N   UNL     1      45.378   3.194  12.446  0.00  0.00    +0.000 NA
ATOM     24  C   UNL     1      46.287   3.546  13.385  0.00  0.00    +0.000 A 
BRANCH  22  25
ATOM     25  C   UNL     1      43.692   3.802  10.775  0.00  0.00    +0.000 C 
BRANCH  25  26
ATOM     26  N   UNL     1      44.207   3.556   9.417  0.00  0.00    +0.000 NA
ATOM     27  H   UNL     1      45.095   4.069   9.368  0.00  0.00    +0.000 HD
BRANCH  26  28
ATOM     28  C   UNL     1      44.537   2.133   9.228  0.00  0.00    +0.000 C 
BRANCH  28  29
ATOM     29  C   UNL     1      45.734   1.973   8.348  0.00  0.00    +0.000 A 
ATOM     30  N   UNL     1      46.398   0.865   8.088  0.00  0.00    +0.000 NA
ATOM     31  C   UNL     1      47.413   1.232   7.246  0.00  0.00    +0.000 A 
ATOM     32  C   UNL     1      47.364   2.580   6.982  0.00  0.00    +0.000 A 
ATOM     33  N   UNL     1      46.288   3.038   7.685  0.00  0.00    +0.000 N 
ATOM     34  H   UNL     1      45.954   3.989   7.759  0.00  0.00    +0.000 HD
ENDBRANCH  28  29
ENDBRANCH  26  28
ENDBRANCH  25  26
ENDBRANCH  22  25
ENDBRANCH  18  19
ENDBRANCH   1  18
TORSDOF 9
ENDMDL
MODEL 3
REMARK VINA RESULT:    -7.488      3.144      8.811
REMARK INTER + INTRA:         -11.942
REMARK INTER:                 -11.054
REMARK INTRA:                  -0.888
REMARK UNBOUND:                -0.733
REMARK  Name = 
REMARK  9 active torsions:
REMARK  status: ('A' for Active; 'I' for Inactive)
REMARK    1  A    between atoms: N_1  and  C_2
REMARK    2  A    between atoms: C_2  and  N_3
REMARK    3  A    between atoms: C_2  and  C_19
REMARK    4  A    between atoms: N_3  and  C_4
REMARK    5  A    between atoms: C_4  and  C_5
REMARK    6  A    between atoms: C_8  and  C_9
REMARK    7  A    between atoms: C_9  and  N_10
REMARK    8  A    between atoms: N_10  and  C_11
REMARK    9  A    between atoms: C_11  and  C_12
REMARK                            x       y       z     vdW  Elec       q    Type
REMARK                         _______ _______ _______ _____ _____    ______ ____
ROOT
ATOM      1  N   UNL     1      45.897   6.869  12.799  0.00  0.00    +0.000 NA
ATOM      2  H   UNL     1      45.304   6.321  13.431  0.00  0.00    +0.000 HD
ENDROOT
BRANCH   1   3
ATOM      3  C   UNL     1      45.327   6.671  11.477  0.00  0.00    +0.000 C 
BRANCH   3   4
ATOM      4  C   UNL     1      44.735   5.271  11.414  0.00  0.00    +0.000 A 
ATOM      5  C   UNL     1      43.944   4.686  12.394  0.00  0.00    +0.000 A 
ATOM      6  S   UNL     1      43.493   3.076  12.054  0.00  0.00    +0.000 S 
ATOM      7  C   UNL     1      44.308   3.110  10.562  0.00  0.00    +0.000 A 
ATOM      8  N   UNL     1      44.336   2.014   9.761  0.00  0.00    +0.000 NA
ATOM      9  C   UNL     1      44.985   2.187   8.659  0.00  0.00    +0.000 A 
ATOM     10  N   UNL     1      45.583   3.357   8.273  0.00  0.00    +0.000 N 
ATOM     11  C   UNL     1      45.579   4.492   9.050  0.00  0.00    +0.000 A 
ATOM     12  O   UNL     1      46.130   5.532   8.708  0.00  0.00    +0.000 OA
ATOM     13  C   UNL     1      44.883   4.337  10.317  0.00  0.00    +0.000 A 
ATOM     14  H   UNL     1      46.067   3.424   7.388  0.00  0.00    +0.000 HD
ENDBRANCH   3   4
BRANCH   3  15
ATOM     15  N   UNL     1      44.243   7.619  11.357  0.00  0.00    +0.000 NA
ATOM     16  H   UNL     1      43.970   7.701  10.385  0.00  0.00    +0.000 HD
ATOM     17  H   UNL     1      44.643   8.520  11.612  0.00  0.00    +0.000 HD
ENDBRANCH   3  15
ENDBRANCH   1   3
BRANCH   1  18
ATOM     18  C   UNL     1      47.256   6.351  12.949  0.00  0.00    +0.000 C 
BRANCH  18  19
ATOM     19  C   UNL     1      47.449   5.631  14.258  0.00  0.00    +0.000 A 
ATOM     20  C   UNL     1      48.269   6.157  15.261  0.00  0.00    +0.000 A 
ATOM     21  C   UNL     1      48.468   5.446  16.440  0.00  0.00    +0.000 A 
ATOM     22  C   UNL     1      47.827   4.220  16.597  0.00  0.00    +0.000 A 
ATOM     23  N   UNL     1      47.024   3.685  15.641  0.00  0.00    +0.000 NA
ATOM     24  C   UNL     1      46.857   4.398  14.503  0.00  0.00    +0.000 A 
BRANCH  22  25
ATOM     25  C   UNL     1      48.080   3.376  17.830  0.00  0.00    +0.000 C 
BRANCH  25  26
ATOM     26  N   UNL     1      49.511   3.149  18.095  0.00  0.00    +0.000 NA
ATOM     27  H   UNL     1      49.548   2.700  19.017  0.00  0.00    +0.000 HD
BRANCH  26  28
ATOM     28  C   UNL     1      50.077   2.183  17.138  0.00  0.00    +0.000 C 
BRANCH  28  29
ATOM     29  C   UNL     1      51.446   1.754  17.556  0.00  0.00    +0.000 A 
ATOM     30  N   UNL     1      52.521   2.505  17.679  0.00  0.00    +0.000 NA
ATOM     31  C   UNL     1      53.521   1.658  18.073  0.00  0.00    +0.000 A 
ATOM     32  C   UNL     1      53.050   0.373  18.198  0.00  0.00    +0.000 A 
ATOM     33  N   UNL     1      51.727   0.449  17.872  0.00  0.00    +0.000 N 
ATOM     34  H   UNL     1      51.055  -0.305  17.824  0.00  0.00    +0.000 HD
ENDBRANCH  28  29
ENDBRANCH  26  28
ENDBRANCH  25  26
ENDBRANCH  22  25
ENDBRANCH  18  19
ENDBRANCH   1  18
TORSDOF 9
ENDMDL
MODEL 4
REMARK VINA RESULT:    -7.208      2.015      2.750
REMARK INTER + INTRA:         -11.523
REMARK INTER:                 -10.607
REMARK INTRA:                  -0.916
REMARK UNBOUND:                -0.733
REMARK  Name = 
REMARK  9 active torsions:
REMARK  status: ('A' for Active; 'I' for Inactive)
REMARK    1  A    between atoms: N_1  and  C_2
REMARK    2  A    between atoms: C_2  and  N_3
REMARK    3  A    between atoms: C_2  and  C_19
REMARK    4  A    between atoms: N_3  and  C_4
REMARK    5  A    between atoms: C_4  and  C_5
REMARK    6  A    between atoms: C_8  and  C_9
REMARK    7  A    between atoms: C_9  and  N_10
REMARK    8  A    between atoms: N_10  and  C_11
REMARK    9  A    between atoms: C_11  and  C_12
REMARK                            x       y       z     vdW  Elec       q    Type
REMARK                         _______ _______ _______ _____ _____    ______ ____
ROOT
ATOM      1  N   UNL     1      48.243   6.301  14.936  0.00  0.00    +0.000 NA
ATOM      2  H   UNL     1      47.322   6.489  15.344  0.00  0.00    +0.000 HD
ENDROOT
BRANCH   1   3
ATOM      3  C   UNL     1      49.158   7.184  15.641  0.00  0.00    +0.000 C 
BRANCH   3   4
ATOM      4  C   UNL     1      48.777   7.193  17.113  0.00  0.00    +0.000 A 
ATOM      5  C   UNL     1      48.366   8.307  17.833  0.00  0.00    +0.000 A 
ATOM      6  S   UNL     1      48.077   8.001  19.486  0.00  0.00    +0.000 S 
ATOM      7  C   UNL     1      48.455   6.354  19.298  0.00  0.00    +0.000 A 
ATOM      8  N   UNL     1      48.428   5.509  20.360  0.00  0.00    +0.000 NA
ATOM      9  C   UNL     1      48.731   4.289  20.068  0.00  0.00    +0.000 A 
ATOM     10  N   UNL     1      49.031   3.832  18.813  0.00  0.00    +0.000 N 
ATOM     11  C   UNL     1      49.069   4.650  17.707  0.00  0.00    +0.000 A 
ATOM     12  O   UNL     1      49.356   4.239  16.588  0.00  0.00    +0.000 OA
ATOM     13  C   UNL     1      48.764   6.042  17.992  0.00  0.00    +0.000 A 
ATOM     14  H   UNL     1      49.249   2.858  18.654  0.00  0.00    +0.000 HD
ENDBRANCH   3   4
BRANCH   3  15
ATOM     15  N   UNL     1      50.468   6.587  15.523  0.00  0.00    +0.000 NA
ATOM     16  H   UNL     1      50.942   6.631  16.417  0.00  0.00    +0.000 HD
ATOM     17  H   UNL     1      50.990   7.202  14.901  0.00  0.00    +0.000 HD
ENDBRANCH   3  15
ENDBRANCH   1   3
BRANCH   1  18
ATOM     18  C   UNL     1      48.129   6.575  13.504  0.00  0.00    +0.000 C 
BRANCH  18  19
ATOM     19  C   UNL     1      46.992   5.821  12.870  0.00  0.00    +0.000 A 
ATOM     20  C   UNL     1      46.444   6.225  11.647  0.00  0.00    +0.000 A 
ATOM     21  C   UNL     1      45.361   5.538  11.109  0.00  0.00    +0.000 A 
ATOM     22  C   UNL     1      44.851   4.446  11.805  0.00  0.00    +0.000 A 
ATOM     23  N   UNL     1      45.361   4.029  12.993  0.00  0.00    +0.000 NA
ATOM     24  C   UNL     1      46.410   4.723  13.493  0.00  0.00    +0.000 A 
BRANCH  22  25
ATOM     25  C   UNL     1      43.621   3.721  11.296  0.00  0.00    +0.000 C 
BRANCH  25  26
ATOM     26  N   UNL     1      43.672   3.435   9.853  0.00  0.00    +0.000 NA
ATOM     27  H   UNL     1      44.086   4.271   9.425  0.00  0.00    +0.000 HD
BRANCH  26  28
ATOM     28  C   UNL     1      44.595   2.321   9.568  0.00  0.00    +0.000 C 
BRANCH  28  29
ATOM     29  C   UNL     1      45.537   2.675   8.464  0.00  0.00    +0.000 A 
ATOM     30  N   UNL     1      45.669   3.840   7.863  0.00  0.00    +0.000 NA
ATOM     31  C   UNL     1      46.645   3.660   6.920  0.00  0.00    +0.000 A 
ATOM     32  C   UNL     1      47.121   2.371   6.950  0.00  0.00    +0.000 A 
ATOM     33  N   UNL     1      46.411   1.757   7.941  0.00  0.00    +0.000 N 
ATOM     34  H   UNL     1      46.465   0.791   8.236  0.00  0.00    +0.000 HD
ENDBRANCH  28  29
ENDBRANCH  26  28
ENDBRANCH  25  26
ENDBRANCH  22  25
ENDBRANCH  18  19
ENDBRANCH   1  18
TORSDOF 9
ENDMDL
MODEL 5
REMARK VINA RESULT:    -7.095      3.521      9.140
REMARK INTER + INTRA:         -11.354
REMARK INTER:                  -9.937
REMARK INTRA:                  -1.417
REMARK UNBOUND:                -0.733
REMARK  Name = 
REMARK  9 active torsions:
REMARK  status: ('A' for Active; 'I' for Inactive)
REMARK    1  A    between atoms: N_1  and  C_2
REMARK    2  A    between atoms: C_2  and  N_3
REMARK    3  A    between atoms: C_2  and  C_19
REMARK    4  A    between atoms: N_3  and  C_4
REMARK    5  A    between atoms: C_4  and  C_5
REMARK    6  A    between atoms: C_8  and  C_9
REMARK    7  A    between atoms: C_9  and  N_10
REMARK    8  A    between atoms: N_10  and  C_11
REMARK    9  A    between atoms: C_11  and  C_12
REMARK                            x       y       z     vdW  Elec       q    Type
REMARK                         _______ _______ _______ _____ _____    ______ ____
ROOT
ATOM      1  N   UNL     1      45.637   6.979  12.413  0.00  0.00    +0.000 NA
ATOM      2  H   UNL     1      45.132   6.409  13.099  0.00  0.00    +0.000 HD
ENDROOT
BRANCH   1   3
ATOM      3  C   UNL     1      44.958   6.746  11.149  0.00  0.00    +0.000 C 
BRANCH   3   4
ATOM      4  C   UNL     1      44.483   5.301  11.119  0.00  0.00    +0.000 A 
ATOM      5  C   UNL     1      43.633   4.713  12.046  0.00  0.00    +0.000 A 
ATOM      6  S   UNL     1      43.345   3.054  11.772  0.00  0.00    +0.000 S 
ATOM      7  C   UNL     1      44.318   3.065  10.377  0.00  0.00    +0.000 A 
ATOM      8  N   UNL     1      44.519   1.929   9.661  0.00  0.00    +0.000 NA
ATOM      9  C   UNL     1      45.273   2.088   8.626  0.00  0.00    +0.000 A 
ATOM     10  N   UNL     1      45.821   3.278   8.227  0.00  0.00    +0.000 N 
ATOM     11  C   UNL     1      45.644   4.454   8.920  0.00  0.00    +0.000 A 
ATOM     12  O   UNL     1      46.151   5.513   8.568  0.00  0.00    +0.000 OA
ATOM     13  C   UNL     1      44.824   4.318  10.112  0.00  0.00    +0.000 A 
ATOM     14  H   UNL     1      46.395   3.331   7.397  0.00  0.00    +0.000 HD
ENDBRANCH   3   4
BRANCH   3  15
ATOM     15  N   UNL     1      43.791   7.598  11.153  0.00  0.00    +0.000 NA
ATOM     16  H   UNL     1      42.984   7.066  11.456  0.00  0.00    +0.000 HD
ATOM     17  H   UNL     1      43.623   7.829  10.176  0.00  0.00    +0.000 HD
ENDBRANCH   3  15
ENDBRANCH   1   3
BRANCH   1  18
ATOM     18  C   UNL     1      47.028   6.527  12.438  0.00  0.00    +0.000 C 
BRANCH  18  19
ATOM     19  C   UNL     1      47.377   5.834  13.728  0.00  0.00    +0.000 A 
ATOM     20  C   UNL     1      46.714   4.670  14.129  0.00  0.00    +0.000 A 
ATOM     21  C   UNL     1      47.023   4.078  15.350  0.00  0.00    +0.000 A 
ATOM     22  C   UNL     1      48.006   4.662  16.144  0.00  0.00    +0.000 A 
ATOM     23  N   UNL     1      48.668   5.791  15.780  0.00  0.00    +0.000 NA
ATOM     24  C   UNL     1      48.339   6.346  14.591  0.00  0.00    +0.000 A 
BRANCH  22  25
ATOM     25  C   UNL     1      48.316   4.097  17.515  0.00  0.00    +0.000 C 
BRANCH  25  26
ATOM     26  N   UNL     1      47.469   4.660  18.580  0.00  0.00    +0.000 NA
ATOM     27  H   UNL     1      47.178   3.855  19.148  0.00  0.00    +0.000 HD
BRANCH  26  28
ATOM     28  C   UNL     1      48.253   5.535  19.470  0.00  0.00    +0.000 C 
BRANCH  28  29
ATOM     29  C   UNL     1      48.162   6.961  19.034  0.00  0.00    +0.000 A 
ATOM     30  N   UNL     1      47.201   7.823  19.297  0.00  0.00    +0.000 NA
ATOM     31  C   UNL     1      47.565   8.985  18.672  0.00  0.00    +0.000 A 
ATOM     32  C   UNL     1      48.767   8.834  18.023  0.00  0.00    +0.000 A 
ATOM     33  N   UNL     1      49.139   7.543  18.266  0.00  0.00    +0.000 N 
ATOM     34  H   UNL     1      49.959   7.058  17.926  0.00  0.00    +0.000 HD
ENDBRANCH  28  29
ENDBRANCH  26  28
ENDBRANCH  25  26
ENDBRANCH  22  25
ENDBRANCH  18  19
ENDBRANCH   1  18
TORSDOF 9
ENDMDL
MODEL 6
REMARK VINA RESULT:    -7.048      2.531      3.322
REMARK INTER + INTRA:         -11.283
REMARK INTER:                 -10.343
REMARK INTRA:                  -0.940
REMARK UNBOUND:                -0.733
REMARK  Name = 
REMARK  9 active torsions:
REMARK  status: ('A' for Active; 'I' for Inactive)
REMARK    1  A    between atoms: N_1  and  C_2
REMARK    2  A    between atoms: C_2  and  N_3
REMARK    3  A    between atoms: C_2  and  C_19
REMARK    4  A    between atoms: N_3  and  C_4
REMARK    5  A    between atoms: C_4  and  C_5
REMARK    6  A    between atoms: C_8  and  C_9
REMARK    7  A    between atoms: C_9  and  N_10
REMARK    8  A    between atoms: N_10  and  C_11
REMARK    9  A    between atoms: C_11  and  C_12
REMARK                            x       y       z     vdW  Elec       q    Type
REMARK                         _______ _______ _______ _____ _____    ______ ____
ROOT
ATOM      1  N   UNL     1      46.999   4.553  16.118  0.00  0.00    +0.000 NA
ATOM      2  H   UNL     1      47.213   5.509  15.815  0.00  0.00    +0.000 HD
ENDROOT
BRANCH   1   3
ATOM      3  C   UNL     1      47.822   4.335  17.297  0.00  0.00    +0.000 C 
BRANCH   3   4
ATOM      4  C   UNL     1      47.939   5.651  18.051  0.00  0.00    +0.000 A 
ATOM      5  C   UNL     1      47.406   5.909  19.307  0.00  0.00    +0.000 A 
ATOM      6  S   UNL     1      47.652   7.508  19.852  0.00  0.00    +0.000 S 
ATOM      7  C   UNL     1      48.514   7.908  18.441  0.00  0.00    +0.000 A 
ATOM      8  N   UNL     1      48.996   9.164  18.255  0.00  0.00    +0.000 NA
ATOM      9  C   UNL     1      49.633   9.321  17.144  0.00  0.00    +0.000 A 
ATOM     10  N   UNL     1      49.856   8.336  16.218  0.00  0.00    +0.000 N 
ATOM     11  C   UNL     1      49.389   7.050  16.365  0.00  0.00    +0.000 A 
ATOM     12  O   UNL     1      49.577   6.177  15.525  0.00  0.00    +0.000 OA
ATOM     13  C   UNL     1      48.637   6.833  17.590  0.00  0.00    +0.000 A 
ATOM     14  H   UNL     1      50.375   8.529  15.372  0.00  0.00    +0.000 HD
ENDBRANCH   3   4
BRANCH   3  15
ATOM     15  N   UNL     1      47.096   3.406  18.131  0.00  0.00    +0.000 NA
ATOM     16  H   UNL     1      47.615   2.540  18.207  0.00  0.00    +0.000 HD
ATOM     17  H   UNL     1      46.250   3.180  17.611  0.00  0.00    +0.000 HD
ENDBRANCH   3  15
ENDBRANCH   1   3
BRANCH   1  18
ATOM     18  C   UNL     1      47.321   3.677  14.992  0.00  0.00    +0.000 C 
BRANCH  18  19
ATOM     19  C   UNL     1      46.713   4.162  13.703  0.00  0.00    +0.000 A 
ATOM     20  C   UNL     1      46.894   5.478  13.264  0.00  0.00    +0.000 A 
ATOM     21  C   UNL     1      46.279   5.912  12.094  0.00  0.00    +0.000 A 
ATOM     22  C   UNL     1      45.500   5.010  11.376  0.00  0.00    +0.000 A 
ATOM     23  N   UNL     1      45.306   3.727  11.776  0.00  0.00    +0.000 NA
ATOM     24  C   UNL     1      45.912   3.337  12.922  0.00  0.00    +0.000 A 
BRANCH  22  25
ATOM     25  C   UNL     1      44.747   5.464  10.141  0.00  0.00    +0.000 C 
BRANCH  25  26
ATOM     26  N   UNL     1      45.428   5.111   8.884  0.00  0.00    +0.000 NA
ATOM     27  H   UNL     1      46.410   4.956   9.142  0.00  0.00    +0.000 HD
BRANCH  26  28
ATOM     28  C   UNL     1      44.928   3.829   8.355  0.00  0.00    +0.000 C 
BRANCH  28  29
ATOM     29  C   UNL     1      46.046   3.005   7.805  0.00  0.00    +0.000 A 
ATOM     30  N   UNL     1      47.071   3.417   7.088  0.00  0.00    +0.000 NA
ATOM     31  C   UNL     1      47.807   2.295   6.816  0.00  0.00    +0.000 A 
ATOM     32  C   UNL     1      47.228   1.184   7.380  0.00  0.00    +0.000 A 
ATOM     33  N   UNL     1      46.112   1.650   8.012  0.00  0.00    +0.000 N 
ATOM     34  H   UNL     1      45.416   1.118   8.516  0.00  0.00    +0.000 HD
ENDBRANCH  28  29
ENDBRANCH  26  28
ENDBRANCH  25  26
ENDBRANCH  22  25
ENDBRANCH  18  19
ENDBRANCH   1  18
TORSDOF 9
ENDMDL
MODEL 7
REMARK VINA RESULT:    -7.016      1.954      2.341
REMARK INTER + INTRA:         -11.236
REMARK INTER:                 -10.461
REMARK INTRA:                  -0.775
REMARK UNBOUND:                -0.733
REMARK  Name = 
REMARK  9 active torsions:
REMARK  status: ('A' for Active; 'I' for Inactive)
REMARK    1  A    between atoms: N_1  and  C_2
REMARK    2  A    between atoms: C_2  and  N_3
REMARK    3  A    between atoms: C_2  and  C_19
REMARK    4  A    between atoms: N_3  and  C_4
REMARK    5  A    between atoms: C_4  and  C_5
REMARK    6  A    between atoms: C_8  and  C_9
REMARK    7  A    between atoms: C_9  and  N_10
REMARK    8  A    between atoms: N_10  and  C_11
REMARK    9  A    between atoms: C_11  and  C_12
REMARK                            x       y       z     vdW  Elec       q    Type
REMARK                         _______ _______ _______ _____ _____    ______ ____
ROOT
ATOM      1  N   UNL     1      48.131   6.265  14.877  0.00  0.00    +0.000 NA
ATOM      2  H   UNL     1      47.343   5.856  15.390  0.00  0.00    +0.000 HD
ENDROOT
BRANCH   1   3
ATOM      3  C   UNL     1      48.701   7.251  15.780  0.00  0.00    +0.000 C 
BRANCH   3   4
ATOM      4  C   UNL     1      50.125   6.831  16.113  0.00  0.00    +0.000 A 
ATOM      5  C   UNL     1      51.277   7.478  15.686  0.00  0.00    +0.000 A 
ATOM      6  S   UNL     1      52.724   6.717  16.174  0.00  0.00    +0.000 S 
ATOM      7  C   UNL     1      51.866   5.509  17.008  0.00  0.00    +0.000 A 
ATOM      8  N   UNL     1      52.522   4.505  17.646  0.00  0.00    +0.000 NA
ATOM      9  C   UNL     1      51.744   3.665  18.240  0.00  0.00    +0.000 A 
ATOM     10  N   UNL     1      50.377   3.750  18.279  0.00  0.00    +0.000 N 
ATOM     11  C   UNL     1      49.670   4.749  17.651  0.00  0.00    +0.000 A 
ATOM     12  O   UNL     1      48.446   4.811  17.675  0.00  0.00    +0.000 OA
ATOM     13  C   UNL     1      50.504   5.705  16.941  0.00  0.00    +0.000 A 
ATOM     14  H   UNL     1      49.829   3.060  18.775  0.00  0.00    +0.000 HD
ENDBRANCH   3   4
BRANCH   3  15
ATOM     15  N   UNL     1      48.764   8.490  15.040  0.00  0.00    +0.000 NA
ATOM     16  H   UNL     1      49.451   9.103  15.462  0.00  0.00    +0.000 HD
ATOM     17  H   UNL     1      47.862   8.938  15.187  0.00  0.00    +0.000 HD
ENDBRANCH   3  15
ENDBRANCH   1   3
BRANCH   1  18
ATOM     18  C   UNL     1      47.580   6.829  13.645  0.00  0.00    +0.000 C 
BRANCH  18  19
ATOM     19  C   UNL     1      46.655   5.869  12.946  0.00  0.00    +0.000 A 
ATOM     20  C   UNL     1      46.156   6.143  11.668  0.00  0.00    +0.000 A 
ATOM     21  C   UNL     1      45.263   5.261  11.067  0.00  0.00    +0.000 A 
ATOM     22  C   UNL     1      44.896   4.110  11.756  0.00  0.00    +0.000 A 
ATOM     23  N   UNL     1      45.365   3.816  12.997  0.00  0.00    +0.000 NA
ATOM     24  C   UNL     1      46.225   4.698  13.557  0.00  0.00    +0.000 A 
BRANCH  22  25
ATOM     25  C   UNL     1      43.865   3.165  11.173  0.00  0.00    +0.000 C 
BRANCH  25  26
ATOM     26  N   UNL     1      44.442   2.177  10.246  0.00  0.00    +0.000 NA
ATOM     27  H   UNL     1      43.758   1.412  10.205  0.00  0.00    +0.000 HD
BRANCH  26  28
ATOM     28  C   UNL     1      44.535   2.726   8.881  0.00  0.00    +0.000 C 
BRANCH  28  29
ATOM     29  C   UNL     1      45.752   2.215   8.180  0.00  0.00    +0.000 A 
ATOM     30  N   UNL     1      46.194   0.975   8.139  0.00  0.00    +0.000 NA
ATOM     31  C   UNL     1      47.339   1.016   7.389  0.00  0.00    +0.000 A 
ATOM     32  C   UNL     1      47.596   2.297   6.962  0.00  0.00    +0.000 A 
ATOM     33  N   UNL     1      46.576   3.049   7.467  0.00  0.00    +0.000 N 
ATOM     34  H   UNL     1      46.440   4.047   7.385  0.00  0.00    +0.000 HD
ENDBRANCH  28  29
ENDBRANCH  26  28
ENDBRANCH  25  26
ENDBRANCH  22  25
ENDBRANCH  18  19
ENDBRANCH   1  18
TORSDOF 9
ENDMDL
MODEL 8
REMARK VINA RESULT:    -6.949      3.029      3.909
REMARK INTER + INTRA:         -11.135
REMARK INTER:                 -10.212
REMARK INTRA:                  -0.924
REMARK UNBOUND:                -0.733
REMARK  Name = 
REMARK  9 active torsions:
REMARK  status: ('A' for Active; 'I' for Inactive)
REMARK    1  A    between atoms: N_1  and  C_2
REMARK    2  A    between atoms: C_2  and  N_3
REMARK    3  A    between atoms: C_2  and  C_19
REMARK    4  A    between atoms: N_3  and  C_4
REMARK    5  A    between atoms: C_4  and  C_5
REMARK    6  A    between atoms: C_8  and  C_9
REMARK    7  A    between atoms: C_9  and  N_10
REMARK    8  A    between atoms: N_10  and  C_11
REMARK    9  A    between atoms: C_11  and  C_12
REMARK                            x       y       z     vdW  Elec       q    Type
REMARK                         _______ _______ _______ _____ _____    ______ ____
ROOT
ATOM      1  N   UNL     1      47.937   7.292  14.717  0.00  0.00    +0.000 NA
ATOM      2  H   UNL     1      47.812   7.862  13.875  0.00  0.00    +0.000 HD
ENDROOT
BRANCH   1   3
ATOM      3  C   UNL     1      49.245   7.659  15.235  0.00  0.00    +0.000 C 
BRANCH   3   4
ATOM      4  C   UNL     1      49.411   7.028  16.609  0.00  0.00    +0.000 A 
ATOM      5  C   UNL     1      50.192   5.916  16.896  0.00  0.00    +0.000 A 
ATOM      6  S   UNL     1      50.114   5.412  18.524  0.00  0.00    +0.000 S 
ATOM      7  C   UNL     1      49.059   6.686  18.920  0.00  0.00    +0.000 A 
ATOM      8  N   UNL     1      48.576   6.822  20.182  0.00  0.00    +0.000 NA
ATOM      9  C   UNL     1      47.792   7.834  20.337  0.00  0.00    +0.000 A 
ATOM     10  N   UNL     1      47.469   8.736  19.358  0.00  0.00    +0.000 N 
ATOM     11  C   UNL     1      47.935   8.640  18.067  0.00  0.00    +0.000 A 
ATOM     12  O   UNL     1      47.628   9.441  17.190  0.00  0.00    +0.000 OA
ATOM     13  C   UNL     1      48.800   7.495  17.836  0.00  0.00    +0.000 A 
ATOM     14  H   UNL     1      46.855   9.516  19.554  0.00  0.00    +0.000 HD
ENDBRANCH   3   4
BRANCH   3  15
ATOM     15  N   UNL     1      50.215   7.059  14.349  0.00  0.00    +0.000 NA
ATOM     16  H   UNL     1      50.178   7.516  13.446  0.00  0.00    +0.000 HD
ATOM     17  H   UNL     1      49.885   6.108  14.194  0.00  0.00    +0.000 HD
ENDBRANCH   3  15
ENDBRANCH   1   3
BRANCH   1  18
ATOM     18  C   UNL     1      47.831   5.895  14.294  0.00  0.00    +0.000 C 
BRANCH  18  19
ATOM     19  C   UNL     1      46.720   5.685  13.301  0.00  0.00    +0.000 A 
ATOM     20  C   UNL     1      46.677   6.398  12.098  0.00  0.00    +0.000 A 
ATOM     21  C   UNL     1      45.611   6.219  11.222  0.00  0.00    +0.000 A 
ATOM     22  C   UNL     1      44.610   5.316  11.564  0.00  0.00    +0.000 A 
ATOM     23  N   UNL     1      44.625   4.609  12.724  0.00  0.00    +0.000 NA
ATOM     24  C   UNL     1      45.671   4.811  13.558  0.00  0.00    +0.000 A 
BRANCH  22  25
ATOM     25  C   UNL     1      43.392   5.151  10.677  0.00  0.00    +0.000 C 
BRANCH  25  26
ATOM     26  N   UNL     1      43.711   4.602   9.349  0.00  0.00    +0.000 NA
ATOM     27  H   UNL     1      44.434   5.222   8.966  0.00  0.00    +0.000 HD
BRANCH  26  28
ATOM     28  C   UNL     1      44.324   3.267   9.463  0.00  0.00    +0.000 C 
BRANCH  28  29
ATOM     29  C   UNL     1      45.422   3.095   8.465  0.00  0.00    +0.000 A 
ATOM     30  N   UNL     1      45.924   4.007   7.658  0.00  0.00    +0.000 NA
ATOM     31  C   UNL     1      46.892   3.365   6.932  0.00  0.00    +0.000 A 
ATOM     32  C   UNL     1      46.986   2.045   7.305  0.00  0.00    +0.000 A 
ATOM     33  N   UNL     1      46.049   1.888   8.285  0.00  0.00    +0.000 N 
ATOM     34  H   UNL     1      45.806   1.042   8.782  0.00  0.00    +0.000 HD
ENDBRANCH  28  29
ENDBRANCH  26  28
ENDBRANCH  25  26
ENDBRANCH  22  25
ENDBRANCH  18  19
ENDBRANCH   1  18
TORSDOF 9
ENDMDL
MODEL 9
REMARK VINA RESULT:    -6.767      3.726      9.693
REMARK INTER + INTRA:         -10.863
REMARK INTER:                 -10.092
REMARK INTRA:                  -0.771
REMARK UNBOUND:                -0.733
REMARK  Name = 
REMARK  9 active torsions:
REMARK  status: ('A' for Active; 'I' for Inactive)
REMARK    1  A    between atoms: N_1  and  C_2
REMARK    2  A    between atoms: C_2  and  N_3
REMARK    3  A    between atoms: C_2  and  C_19
REMARK    4  A    between atoms: N_3  and  C_4
REMARK    5  A    between atoms: C_4  and  C_5
REMARK    6  A    between atoms: C_8  and  C_9
REMARK    7  A    between atoms: C_9  and  N_10
REMARK    8  A    between atoms: N_10  and  C_11
REMARK    9  A    between atoms: C_11  and  C_12
REMARK                            x       y       z     vdW  Elec       q    Type
REMARK                         _______ _______ _______ _____ _____    ______ ____
ROOT
ATOM      1  N   UNL     1      47.664   4.953  15.366  0.00  0.00    +0.000 NA
ATOM      2  H   UNL     1      47.446   5.951  15.447  0.00  0.00    +0.000 HD
ENDROOT
BRANCH   1   3
ATOM      3  C   UNL     1      46.576   4.387  14.586  0.00  0.00    +0.000 C 
BRANCH   3   4
ATOM      4  C   UNL     1      46.118   5.428  13.576  0.00  0.00    +0.000 A 
ATOM      5  C   UNL     1      46.839   6.552  13.194  0.00  0.00    +0.000 A 
ATOM      6  S   UNL     1      46.020   7.563  12.090  0.00  0.00    +0.000 S 
ATOM      7  C   UNL     1      44.680   6.516  12.050  0.00  0.00    +0.000 A 
ATOM      8  N   UNL     1      43.588   6.812  11.299  0.00  0.00    +0.000 NA
ATOM      9  C   UNL     1      42.653   5.927  11.361  0.00  0.00    +0.000 A 
ATOM     10  N   UNL     1      42.717   4.763  12.080  0.00  0.00    +0.000 N 
ATOM     11  C   UNL     1      43.802   4.420  12.854  0.00  0.00    +0.000 A 
ATOM     12  O   UNL     1      43.847   3.384  13.510  0.00  0.00    +0.000 OA
ATOM     13  C   UNL     1      44.872   5.404  12.839  0.00  0.00    +0.000 A 
ATOM     14  H   UNL     1      41.948   4.107  12.074  0.00  0.00    +0.000 HD
ENDBRANCH   3   4
BRANCH   3  15
ATOM     15  N   UNL     1      47.138   3.275  13.855  0.00  0.00    +0.000 NA
ATOM     16  H   UNL     1      47.221   3.519  12.876  0.00  0.00    +0.000 HD
ATOM     17  H   UNL     1      46.435   2.540  13.901  0.00  0.00    +0.000 HD
ENDBRANCH   3  15
ENDBRANCH   1   3
BRANCH   1  18
ATOM     18  C   UNL     1      47.755   4.435  16.731  0.00  0.00    +0.000 C 
BRANCH  18  19
ATOM     19  C   UNL     1      49.113   3.858  17.030  0.00  0.00    +0.000 A 
ATOM     20  C   UNL     1      49.347   2.480  16.969  0.00  0.00    +0.000 A 
ATOM     21  C   UNL     1      50.599   1.971  17.299  0.00  0.00    +0.000 A 
ATOM     22  C   UNL     1      51.602   2.860  17.675  0.00  0.00    +0.000 A 
ATOM     23  N   UNL     1      51.406   4.202  17.742  0.00  0.00    +0.000 NA
ATOM     24  C   UNL     1      50.175   4.665  17.422  0.00  0.00    +0.000 A 
BRANCH  22  25
ATOM     25  C   UNL     1      52.955   2.342  18.120  0.00  0.00    +0.000 C 
BRANCH  25  26
ATOM     26  N   UNL     1      52.944   0.910  18.466  0.00  0.00    +0.000 NA
ATOM     27  H   UNL     1      52.514   0.441  17.660  0.00  0.00    +0.000 HD
BRANCH  26  28
ATOM     28  C   UNL     1      54.316   0.383  18.572  0.00  0.00    +0.000 C 
BRANCH  28  29
ATOM     29  C   UNL     1      54.306  -1.090  18.818  0.00  0.00    +0.000 A 
ATOM     30  N   UNL     1      54.284  -1.711  19.980  0.00  0.00    +0.000 NA
ATOM     31  C   UNL     1      54.297  -3.048  19.684  0.00  0.00    +0.000 A 
ATOM     32  C   UNL     1      54.320  -3.247  18.324  0.00  0.00    +0.000 A 
ATOM     33  N   UNL     1      54.320  -1.993  17.785  0.00  0.00    +0.000 N 
ATOM     34  H   UNL     1      54.361  -1.737  16.808  0.00  0.00    +0.000 HD
ENDBRANCH  28  29
ENDBRANCH  26  28
ENDBRANCH  25  26
ENDBRANCH  22  25
ENDBRANCH  18  19
ENDBRANCH   1  18
TORSDOF 9
ENDMDL
