MODEL 1
REMARK VINA RESULT:    -7.030      0.000      0.000
REMARK INTER + INTRA:          -9.271
REMARK INTER:                  -8.879
REMARK INTRA:                  -0.392
REMARK UNBOUND:                -0.392
REMARK  Name = 
REMARK  5 active torsions:
REMARK  status: ('A' for Active; 'I' for Inactive)
REMARK    1  A    between atoms: N_1  and  C_2
REMARK    2  A    between atoms: C_2  and  C_3
REMARK    3  A    between atoms: C_6  and  C_7
REMARK    4  A    between atoms: C_7  and  C_8
REMARK    5  A    between atoms: C_8  and  C_9
REMARK                            x       y       z     vdW  Elec       q    Type
REMARK                         _______ _______ _______ _____ _____    ______ ____
ROOT
ATOM      1  C   UNL     1      46.324   5.965  12.613  0.00  0.00    +0.000 A 
ATOM      2  C   UNL     1      46.403   6.229  11.253  0.00  0.00    +0.000 A 
ATOM      3  N   UNL     1      45.704   5.557  10.306  0.00  0.00    +0.000 NA
ATOM      4  C   UNL     1      44.889   4.542  10.711  0.00  0.00    +0.000 A 
ATOM      5  C   UNL     1      44.738   4.217  12.060  0.00  0.00    +0.000 A 
ATOM      6 CL   UNL     1      43.761   2.911  12.620  0.00  0.00    +0.000 Cl
ATOM      7  C   UNL     1      45.445   4.953  13.011  0.00  0.00    +0.000 A 
ENDROOT
BRANCH   1   8
ATOM      8  C   UNL     1      47.149   6.720  13.614  0.00  0.00    +0.000 C 
BRANCH   8   9
ATOM      9  N   UNL     1      47.799   5.811  14.553  0.00  0.00    +0.000 NA
ATOM     10  H   UNL     1      48.469   5.228  14.054  0.00  0.00    +0.000 HD
ATOM     11  H   UNL     1      47.104   5.177  14.945  0.00  0.00    +0.000 HD
ENDBRANCH   8   9
ENDBRANCH   1   8
BRANCH   4  12
ATOM     12  C   UNL     1      44.219   3.770   9.593  0.00  0.00    +0.000 C 
BRANCH  12  13
ATOM     13  C   UNL     1      44.824   4.038   8.206  0.00  0.00    +0.000 C 
BRANCH  13  14
ATOM     14  C   UNL     1      45.852   3.032   7.732  0.00  0.00    +0.000 A 
ATOM     15  C   UNL     1      46.879   3.458   6.881  0.00  0.00    +0.000 A 
ATOM     16  C   UNL     1      47.852   2.547   6.488  0.00  0.00    +0.000 A 
ATOM     17  N   UNL     1      47.879   1.259   6.885  0.00  0.00    +0.000 NA
ATOM     18  C   UNL     1      46.890   0.868   7.714  0.00  0.00    +0.000 A 
ATOM     19  C   UNL     1      45.874   1.701   8.163  0.00  0.00    +0.000 A 
ENDBRANCH  13  14
ENDBRANCH  12  13
ENDBRANCH   4  12
TORSDOF 5
ENDMDL
MODEL 2
REMARK VINA RESULT:    -6.780      1.583      2.099
REMARK INTER + INTRA:          -8.956
REMARK INTER:                  -8.518
REMARK INTRA:                  -0.438
REMARK UNBOUND:                -0.392
REMARK  Name = 
REMARK  5 active torsions:
REMARK  status: ('A' for Active; 'I' for Inactive)
REMARK    1  A    between atoms: N_1  and  C_2
REMARK    2  A    between atoms: C_2  and  C_3
REMARK    3  A    between atoms: C_6  and  C_7
REMARK    4  A    between atoms: C_7  and  C_8
REMARK    5  A    between atoms: C_8  and  C_9
REMARK                            x       y       z     vdW  Elec       q    Type
REMARK                         _______ _______ _______ _____ _____    ______ ____
ROOT
ATOM      1  C   UNL     1      46.121   4.497  13.575  0.00  0.00    +0.000 A 
ATOM      2  C   UNL     1      46.200   3.291  12.893  0.00  0.00    +0.000 A 
ATOM      3  N   UNL     1      45.581   3.044  11.712  0.00  0.00    +0.000 NA
ATOM      4  C   UNL     1      44.815   4.034  11.171  0.00  0.00    +0.000 A 
ATOM      5  C   UNL     1      44.691   5.283  11.782  0.00  0.00    +0.000 A 
ATOM      6 CL   UNL     1      43.695   6.548  11.167  0.00  0.00    +0.000 Cl
ATOM      7  C   UNL     1      45.371   5.514  12.979  0.00  0.00    +0.000 A 
ENDROOT
BRANCH   1   8
ATOM      8  C   UNL     1      46.800   4.702  14.898  0.00  0.00    +0.000 C 
BRANCH   8   9
ATOM      9  N   UNL     1      47.474   3.484  15.339  0.00  0.00    +0.000 NA
ATOM     10  H   UNL     1      48.444   3.501  15.031  0.00  0.00    +0.000 HD
ATOM     11  H   UNL     1      47.044   2.678  14.886  0.00  0.00    +0.000 HD
ENDBRANCH   8   9
ENDBRANCH   1   8
BRANCH   4  12
ATOM     12  C   UNL     1      44.074   3.653   9.906  0.00  0.00    +0.000 C 
BRANCH  12  13
ATOM     13  C   UNL     1      44.772   4.109   8.616  0.00  0.00    +0.000 C 
BRANCH  13  14
ATOM     14  C   UNL     1      45.821   3.164   8.066  0.00  0.00    +0.000 A 
ATOM     15  C   UNL     1      45.739   1.801   8.376  0.00  0.00    +0.000 A 
ATOM     16  C   UNL     1      46.671   0.928   7.830  0.00  0.00    +0.000 A 
ATOM     17  N   UNL     1      47.661   1.310   6.999  0.00  0.00    +0.000 NA
ATOM     18  C   UNL     1      47.718   2.624   6.700  0.00  0.00    +0.000 A 
ATOM     19  C   UNL     1      46.835   3.574   7.195  0.00  0.00    +0.000 A 
ENDBRANCH  13  14
ENDBRANCH  12  13
ENDBRANCH   4  12
TORSDOF 5
ENDMDL
MODEL 3
REMARK VINA RESULT:    -6.752      1.624      2.034
REMARK INTER + INTRA:          -8.921
REMARK INTER:                  -8.598
REMARK INTRA:                  -0.323
REMARK UNBOUND:                -0.392
REMARK  Name = 
REMARK  5 active torsions:
REMARK  status: ('A' for Active; 'I' for Inactive)
REMARK    1  A    between atoms: N_1  and  C_2
REMARK    2  A    between atoms: C_2  and  C_3
REMARK    3  A    between atoms: C_6  and  C_7
REMARK    4  A    between atoms: C_7  and  C_8
REMARK    5  A    between atoms: C_8  and  C_9
REMARK                            x       y       z     vdW  Elec       q    Type
REMARK                         _______ _______ _______ _____ _____    ______ ____
ROOT
ATOM      1  C   UNL     1      45.600   7.203  12.473  0.00  0.00    +0.000 A 
ATOM      2  C   UNL     1      44.937   7.140  11.256  0.00  0.00    +0.000 A 
ATOM      3  N   UNL     1      44.659   5.987  10.599  0.00  0.00    +0.000 NA
ATOM      4  C   UNL     1      45.078   4.815  11.158  0.00  0.00    +0.000 A 
ATOM      5  C   UNL     1      45.740   4.784  12.387  0.00  0.00    +0.000 A 
ATOM      6 CL   UNL     1      46.334   3.336  13.110  0.00  0.00    +0.000 Cl
ATOM      7  C   UNL     1      45.977   5.987  13.052  0.00  0.00    +0.000 A 
ENDROOT
BRANCH   1   8
ATOM      8  C   UNL     1      45.910   8.512  13.137  0.00  0.00    +0.000 C 
BRANCH   8   9
ATOM      9  N   UNL     1      44.872   9.501  12.863  0.00  0.00    +0.000 NA
ATOM     10  H   UNL     1      45.160  10.089  12.083  0.00  0.00    +0.000 HD
ATOM     11  H   UNL     1      44.775  10.120  13.667  0.00  0.00    +0.000 HD
ENDBRANCH   8   9
ENDBRANCH   1   8
BRANCH   4  12
ATOM     12  C   UNL     1      44.825   3.578  10.321  0.00  0.00    +0.000 C 
BRANCH  12  13
ATOM     13  C   UNL     1      44.851   3.837   8.808  0.00  0.00    +0.000 C 
BRANCH  13  14
ATOM     14  C   UNL     1      45.798   2.966   8.007  0.00  0.00    +0.000 A 
ATOM     15  C   UNL     1      45.990   1.634   8.394  0.00  0.00    +0.000 A 
ATOM     16  C   UNL     1      46.817   0.822   7.630  0.00  0.00    +0.000 A 
ATOM     17  N   UNL     1      47.453   1.234   6.515  0.00  0.00    +0.000 NA
ATOM     18  C   UNL     1      47.248   2.516   6.149  0.00  0.00    +0.000 A 
ATOM     19  C   UNL     1      46.440   3.406   6.845  0.00  0.00    +0.000 A 
ENDBRANCH  13  14
ENDBRANCH  12  13
ENDBRANCH   4  12
TORSDOF 5
ENDMDL
MODEL 4
REMARK VINA RESULT:    -6.688      1.209      5.707
REMARK INTER + INTRA:          -8.840
REMARK INTER:                  -8.335
REMARK INTRA:                  -0.504
REMARK UNBOUND:                -0.392
REMARK  Name = 
REMARK  5 active torsions:
REMARK  status: ('A' for Active; 'I' for Inactive)
REMARK    1  A    between atoms: N_1  and  C_2
REMARK    2  A    between atoms: C_2  and  C_3
REMARK    3  A    between atoms: C_6  and  C_7
REMARK    4  A    between atoms: C_7  and  C_8
REMARK    5  A    between atoms: C_8  and  C_9
REMARK                            x       y       z     vdW  Elec       q    Type
REMARK                         _______ _______ _______ _____ _____    ______ ____
ROOT
ATOM      1  C   UNL     1      46.430   2.289   7.643  0.00  0.00    +0.000 A 
ATOM      2  C   UNL     1      46.534   3.663   7.479  0.00  0.00    +0.000 A 
ATOM      3  N   UNL     1      45.906   4.572   8.265  0.00  0.00    +0.000 NA
ATOM      4  C   UNL     1      45.104   4.108   9.266  0.00  0.00    +0.000 A 
ATOM      5  C   UNL     1      44.953   2.743   9.511  0.00  0.00    +0.000 A 
ATOM      6 CL   UNL     1      43.911   2.104  10.728  0.00  0.00    +0.000 Cl
ATOM      7  C   UNL     1      45.642   1.836   8.704  0.00  0.00    +0.000 A 
ENDROOT
BRANCH   1   8
ATOM      8  C   UNL     1      47.121   1.329   6.720  0.00  0.00    +0.000 C 
BRANCH   8   9
ATOM      9  N   UNL     1      48.322   1.924   6.143  0.00  0.00    +0.000 NA
ATOM     10  H   UNL     1      49.125   1.708   6.730  0.00  0.00    +0.000 HD
ATOM     11  H   UNL     1      48.231   2.940   6.147  0.00  0.00    +0.000 HD
ENDBRANCH   8   9
ENDBRANCH   1   8
BRANCH   4  12
ATOM     12  C   UNL     1      44.356   5.177  10.036  0.00  0.00    +0.000 C 
BRANCH  12  13
ATOM     13  C   UNL     1      45.267   6.241  10.665  0.00  0.00    +0.000 C 
BRANCH  13  14
ATOM     14  C   UNL     1      46.073   5.790  11.866  0.00  0.00    +0.000 A 
ATOM     15  C   UNL     1      47.228   6.500  12.216  0.00  0.00    +0.000 A 
ATOM     16  C   UNL     1      47.938   6.119  13.347  0.00  0.00    +0.000 A 
ATOM     17  N   UNL     1      47.579   5.097  14.151  0.00  0.00    +0.000 NA
ATOM     18  C   UNL     1      46.457   4.431  13.806  0.00  0.00    +0.000 A 
ATOM     19  C   UNL     1      45.680   4.736  12.696  0.00  0.00    +0.000 A 
ENDBRANCH  13  14
ENDBRANCH  12  13
ENDBRANCH   4  12
TORSDOF 5
ENDMDL
MODEL 5
REMARK VINA RESULT:    -5.981      1.990      6.461
REMARK INTER + INTRA:          -7.946
REMARK INTER:                  -7.612
REMARK INTRA:                  -0.334
REMARK UNBOUND:                -0.392
REMARK  Name = 
REMARK  5 active torsions:
REMARK  status: ('A' for Active; 'I' for Inactive)
REMARK    1  A    between atoms: N_1  and  C_2
REMARK    2  A    between atoms: C_2  and  C_3
REMARK    3  A    between atoms: C_6  and  C_7
REMARK    4  A    between atoms: C_7  and  C_8
REMARK    5  A    between atoms: C_8  and  C_9
REMARK                            x       y       z     vdW  Elec       q    Type
REMARK                         _______ _______ _______ _____ _____    ______ ____
ROOT
ATOM      1  C   UNL     1      46.542   2.536   7.255  0.00  0.00    +0.000 A 
ATOM      2  C   UNL     1      46.724   3.911   7.251  0.00  0.00    +0.000 A 
ATOM      3  N   UNL     1      46.177   4.753   8.161  0.00  0.00    +0.000 NA
ATOM      4  C   UNL     1      45.379   4.219   9.129  0.00  0.00    +0.000 A 
ATOM      5  C   UNL     1      45.152   2.844   9.217  0.00  0.00    +0.000 A 
ATOM      6 CL   UNL     1      44.111   2.125  10.387  0.00  0.00    +0.000 Cl
ATOM      7  C   UNL     1      45.760   2.004   8.284  0.00  0.00    +0.000 A 
ENDROOT
BRANCH   1   8
ATOM      8  C   UNL     1      47.145   1.656   6.199  0.00  0.00    +0.000 C 
BRANCH   8   9
ATOM      9  N   UNL     1      48.566   1.942   6.024  0.00  0.00    +0.000 NA
ATOM     10  H   UNL     1      49.110   1.376   6.672  0.00  0.00    +0.000 HD
ATOM     11  H   UNL     1      48.747   2.914   6.271  0.00  0.00    +0.000 HD
ENDBRANCH   8   9
ENDBRANCH   1   8
BRANCH   4  12
ATOM     12  C   UNL     1      44.720   5.228  10.048  0.00  0.00    +0.000 C 
BRANCH  12  13
ATOM     13  C   UNL     1      45.480   5.459  11.362  0.00  0.00    +0.000 C 
BRANCH  13  14
ATOM     14  C   UNL     1      45.587   6.900  11.816  0.00  0.00    +0.000 A 
ATOM     15  C   UNL     1      44.701   7.847  11.289  0.00  0.00    +0.000 A 
ATOM     16  C   UNL     1      44.765   9.158  11.744  0.00  0.00    +0.000 A 
ATOM     17  N   UNL     1      45.634   9.586  12.682  0.00  0.00    +0.000 NA
ATOM     18  C   UNL     1      46.472   8.659  13.188  0.00  0.00    +0.000 A 
ATOM     19  C   UNL     1      46.486   7.326  12.799  0.00  0.00    +0.000 A 
ENDBRANCH  13  14
ENDBRANCH  12  13
ENDBRANCH   4  12
TORSDOF 5
ENDMDL
MODEL 6
REMARK VINA RESULT:    -5.818      1.743      2.270
REMARK INTER + INTRA:          -7.741
REMARK INTER:                  -7.240
REMARK INTRA:                  -0.501
REMARK UNBOUND:                -0.392
REMARK  Name = 
REMARK  5 active torsions:
REMARK  status: ('A' for Active; 'I' for Inactive)
REMARK    1  A    between atoms: N_1  and  C_2
REMARK    2  A    between atoms: C_2  and  C_3
REMARK    3  A    between atoms: C_6  and  C_7
REMARK    4  A    between atoms: C_7  and  C_8
REMARK    5  A    between atoms: C_8  and  C_9
REMARK                            x       y       z     vdW  Elec       q    Type
REMARK                         _______ _______ _______ _____ _____    ______ ____
ROOT
ATOM      1  C   UNL     1      47.025   7.284  13.117  0.00  0.00    +0.000 A 
ATOM      2  C   UNL     1      45.854   7.674  12.483  0.00  0.00    +0.000 A 
ATOM      3  N   UNL     1      44.876   6.817  12.099  0.00  0.00    +0.000 NA
ATOM      4  C   UNL     1      45.063   5.486  12.330  0.00  0.00    +0.000 A 
ATOM      5  C   UNL     1      46.205   5.007  12.975  0.00  0.00    +0.000 A 
ATOM      6 CL   UNL     1      46.513   3.333  13.244  0.00  0.00    +0.000 Cl
ATOM      7  C   UNL     1      47.175   5.921  13.388  0.00  0.00    +0.000 A 
ENDROOT
BRANCH   1   8
ATOM      8  C   UNL     1      48.089   8.275  13.489  0.00  0.00    +0.000 C 
BRANCH   8   9
ATOM      9  N   UNL     1      47.504   9.539  13.923  0.00  0.00    +0.000 NA
ATOM     10  H   UNL     1      46.523   9.399  14.154  0.00  0.00    +0.000 HD
ATOM     11  H   UNL     1      47.524  10.203  13.150  0.00  0.00    +0.000 HD
ENDBRANCH   8   9
ENDBRANCH   1   8
BRANCH   4  12
ATOM     12  C   UNL     1      43.979   4.581  11.783  0.00  0.00    +0.000 C 
BRANCH  12  13
ATOM     13  C   UNL     1      43.754   4.724  10.271  0.00  0.00    +0.000 C 
BRANCH  13  14
ATOM     14  C   UNL     1      44.599   3.824   9.392  0.00  0.00    +0.000 A 
ATOM     15  C   UNL     1      45.405   4.400   8.403  0.00  0.00    +0.000 A 
ATOM     16  C   UNL     1      46.219   3.579   7.633  0.00  0.00    +0.000 A 
ATOM     17  N   UNL     1      46.293   2.241   7.782  0.00  0.00    +0.000 NA
ATOM     18  C   UNL     1      45.519   1.704   8.747  0.00  0.00    +0.000 A 
ATOM     19  C   UNL     1      44.674   2.438   9.568  0.00  0.00    +0.000 A 
ENDBRANCH  13  14
ENDBRANCH  12  13
ENDBRANCH   4  12
TORSDOF 5
ENDMDL
MODEL 7
REMARK VINA RESULT:    -5.745      1.510      1.808
REMARK INTER + INTRA:          -7.649
REMARK INTER:                  -7.616
REMARK INTRA:                  -0.033
REMARK UNBOUND:                -0.392
REMARK  Name = 
REMARK  5 active torsions:
REMARK  status: ('A' for Active; 'I' for Inactive)
REMARK    1  A    between atoms: N_1  and  C_2
REMARK    2  A    between atoms: C_2  and  C_3
REMARK    3  A    between atoms: C_6  and  C_7
REMARK    4  A    between atoms: C_7  and  C_8
REMARK    5  A    between atoms: C_8  and  C_9
REMARK                            x       y       z     vdW  Elec       q    Type
REMARK                         _______ _______ _______ _____ _____    ______ ____
ROOT
ATOM      1  C   UNL     1      46.753   4.780  14.188  0.00  0.00    +0.000 A 
ATOM      2  C   UNL     1      47.358   5.556  13.210  0.00  0.00    +0.000 A 
ATOM      3  N   UNL     1      46.778   5.880  12.028  0.00  0.00    +0.000 NA
ATOM      4  C   UNL     1      45.530   5.394  11.773  0.00  0.00    +0.000 A 
ATOM      5  C   UNL     1      44.841   4.616  12.706  0.00  0.00    +0.000 A 
ATOM      6 CL   UNL     1      43.284   3.935  12.413  0.00  0.00    +0.000 Cl
ATOM      7  C   UNL     1      45.454   4.333  13.927  0.00  0.00    +0.000 A 
ENDROOT
BRANCH   1   8
ATOM      8  C   UNL     1      47.458   4.425  15.464  0.00  0.00    +0.000 C 
BRANCH   8   9
ATOM      9  N   UNL     1      47.890   3.031  15.457  0.00  0.00    +0.000 NA
ATOM     10  H   UNL     1      48.311   2.809  14.558  0.00  0.00    +0.000 HD
ATOM     11  H   UNL     1      47.075   2.425  15.548  0.00  0.00    +0.000 HD
ENDBRANCH   8   9
ENDBRANCH   1   8
BRANCH   4  12
ATOM     12  C   UNL     1      44.986   5.709  10.395  0.00  0.00    +0.000 C 
BRANCH  12  13
ATOM     13  C   UNL     1      44.270   4.528   9.725  0.00  0.00    +0.000 C 
BRANCH  13  14
ATOM     14  C   UNL     1      45.145   3.616   8.888  0.00  0.00    +0.000 A 
ATOM     15  C   UNL     1      45.996   4.181   7.930  0.00  0.00    +0.000 A 
ATOM     16  C   UNL     1      46.835   3.349   7.200  0.00  0.00    +0.000 A 
ATOM     17  N   UNL     1      46.894   2.012   7.360  0.00  0.00    +0.000 NA
ATOM     18  C   UNL     1      46.077   1.486   8.296  0.00  0.00    +0.000 A 
ATOM     19  C   UNL     1      45.203   2.232   9.076  0.00  0.00    +0.000 A 
ENDBRANCH  13  14
ENDBRANCH  12  13
ENDBRANCH   4  12
TORSDOF 5
ENDMDL
MODEL 8
REMARK VINA RESULT:    -5.331      3.544      7.633
REMARK INTER + INTRA:          -7.125
REMARK INTER:                  -6.838
REMARK INTRA:                  -0.287
REMARK UNBOUND:                -0.392
REMARK  Name = 
REMARK  5 active torsions:
REMARK  status: ('A' for Active; 'I' for Inactive)
REMARK    1  A    between atoms: N_1  and  C_2
REMARK    2  A    between atoms: C_2  and  C_3
REMARK    3  A    between atoms: C_6  and  C_7
REMARK    4  A    between atoms: C_7  and  C_8
REMARK    5  A    between atoms: C_8  and  C_9
REMARK                            x       y       z     vdW  Elec       q    Type
REMARK                         _______ _______ _______ _____ _____    ______ ____
ROOT
ATOM      1  C   UNL     1      44.919   4.482  10.768  0.00  0.00    +0.000 A 
ATOM      2  C   UNL     1      44.923   3.655  11.882  0.00  0.00    +0.000 A 
ATOM      3  N   UNL     1      45.598   3.925  13.026  0.00  0.00    +0.000 NA
ATOM      4  C   UNL     1      46.338   5.069  13.079  0.00  0.00    +0.000 A 
ATOM      5  C   UNL     1      46.380   5.965  12.010  0.00  0.00    +0.000 A 
ATOM      6 CL   UNL     1      47.340   7.397  12.006  0.00  0.00    +0.000 Cl
ATOM      7  C   UNL     1      45.644   5.673  10.860  0.00  0.00    +0.000 A 
ENDROOT
BRANCH   1   8
ATOM      8  C   UNL     1      44.180   4.115   9.514  0.00  0.00    +0.000 C 
BRANCH   8   9
ATOM      9  N   UNL     1      44.953   4.462   8.326  0.00  0.00    +0.000 NA
ATOM     10  H   UNL     1      44.493   5.222   7.829  0.00  0.00    +0.000 HD
ATOM     11  H   UNL     1      44.962   3.668   7.686  0.00  0.00    +0.000 HD
ENDBRANCH   8   9
ENDBRANCH   1   8
BRANCH   4  12
ATOM     12  C   UNL     1      47.146   5.253  14.347  0.00  0.00    +0.000 C 
BRANCH  12  13
ATOM     13  C   UNL     1      47.152   4.021  15.263  0.00  0.00    +0.000 C 
BRANCH  13  14
ATOM     14  C   UNL     1      47.847   4.197  16.598  0.00  0.00    +0.000 A 
ATOM     15  C   UNL     1      47.739   3.186  17.561  0.00  0.00    +0.000 A 
ATOM     16  C   UNL     1      48.418   3.325  18.764  0.00  0.00    +0.000 A 
ATOM     17  N   UNL     1      49.195   4.383  19.071  0.00  0.00    +0.000 NA
ATOM     18  C   UNL     1      49.299   5.342  18.128  0.00  0.00    +0.000 A 
ATOM     19  C   UNL     1      48.660   5.295  16.896  0.00  0.00    +0.000 A 
ENDBRANCH  13  14
ENDBRANCH  12  13
ENDBRANCH   4  12
TORSDOF 5
ENDMDL
MODEL 9
REMARK VINA RESULT:    -5.287      2.373      5.982
REMARK INTER + INTRA:          -7.070
REMARK INTER:                  -6.663
REMARK INTRA:                  -0.406
REMARK UNBOUND:                -0.392
REMARK  Name = 
REMARK  5 active torsions:
REMARK  status: ('A' for Active; 'I' for Inactive)
REMARK    1  A    between atoms: N_1  and  C_2
REMARK    2  A    between atoms: C_2  and  C_3
REMARK    3  A    between atoms: C_6  and  C_7
REMARK    4  A    between atoms: C_7  and  C_8
REMARK    5  A    between atoms: C_8  and  C_9
REMARK                            x       y       z     vdW  Elec       q    Type
REMARK                         _______ _______ _______ _____ _____    ______ ____
ROOT
ATOM      1  C   UNL     1      44.628   3.152   9.807  0.00  0.00    +0.000 A 
ATOM      2  C   UNL     1      45.370   4.215   9.314  0.00  0.00    +0.000 A 
ATOM      3  N   UNL     1      45.429   5.437   9.898  0.00  0.00    +0.000 NA
ATOM      4  C   UNL     1      44.696   5.642  11.030  0.00  0.00    +0.000 A 
ATOM      5  C   UNL     1      43.933   4.624  11.603  0.00  0.00    +0.000 A 
ATOM      6 CL   UNL     1      42.949   4.846  13.001  0.00  0.00    +0.000 Cl
ATOM      7  C   UNL     1      43.923   3.369  10.995  0.00  0.00    +0.000 A 
ENDROOT
BRANCH   1   8
ATOM      8  C   UNL     1      44.573   1.830   9.098  0.00  0.00    +0.000 C 
BRANCH   8   9
ATOM      9  N   UNL     1      45.887   1.450   8.590  0.00  0.00    +0.000 NA
ATOM     10  H   UNL     1      45.782   0.967   7.700  0.00  0.00    +0.000 HD
ATOM     11  H   UNL     1      46.315   0.780   9.229  0.00  0.00    +0.000 HD
ENDBRANCH   8   9
ENDBRANCH   1   8
BRANCH   4  12
ATOM     12  C   UNL     1      44.729   7.057  11.569  0.00  0.00    +0.000 C 
BRANCH  12  13
ATOM     13  C   UNL     1      45.792   7.283  12.654  0.00  0.00    +0.000 C 
BRANCH  13  14
ATOM     14  C   UNL     1      47.047   8.005  12.207  0.00  0.00    +0.000 A 
ATOM     15  C   UNL     1      47.046   9.404  12.157  0.00  0.00    +0.000 A 
ATOM     16  C   UNL     1      48.213  10.066  11.797  0.00  0.00    +0.000 A 
ATOM     17  N   UNL     1      49.369   9.442  11.495  0.00  0.00    +0.000 NA
ATOM     18  C   UNL     1      49.356   8.095  11.561  0.00  0.00    +0.000 A 
ATOM     19  C   UNL     1      48.242   7.342  11.910  0.00  0.00    +0.000 A 
ENDBRANCH  13  14
ENDBRANCH  12  13
ENDBRANCH   4  12
TORSDOF 5
ENDMDL
