MODEL 1
REMARK VINA RESULT:    -8.234      0.000      0.000
REMARK INTER + INTRA:         -12.134
REMARK INTER:                 -11.122
REMARK INTRA:                  -1.012
REMARK UNBOUND:                -1.012
REMARK  Name = 
REMARK  8 active torsions:
REMARK  status: ('A' for Active; 'I' for Inactive)
REMARK    1  A    between atoms: C_1  and  C_2
REMARK    2  A    between atoms: C_2  and  C_3
REMARK    3  A    between atoms: C_2  and  C_4
REMARK    4  A    between atoms: C_2  and  C_15
REMARK    5  A    between atoms: C_4  and  O_5
REMARK    6  A    between atoms: O_5  and  C_6
REMARK    7  A    between atoms: C_9  and  C_10
REMARK    8  A    between atoms: C_20  and  C_21
REMARK                            x       y       z     vdW  Elec       q    Type
REMARK                         _______ _______ _______ _____ _____    ______ ____
ROOT
ATOM      1  C   UNL     1      42.772   5.429  12.887  0.00  0.00    +0.000 C 
ATOM      2  C   UNL     1      43.936   4.680  12.200  0.00  0.00    +0.000 C 
ATOM      3  C   UNL     1      43.881   3.187  12.604  0.00  0.00    +0.000 C 
ENDROOT
BRANCH   2   4
ATOM      4  C   UNL     1      45.272   5.294  12.670  0.00  0.00    +0.000 A 
ATOM      5  C   UNL     1      46.121   4.565  13.517  0.00  0.00    +0.000 A 
ATOM      6  C   UNL     1      47.302   5.120  14.017  0.00  0.00    +0.000 A 
ATOM      7  C   UNL     1      47.673   6.427  13.687  0.00  0.00    +0.000 A 
ATOM      8 CL   UNL     1      49.130   7.013  14.396  0.00  0.00    +0.000 Cl
ATOM      9  C   UNL     1      46.872   7.181  12.832  0.00  0.00    +0.000 A 
ATOM     10  C   UNL     1      45.686   6.593  12.326  0.00  0.00    +0.000 A 
BRANCH   9  11
ATOM     11  C   UNL     1      47.170   8.596  12.403  0.00  0.00    +0.000 C 
ATOM     12  F   UNL     1      47.426   9.493  13.388  0.00  0.00    +0.000 F 
ATOM     13  F   UNL     1      48.250   8.651  11.569  0.00  0.00    +0.000 F 
ATOM     14  F   UNL     1      46.138   9.133  11.687  0.00  0.00    +0.000 F 
ENDBRANCH   9  11
ENDBRANCH   2   4
BRANCH   2  15
ATOM     15  C   UNL     1      43.703   4.720  10.659  0.00  0.00    +0.000 C 
BRANCH  15  16
ATOM     16  O   UNL     1      43.621   3.400  10.106  0.00  0.00    +0.000 OA
BRANCH  16  17
ATOM     17  C   UNL     1      44.608   3.045   9.231  0.00  0.00    +0.000 A 
ATOM     18  C   UNL     1      45.155   1.772   9.087  0.00  0.00    +0.000 A 
ATOM     19  C   UNL     1      46.138   1.546   8.126  0.00  0.00    +0.000 A 
ATOM     20  C   UNL     1      46.547   2.613   7.334  0.00  0.00    +0.000 A 
ATOM     21  N   UNL     1      46.052   3.876   7.453  0.00  0.00    +0.000 NA
ATOM     22  C   UNL     1      45.098   4.052   8.402  0.00  0.00    +0.000 A 
BRANCH  20  23
ATOM     23  C   UNL     1      47.569   2.380   6.268  0.00  0.00    +0.000 C 
ATOM     24  N   UNL     1      47.502   3.224   5.194  0.00  0.00    +0.000 N 
ATOM     25  O   UNL     1      48.409   1.492   6.340  0.00  0.00    +0.000 OA
ATOM     26  H   UNL     1      46.785   3.940   5.164  0.00  0.00    +0.000 HD
ATOM     27  H   UNL     1      48.149   3.109   4.428  0.00  0.00    +0.000 HD
ENDBRANCH  20  23
ENDBRANCH  16  17
ENDBRANCH  15  16
ENDBRANCH   2  15
TORSDOF 6
ENDMDL
MODEL 2
REMARK VINA RESULT:    -7.821      1.243      1.773
REMARK INTER + INTRA:         -11.576
REMARK INTER:                 -10.554
REMARK INTRA:                  -1.023
REMARK UNBOUND:                -1.012
REMARK  Name = 
REMARK  8 active torsions:
REMARK  status: ('A' for Active; 'I' for Inactive)
REMARK    1  A    between atoms: C_1  and  C_2
REMARK    2  A    between atoms: C_2  and  C_3
REMARK    3  A    between atoms: C_2  and  C_4
REMARK    4  A    between atoms: C_2  and  C_15
REMARK    5  A    between atoms: C_4  and  O_5
REMARK    6  A    between atoms: O_5  and  C_6
REMARK    7  A    between atoms: C_9  and  C_10
REMARK    8  A    between atoms: C_20  and  C_21
REMARK                            x       y       z     vdW  Elec       q    Type
REMARK                         _______ _______ _______ _____ _____    ______ ____
ROOT
ATOM      1  C   UNL     1      42.582   5.204  11.345  0.00  0.00    +0.000 C 
ATOM      2  C   UNL     1      43.699   4.644  12.255  0.00  0.00    +0.000 C 
ATOM      3  C   UNL     1      43.102   4.335  13.650  0.00  0.00    +0.000 C 
ENDROOT
BRANCH   2   4
ATOM      4  C   UNL     1      44.812   5.704  12.391  0.00  0.00    +0.000 A 
ATOM      5  C   UNL     1      46.035   5.366  12.992  0.00  0.00    +0.000 A 
ATOM      6  C   UNL     1      47.033   6.322  13.195  0.00  0.00    +0.000 A 
ATOM      7  C   UNL     1      46.842   7.650  12.805  0.00  0.00    +0.000 A 
ATOM      8 CL   UNL     1      48.131   8.743  13.143  0.00  0.00    +0.000 Cl
ATOM      9  C   UNL     1      45.652   8.027  12.184  0.00  0.00    +0.000 A 
ATOM     10  C   UNL     1      44.658   7.039  11.977  0.00  0.00    +0.000 A 
BRANCH   9  11
ATOM     11  C   UNL     1      45.334   9.426  11.717  0.00  0.00    +0.000 C 
ATOM     12  F   UNL     1      46.382  10.196  11.333  0.00  0.00    +0.000 F 
ATOM     13  F   UNL     1      44.478   9.416  10.653  0.00  0.00    +0.000 F 
ATOM     14  F   UNL     1      44.694  10.146  12.685  0.00  0.00    +0.000 F 
ENDBRANCH   9  11
ENDBRANCH   2   4
BRANCH   2  15
ATOM     15  C   UNL     1      44.165   3.275  11.673  0.00  0.00    +0.000 C 
BRANCH  15  16
ATOM     16  O   UNL     1      43.652   3.064  10.351  0.00  0.00    +0.000 OA
BRANCH  16  17
ATOM     17  C   UNL     1      44.573   2.995   9.344  0.00  0.00    +0.000 A 
ATOM     18  C   UNL     1      44.996   4.056   8.548  0.00  0.00    +0.000 A 
ATOM     19  C   UNL     1      45.972   3.845   7.576  0.00  0.00    +0.000 A 
ATOM     20  C   UNL     1      46.495   2.565   7.430  0.00  0.00    +0.000 A 
ATOM     21  N   UNL     1      46.099   1.497   8.176  0.00  0.00    +0.000 NA
ATOM     22  C   UNL     1      45.145   1.746   9.109  0.00  0.00    +0.000 A 
BRANCH  20  23
ATOM     23  C   UNL     1      47.575   2.329   6.422  0.00  0.00    +0.000 C 
ATOM     24  N   UNL     1      47.587   3.190   5.360  0.00  0.00    +0.000 N 
ATOM     25  O   UNL     1      48.392   1.423   6.529  0.00  0.00    +0.000 OA
ATOM     26  H   UNL     1      46.886   3.920   5.300  0.00  0.00    +0.000 HD
ATOM     27  H   UNL     1      48.276   3.075   4.633  0.00  0.00    +0.000 HD
ENDBRANCH  20  23
ENDBRANCH  16  17
ENDBRANCH  15  16
ENDBRANCH   2  15
TORSDOF 6
ENDMDL
MODEL 3
REMARK VINA RESULT:    -7.780      1.550      2.059
REMARK INTER + INTRA:         -11.521
REMARK INTER:                 -10.485
REMARK INTRA:                  -1.036
REMARK UNBOUND:                -1.012
REMARK  Name = 
REMARK  8 active torsions:
REMARK  status: ('A' for Active; 'I' for Inactive)
REMARK    1  A    between atoms: C_1  and  C_2
REMARK    2  A    between atoms: C_2  and  C_3
REMARK    3  A    between atoms: C_2  and  C_4
REMARK    4  A    between atoms: C_2  and  C_15
REMARK    5  A    between atoms: C_4  and  O_5
REMARK    6  A    between atoms: O_5  and  C_6
REMARK    7  A    between atoms: C_9  and  C_10
REMARK    8  A    between atoms: C_20  and  C_21
REMARK                            x       y       z     vdW  Elec       q    Type
REMARK                         _______ _______ _______ _____ _____    ______ ____
ROOT
ATOM      1  C   UNL     1      43.250   4.376  13.465  0.00  0.00    +0.000 C 
ATOM      2  C   UNL     1      44.234   4.378  12.273  0.00  0.00    +0.000 C 
ATOM      3  C   UNL     1      45.292   3.270  12.494  0.00  0.00    +0.000 C 
ENDROOT
BRANCH   2   4
ATOM      4  C   UNL     1      44.933   5.752  12.203  0.00  0.00    +0.000 A 
ATOM      5  C   UNL     1      44.189   6.905  11.903  0.00  0.00    +0.000 A 
ATOM      6  C   UNL     1      44.804   8.151  11.762  0.00  0.00    +0.000 A 
ATOM      7  C   UNL     1      46.187   8.287  11.913  0.00  0.00    +0.000 A 
ATOM      8 CL   UNL     1      46.833   9.867  11.676  0.00  0.00    +0.000 Cl
ATOM      9  C   UNL     1      46.963   7.175  12.232  0.00  0.00    +0.000 A 
ATOM     10  C   UNL     1      46.317   5.922  12.383  0.00  0.00    +0.000 A 
BRANCH   9  11
ATOM     11  C   UNL     1      48.459   7.199  12.422  0.00  0.00    +0.000 C 
ATOM     12  F   UNL     1      49.057   6.018  12.722  0.00  0.00    +0.000 F 
ATOM     13  F   UNL     1      49.100   7.659  11.307  0.00  0.00    +0.000 F 
ATOM     14  F   UNL     1      48.826   8.052  13.424  0.00  0.00    +0.000 F 
ENDBRANCH   9  11
ENDBRANCH   2   4
BRANCH   2  15
ATOM     15  C   UNL     1      43.448   3.975  10.988  0.00  0.00    +0.000 C 
BRANCH  15  16
ATOM     16  O   UNL     1      43.949   4.657   9.831  0.00  0.00    +0.000 OA
BRANCH  16  17
ATOM     17  C   UNL     1      44.852   3.975   9.066  0.00  0.00    +0.000 A 
ATOM     18  C   UNL     1      44.953   2.590   8.958  0.00  0.00    +0.000 A 
ATOM     19  C   UNL     1      45.906   2.030   8.110  0.00  0.00    +0.000 A 
ATOM     20  C   UNL     1      46.738   2.884   7.394  0.00  0.00    +0.000 A 
ATOM     21  N   UNL     1      46.685   4.242   7.483  0.00  0.00    +0.000 NA
ATOM     22  C   UNL     1      45.743   4.745   8.321  0.00  0.00    +0.000 A 
BRANCH  20  23
ATOM     23  C   UNL     1      47.738   2.302   6.446  0.00  0.00    +0.000 C 
ATOM     24  N   UNL     1      47.872   2.961   5.255  0.00  0.00    +0.000 N 
ATOM     25  O   UNL     1      48.391   1.301   6.707  0.00  0.00    +0.000 OA
ATOM     26  H   UNL     1      47.304   3.780   5.069  0.00  0.00    +0.000 HD
ATOM     27  H   UNL     1      48.514   2.611   4.561  0.00  0.00    +0.000 HD
ENDBRANCH  20  23
ENDBRANCH  16  17
ENDBRANCH  15  16
ENDBRANCH   2  15
TORSDOF 6
ENDMDL
MODEL 4
REMARK VINA RESULT:    -7.186      4.635      6.907
REMARK INTER + INTRA:         -10.718
REMARK INTER:                  -9.633
REMARK INTRA:                  -1.085
REMARK UNBOUND:                -1.012
REMARK  Name = 
REMARK  8 active torsions:
REMARK  status: ('A' for Active; 'I' for Inactive)
REMARK    1  A    between atoms: C_1  and  C_2
REMARK    2  A    between atoms: C_2  and  C_3
REMARK    3  A    between atoms: C_2  and  C_4
REMARK    4  A    between atoms: C_2  and  C_15
REMARK    5  A    between atoms: C_4  and  O_5
REMARK    6  A    between atoms: O_5  and  C_6
REMARK    7  A    between atoms: C_9  and  C_10
REMARK    8  A    between atoms: C_20  and  C_21
REMARK                            x       y       z     vdW  Elec       q    Type
REMARK                         _______ _______ _______ _____ _____    ______ ____
ROOT
ATOM      1  C   UNL     1      42.739   6.262  11.432  0.00  0.00    +0.000 C 
ATOM      2  C   UNL     1      44.257   5.970  11.451  0.00  0.00    +0.000 C 
ATOM      3  C   UNL     1      45.010   7.186  10.859  0.00  0.00    +0.000 C 
ENDROOT
BRANCH   2   4
ATOM      4  C   UNL     1      44.537   4.720  10.590  0.00  0.00    +0.000 A 
ATOM      5  C   UNL     1      43.991   3.479  10.953  0.00  0.00    +0.000 A 
ATOM      6  C   UNL     1      44.284   2.317  10.235  0.00  0.00    +0.000 A 
ATOM      7  C   UNL     1      45.136   2.356   9.128  0.00  0.00    +0.000 A 
ATOM      8 CL   UNL     1      45.452   0.852   8.348  0.00  0.00    +0.000 Cl
ATOM      9  C   UNL     1      45.685   3.570   8.717  0.00  0.00    +0.000 A 
ATOM     10  C   UNL     1      45.363   4.738   9.452  0.00  0.00    +0.000 A 
BRANCH   9  11
ATOM     11  C   UNL     1      46.612   3.737   7.539  0.00  0.00    +0.000 C 
ATOM     12  F   UNL     1      47.645   2.863   7.444  0.00  0.00    +0.000 F 
ATOM     13  F   UNL     1      45.940   3.638   6.354  0.00  0.00    +0.000 F 
ATOM     14  F   UNL     1      47.187   4.976   7.522  0.00  0.00    +0.000 F 
ENDBRANCH   9  11
ENDBRANCH   2   4
BRANCH   2  15
ATOM     15  C   UNL     1      44.717   5.858  12.936  0.00  0.00    +0.000 C 
BRANCH  15  16
ATOM     16  O   UNL     1      46.119   6.118  13.074  0.00  0.00    +0.000 OA
BRANCH  16  17
ATOM     17  C   UNL     1      46.795   5.351  13.980  0.00  0.00    +0.000 A 
ATOM     18  C   UNL     1      47.462   5.817  15.110  0.00  0.00    +0.000 A 
ATOM     19  C   UNL     1      48.083   4.912  15.969  0.00  0.00    +0.000 A 
ATOM     20  C   UNL     1      48.018   3.557  15.661  0.00  0.00    +0.000 A 
ATOM     21  N   UNL     1      47.392   3.061  14.559  0.00  0.00    +0.000 NA
ATOM     22  C   UNL     1      46.801   3.977  13.749  0.00  0.00    +0.000 A 
BRANCH  20  23
ATOM     23  C   UNL     1      48.641   2.567  16.594  0.00  0.00    +0.000 C 
ATOM     24  N   UNL     1      48.367   2.755  17.920  0.00  0.00    +0.000 N 
ATOM     25  O   UNL     1      49.355   1.652  16.205  0.00  0.00    +0.000 OA
ATOM     26  H   UNL     1      47.782   3.532  18.205  0.00  0.00    +0.000 HD
ATOM     27  H   UNL     1      48.772   2.135  18.605  0.00  0.00    +0.000 HD
ENDBRANCH  20  23
ENDBRANCH  16  17
ENDBRANCH  15  16
ENDBRANCH   2  15
TORSDOF 6
ENDMDL
MODEL 5
REMARK VINA RESULT:    -7.062      5.008      7.380
REMARK INTER + INTRA:         -10.551
REMARK INTER:                  -9.253
REMARK INTRA:                  -1.297
REMARK UNBOUND:                -1.012
REMARK  Name = 
REMARK  8 active torsions:
REMARK  status: ('A' for Active; 'I' for Inactive)
REMARK    1  A    between atoms: C_1  and  C_2
REMARK    2  A    between atoms: C_2  and  C_3
REMARK    3  A    between atoms: C_2  and  C_4
REMARK    4  A    between atoms: C_2  and  C_15
REMARK    5  A    between atoms: C_4  and  O_5
REMARK    6  A    between atoms: O_5  and  C_6
REMARK    7  A    between atoms: C_9  and  C_10
REMARK    8  A    between atoms: C_20  and  C_21
REMARK                            x       y       z     vdW  Elec       q    Type
REMARK                         _______ _______ _______ _____ _____    ______ ____
ROOT
ATOM      1  C   UNL     1      46.594   9.438  11.791  0.00  0.00    +0.000 C 
ATOM      2  C   UNL     1      47.142   8.060  12.230  0.00  0.00    +0.000 C 
ATOM      3  C   UNL     1      48.429   7.752  11.427  0.00  0.00    +0.000 C 
ENDROOT
BRANCH   2   4
ATOM      4  C   UNL     1      46.078   6.982  11.936  0.00  0.00    +0.000 A 
ATOM      5  C   UNL     1      45.085   6.696  12.886  0.00  0.00    +0.000 A 
ATOM      6  C   UNL     1      44.153   5.677  12.679  0.00  0.00    +0.000 A 
ATOM      7  C   UNL     1      44.183   4.905  11.514  0.00  0.00    +0.000 A 
ATOM      8 CL   UNL     1      43.006   3.652  11.391  0.00  0.00    +0.000 Cl
ATOM      9  C   UNL     1      45.138   5.167  10.533  0.00  0.00    +0.000 A 
ATOM     10  C   UNL     1      46.065   6.215  10.758  0.00  0.00    +0.000 A 
BRANCH   9  11
ATOM     11  C   UNL     1      45.267   4.407   9.236  0.00  0.00    +0.000 C 
ATOM     12  F   UNL     1      46.252   4.801   8.391  0.00  0.00    +0.000 F 
ATOM     13  F   UNL     1      45.484   3.076   9.455  0.00  0.00    +0.000 F 
ATOM     14  F   UNL     1      44.117   4.465   8.502  0.00  0.00    +0.000 F 
ENDBRANCH   9  11
ENDBRANCH   2   4
BRANCH   2  15
ATOM     15  C   UNL     1      47.578   8.161  13.724  0.00  0.00    +0.000 C 
BRANCH  15  16
ATOM     16  O   UNL     1      48.600   7.207  14.038  0.00  0.00    +0.000 OA
BRANCH  16  17
ATOM     17  C   UNL     1      48.253   6.204  14.898  0.00  0.00    +0.000 A 
ATOM     18  C   UNL     1      47.447   5.109  14.595  0.00  0.00    +0.000 A 
ATOM     19  C   UNL     1      47.203   4.140  15.567  0.00  0.00    +0.000 A 
ATOM     20  C   UNL     1      47.778   4.303  16.822  0.00  0.00    +0.000 A 
ATOM     21  N   UNL     1      48.558   5.365  17.165  0.00  0.00    +0.000 NA
ATOM     22  C   UNL     1      48.768   6.286  16.190  0.00  0.00    +0.000 A 
BRANCH  20  23
ATOM     23  C   UNL     1      47.563   3.252  17.864  0.00  0.00    +0.000 C 
ATOM     24  N   UNL     1      48.439   3.276  18.914  0.00  0.00    +0.000 N 
ATOM     25  O   UNL     1      46.671   2.417  17.787  0.00  0.00    +0.000 OA
ATOM     26  H   UNL     1      49.173   3.975  18.937  0.00  0.00    +0.000 HD
ATOM     27  H   UNL     1      48.364   2.582  19.642  0.00  0.00    +0.000 HD
ENDBRANCH  20  23
ENDBRANCH  16  17
ENDBRANCH  15  16
ENDBRANCH   2  15
TORSDOF 6
ENDMDL
MODEL 6
REMARK VINA RESULT:    -6.804      4.229      6.258
REMARK INTER + INTRA:         -10.203
REMARK INTER:                  -9.039
REMARK INTRA:                  -1.164
REMARK UNBOUND:                -1.012
REMARK  Name = 
REMARK  8 active torsions:
REMARK  status: ('A' for Active; 'I' for Inactive)
REMARK    1  A    between atoms: C_1  and  C_2
REMARK    2  A    between atoms: C_2  and  C_3
REMARK    3  A    between atoms: C_2  and  C_4
REMARK    4  A    between atoms: C_2  and  C_15
REMARK    5  A    between atoms: C_4  and  O_5
REMARK    6  A    between atoms: O_5  and  C_6
REMARK    7  A    between atoms: C_9  and  C_10
REMARK    8  A    between atoms: C_20  and  C_21
REMARK                            x       y       z     vdW  Elec       q    Type
REMARK                         _______ _______ _______ _____ _____    ______ ____
ROOT
ATOM      1  C   UNL     1      50.421   7.759  14.618  0.00  0.00    +0.000 C 
ATOM      2  C   UNL     1      48.920   7.464  14.839  0.00  0.00    +0.000 C 
ATOM      3  C   UNL     1      48.165   8.804  15.008  0.00  0.00    +0.000 C 
ENDROOT
BRANCH   2   4
ATOM      4  C   UNL     1      48.759   6.615  16.117  0.00  0.00    +0.000 A 
ATOM      5  C   UNL     1      48.987   7.190  17.377  0.00  0.00    +0.000 A 
ATOM      6  C   UNL     1      48.920   6.430  18.547  0.00  0.00    +0.000 A 
ATOM      7  C   UNL     1      48.625   5.065  18.497  0.00  0.00    +0.000 A 
ATOM      8 CL   UNL     1      48.609   4.226  20.002  0.00  0.00    +0.000 Cl
ATOM      9  C   UNL     1      48.370   4.454  17.270  0.00  0.00    +0.000 A 
ATOM     10  C   UNL     1      48.430   5.248  16.097  0.00  0.00    +0.000 A 
BRANCH   9  11
ATOM     11  C   UNL     1      48.038   2.994  17.090  0.00  0.00    +0.000 C 
ATOM     12  F   UNL     1      46.942   2.531  17.743  0.00  0.00    +0.000 F 
ATOM     13  F   UNL     1      47.838   2.683  15.776  0.00  0.00    +0.000 F 
ATOM     14  F   UNL     1      49.065   2.191  17.496  0.00  0.00    +0.000 F 
ENDBRANCH   9  11
ENDBRANCH   2   4
BRANCH   2  15
ATOM     15  C   UNL     1      48.353   6.810  13.542  0.00  0.00    +0.000 C 
BRANCH  15  16
ATOM     16  O   UNL     1      46.957   7.091  13.378  0.00  0.00    +0.000 OA
BRANCH  16  17
ATOM     17  C   UNL     1      46.217   6.141  12.734  0.00  0.00    +0.000 A 
ATOM     18  C   UNL     1      45.874   6.148  11.384  0.00  0.00    +0.000 A 
ATOM     19  C   UNL     1      45.138   5.090  10.852  0.00  0.00    +0.000 A 
ATOM     20  C   UNL     1      44.763   4.053  11.699  0.00  0.00    +0.000 A 
ATOM     21  N   UNL     1      45.062   4.015  13.027  0.00  0.00    +0.000 NA
ATOM     22  C   UNL     1      45.779   5.065  13.503  0.00  0.00    +0.000 A 
BRANCH  20  23
ATOM     23  C   UNL     1      44.011   2.889  11.137  0.00  0.00    +0.000 C 
ATOM     24  N   UNL     1      44.563   2.312  10.027  0.00  0.00    +0.000 N 
ATOM     25  O   UNL     1      42.967   2.478  11.628  0.00  0.00    +0.000 OA
ATOM     26  H   UNL     1      45.422   2.688   9.642  0.00  0.00    +0.000 HD
ATOM     27  H   UNL     1      44.096   1.535   9.585  0.00  0.00    +0.000 HD
ENDBRANCH  20  23
ENDBRANCH  16  17
ENDBRANCH  15  16
ENDBRANCH   2  15
TORSDOF 6
ENDMDL
MODEL 7
REMARK VINA RESULT:    -6.270      5.203      7.058
REMARK INTER + INTRA:          -9.482
REMARK INTER:                  -8.506
REMARK INTRA:                  -0.975
REMARK UNBOUND:                -1.012
REMARK  Name = 
REMARK  8 active torsions:
REMARK  status: ('A' for Active; 'I' for Inactive)
REMARK    1  A    between atoms: C_1  and  C_2
REMARK    2  A    between atoms: C_2  and  C_3
REMARK    3  A    between atoms: C_2  and  C_4
REMARK    4  A    between atoms: C_2  and  C_15
REMARK    5  A    between atoms: C_4  and  O_5
REMARK    6  A    between atoms: O_5  and  C_6
REMARK    7  A    between atoms: C_9  and  C_10
REMARK    8  A    between atoms: C_20  and  C_21
REMARK                            x       y       z     vdW  Elec       q    Type
REMARK                         _______ _______ _______ _____ _____    ______ ____
ROOT
ATOM      1  C   UNL     1      47.909   5.415  18.296  0.00  0.00    +0.000 C 
ATOM      2  C   UNL     1      48.076   4.373  17.166  0.00  0.00    +0.000 C 
ATOM      3  C   UNL     1      46.995   3.277  17.329  0.00  0.00    +0.000 C 
ENDROOT
BRANCH   2   4
ATOM      4  C   UNL     1      49.478   3.737  17.275  0.00  0.00    +0.000 A 
ATOM      5  C   UNL     1      49.635   2.350  17.123  0.00  0.00    +0.000 A 
ATOM      6  C   UNL     1      50.879   1.737  17.289  0.00  0.00    +0.000 A 
ATOM      7  C   UNL     1      52.011   2.490  17.614  0.00  0.00    +0.000 A 
ATOM      8 CL   UNL     1      53.480   1.615  17.829  0.00  0.00    +0.000 Cl
ATOM      9  C   UNL     1      51.907   3.873  17.753  0.00  0.00    +0.000 A 
ATOM     10  C   UNL     1      50.638   4.476  17.569  0.00  0.00    +0.000 A 
BRANCH   9  11
ATOM     11  C   UNL     1      53.055   4.788  18.098  0.00  0.00    +0.000 C 
ATOM     12  F   UNL     1      54.122   4.774  17.260  0.00  0.00    +0.000 F 
ATOM     13  F   UNL     1      52.656   6.093  18.157  0.00  0.00    +0.000 F 
ATOM     14  F   UNL     1      53.565   4.513  19.335  0.00  0.00    +0.000 F 
ENDBRANCH   9  11
ENDBRANCH   2   4
BRANCH   2  15
ATOM     15  C   UNL     1      47.779   5.074  15.805  0.00  0.00    +0.000 C 
BRANCH  15  16
ATOM     16  O   UNL     1      47.759   4.134  14.723  0.00  0.00    +0.000 OA
BRANCH  16  17
ATOM     17  C   UNL     1      46.744   4.270  13.818  0.00  0.00    +0.000 A 
ATOM     18  C   UNL     1      46.185   3.246  13.058  0.00  0.00    +0.000 A 
ATOM     19  C   UNL     1      45.127   3.526  12.194  0.00  0.00    +0.000 A 
ATOM     20  C   UNL     1      44.663   4.834  12.118  0.00  0.00    +0.000 A 
ATOM     21  N   UNL     1      45.191   5.867  12.831  0.00  0.00    +0.000 NA
ATOM     22  C   UNL     1      46.220   5.551  13.658  0.00  0.00    +0.000 A 
BRANCH  20  23
ATOM     23  C   UNL     1      43.500   5.144  11.230  0.00  0.00    +0.000 C 
ATOM     24  N   UNL     1      43.715   4.960   9.892  0.00  0.00    +0.000 N 
ATOM     25  O   UNL     1      42.427   5.545  11.663  0.00  0.00    +0.000 OA
ATOM     26  H   UNL     1      44.621   4.639   9.571  0.00  0.00    +0.000 HD
ATOM     27  H   UNL     1      42.979   5.170   9.236  0.00  0.00    +0.000 HD
ENDBRANCH  20  23
ENDBRANCH  16  17
ENDBRANCH  15  16
ENDBRANCH   2  15
TORSDOF 6
ENDMDL
MODEL 8
REMARK VINA RESULT:    -6.242      5.377      7.154
REMARK INTER + INTRA:          -9.444
REMARK INTER:                  -8.509
REMARK INTRA:                  -0.935
REMARK UNBOUND:                -1.012
REMARK  Name = 
REMARK  8 active torsions:
REMARK  status: ('A' for Active; 'I' for Inactive)
REMARK    1  A    between atoms: C_1  and  C_2
REMARK    2  A    between atoms: C_2  and  C_3
REMARK    3  A    between atoms: C_2  and  C_4
REMARK    4  A    between atoms: C_2  and  C_15
REMARK    5  A    between atoms: C_4  and  O_5
REMARK    6  A    between atoms: O_5  and  C_6
REMARK    7  A    between atoms: C_9  and  C_10
REMARK    8  A    between atoms: C_20  and  C_21
REMARK                            x       y       z     vdW  Elec       q    Type
REMARK                         _______ _______ _______ _____ _____    ______ ____
ROOT
ATOM      1  C   UNL     1      47.375   5.066  18.282  0.00  0.00    +0.000 C 
ATOM      2  C   UNL     1      48.091   4.399  17.085  0.00  0.00    +0.000 C 
ATOM      3  C   UNL     1      47.718   2.897  17.051  0.00  0.00    +0.000 C 
ENDROOT
BRANCH   2   4
ATOM      4  C   UNL     1      49.616   4.549  17.267  0.00  0.00    +0.000 A 
ATOM      5  C   UNL     1      50.230   5.794  17.058  0.00  0.00    +0.000 A 
ATOM      6  C   UNL     1      51.616   5.945  17.145  0.00  0.00    +0.000 A 
ATOM      7  C   UNL     1      52.437   4.854  17.442  0.00  0.00    +0.000 A 
ATOM      8 CL   UNL     1      54.133   5.157  17.482  0.00  0.00    +0.000 Cl
ATOM      9  C   UNL     1      51.870   3.603  17.677  0.00  0.00    +0.000 A 
ATOM     10  C   UNL     1      50.461   3.475  17.597  0.00  0.00    +0.000 A 
BRANCH   9  11
ATOM     11  C   UNL     1      52.652   2.355  18.008  0.00  0.00    +0.000 C 
ATOM     12  F   UNL     1      53.675   2.036  17.177  0.00  0.00    +0.000 F 
ATOM     13  F   UNL     1      53.203   2.425  19.255  0.00  0.00    +0.000 F 
ATOM     14  F   UNL     1      51.850   1.250  18.033  0.00  0.00    +0.000 F 
ENDBRANCH   9  11
ENDBRANCH   2   4
BRANCH   2  15
ATOM     15  C   UNL     1      47.524   5.014  15.769  0.00  0.00    +0.000 C 
BRANCH  15  16
ATOM     16  O   UNL     1      47.568   4.075  14.688  0.00  0.00    +0.000 OA
BRANCH  16  17
ATOM     17  C   UNL     1      46.617   4.218  13.718  0.00  0.00    +0.000 A 
ATOM     18  C   UNL     1      46.081   3.194  12.941  0.00  0.00    +0.000 A 
ATOM     19  C   UNL     1      45.088   3.482  12.007  0.00  0.00    +0.000 A 
ATOM     20  C   UNL     1      44.662   4.799  11.879  0.00  0.00    +0.000 A 
ATOM     21  N   UNL     1      45.170   5.832  12.607  0.00  0.00    +0.000 NA
ATOM     22  C   UNL     1      46.136   5.508  13.503  0.00  0.00    +0.000 A 
BRANCH  20  23
ATOM     23  C   UNL     1      43.566   5.121  10.914  0.00  0.00    +0.000 C 
ATOM     24  N   UNL     1      43.821   4.808   9.607  0.00  0.00    +0.000 N 
ATOM     25  O   UNL     1      42.510   5.636  11.260  0.00  0.00    +0.000 OA
ATOM     26  H   UNL     1      44.712   4.394   9.357  0.00  0.00    +0.000 HD
ATOM     27  H   UNL     1      43.133   5.017   8.901  0.00  0.00    +0.000 HD
ENDBRANCH  20  23
ENDBRANCH  16  17
ENDBRANCH  15  16
ENDBRANCH   2  15
TORSDOF 6
ENDMDL
MODEL 9
REMARK VINA RESULT:    -6.142      5.588      8.218
REMARK INTER + INTRA:          -9.309
REMARK INTER:                  -8.128
REMARK INTRA:                  -1.180
REMARK UNBOUND:                -1.012
REMARK  Name = 
REMARK  8 active torsions:
REMARK  status: ('A' for Active; 'I' for Inactive)
REMARK    1  A    between atoms: C_1  and  C_2
REMARK    2  A    between atoms: C_2  and  C_3
REMARK    3  A    between atoms: C_2  and  C_4
REMARK    4  A    between atoms: C_2  and  C_15
REMARK    5  A    between atoms: C_4  and  O_5
REMARK    6  A    between atoms: O_5  and  C_6
REMARK    7  A    between atoms: C_9  and  C_10
REMARK    8  A    between atoms: C_20  and  C_21
REMARK                            x       y       z     vdW  Elec       q    Type
REMARK                         _______ _______ _______ _____ _____    ______ ____
ROOT
ATOM      1  C   UNL     1      47.719   9.573  12.597  0.00  0.00    +0.000 C 
ATOM      2  C   UNL     1      47.921   8.061  12.849  0.00  0.00    +0.000 C 
ATOM      3  C   UNL     1      49.165   7.582  12.061  0.00  0.00    +0.000 C 
ENDROOT
BRANCH   2   4
ATOM      4  C   UNL     1      46.672   7.301  12.355  0.00  0.00    +0.000 A 
ATOM      5  C   UNL     1      45.590   8.007  11.806  0.00  0.00    +0.000 A 
ATOM      6  C   UNL     1      44.418   7.354  11.417  0.00  0.00    +0.000 A 
ATOM      7  C   UNL     1      44.287   5.970  11.565  0.00  0.00    +0.000 A 
ATOM      8 CL   UNL     1      42.779   5.286  11.085  0.00  0.00    +0.000 Cl
ATOM      9  C   UNL     1      45.343   5.225  12.085  0.00  0.00    +0.000 A 
ATOM     10  C   UNL     1      46.528   5.906  12.461  0.00  0.00    +0.000 A 
BRANCH   9  11
ATOM     11  C   UNL     1      45.320   3.730  12.288  0.00  0.00    +0.000 C 
ATOM     12  F   UNL     1      44.285   3.226  13.005  0.00  0.00    +0.000 F 
ATOM     13  F   UNL     1      45.298   3.063  11.096  0.00  0.00    +0.000 F 
ATOM     14  F   UNL     1      46.447   3.291  12.923  0.00  0.00    +0.000 F 
ENDBRANCH   9  11
ENDBRANCH   2   4
BRANCH   2  15
ATOM     15  C   UNL     1      48.259   7.856  14.357  0.00  0.00    +0.000 C 
BRANCH  15  16
ATOM     16  O   UNL     1      48.994   6.645  14.571  0.00  0.00    +0.000 OA
BRANCH  16  17
ATOM     17  C   UNL     1      48.797   6.017  15.768  0.00  0.00    +0.000 A 
ATOM     18  C   UNL     1      47.916   4.965  16.005  0.00  0.00    +0.000 A 
ATOM     19  C   UNL     1      47.844   4.396  17.276  0.00  0.00    +0.000 A 
ATOM     20  C   UNL     1      48.662   4.908  18.277  0.00  0.00    +0.000 A 
ATOM     21  N   UNL     1      49.525   5.945  18.092  0.00  0.00    +0.000 NA
ATOM     22  C   UNL     1      49.562   6.470  16.841  0.00  0.00    +0.000 A 
BRANCH  20  23
ATOM     23  C   UNL     1      48.631   4.282  19.635  0.00  0.00    +0.000 C 
ATOM     24  N   UNL     1      48.247   2.970  19.670  0.00  0.00    +0.000 N 
ATOM     25  O   UNL     1      48.921   4.898  20.653  0.00  0.00    +0.000 OA
ATOM     26  H   UNL     1      48.002   2.497  18.807  0.00  0.00    +0.000 HD
ATOM     27  H   UNL     1      48.184   2.493  20.556  0.00  0.00    +0.000 HD
ENDBRANCH  20  23
ENDBRANCH  16  17
ENDBRANCH  15  16
ENDBRANCH   2  15
TORSDOF 6
ENDMDL
