MODEL 1
REMARK VINA RESULT:    -8.255      0.000      0.000
REMARK INTER + INTRA:         -10.391
REMARK INTER:                 -10.185
REMARK INTRA:                  -0.207
REMARK UNBOUND:                -0.207
REMARK  Name = 
REMARK  6 active torsions:
REMARK  status: ('A' for Active; 'I' for Inactive)
REMARK    1  A    between atoms: C_1  and  C_2
REMARK    2  A    between atoms: C_4  and  C_5
REMARK    3  A    between atoms: C_5  and  C_6
REMARK    4  A    between atoms: C_5  and  N_7
REMARK    5  A    between atoms: N_7  and  C_8
REMARK    6  A    between atoms: C_11  and  C_12
REMARK                            x       y       z     vdW  Elec       q    Type
REMARK                         _______ _______ _______ _____ _____    ______ ____
ROOT
ATOM      1  C   UNL     1      44.989   4.220   9.107  0.00  0.00    +0.000 A 
ATOM      2  N   UNL     1      45.738   4.674   8.088  0.00  0.00    +0.000 NA
ATOM      3  C   UNL     1      46.464   3.780   7.355  0.00  0.00    +0.000 A 
ATOM      4  C   UNL     1      46.546   2.423   7.659  0.00  0.00    +0.000 A 
ATOM      5  C   UNL     1      45.756   1.949   8.688  0.00  0.00    +0.000 A 
ATOM      6  C   UNL     1      44.909   2.834   9.368  0.00  0.00    +0.000 A 
ATOM      7 CL   UNL     1      43.765   2.138  10.459  0.00  0.00    +0.000 Cl
ENDROOT
BRANCH   4   8
ATOM      8  C   UNL     1      47.382   1.518   6.843  0.00  0.00    +0.000 C 
ATOM      9  N   UNL     1      48.492   2.066   6.244  0.00  0.00    +0.000 N 
ATOM     10  O   UNL     1      47.102   0.345   6.709  0.00  0.00    +0.000 OA
ATOM     11  H   UNL     1      48.700   3.051   6.215  0.00  0.00    +0.000 HD
ATOM     12  H   UNL     1      49.043   1.452   5.655  0.00  0.00    +0.000 HD
ENDBRANCH   4   8
BRANCH   1  13
ATOM     13  N   UNL     1      44.205   5.152   9.828  0.00  0.00    +0.000 N 
ATOM     14  H   UNL     1      44.632   6.057   9.629  0.00  0.00    +0.000 HD
BRANCH  13  15
ATOM     15  C   UNL     1      44.146   4.971  11.300  0.00  0.00    +0.000 C 
ATOM     16  C   UNL     1      43.080   5.871  11.946  0.00  0.00    +0.000 C 
BRANCH  15  20
ATOM     17  C   UNL     1      48.418   7.728  11.812  0.00  0.00    +0.000 C 
ATOM     18  C   UNL     1      47.505   6.614  12.234  0.00  0.00    +0.000 A 
ATOM     19  C   UNL     1      46.321   6.343  11.540  0.00  0.00    +0.000 A 
ATOM     20  C   UNL     1      45.502   5.283  11.951  0.00  0.00    +0.000 A 
ATOM     21  C   UNL     1      45.925   4.544  13.070  0.00  0.00    +0.000 A 
ATOM     22  C   UNL     1      47.103   4.892  13.714  0.00  0.00    +0.000 A 
ATOM     23  N   UNL     1      47.900   5.905  13.320  0.00  0.00    +0.000 NA
ENDBRANCH  15  20
ENDBRANCH  13  15
ENDBRANCH   1  13
TORSDOF 4
ENDMDL
MODEL 2
REMARK VINA RESULT:    -7.628      1.412      1.828
REMARK INTER + INTRA:          -9.619
REMARK INTER:                  -9.204
REMARK INTRA:                  -0.414
REMARK UNBOUND:                -0.207
REMARK  Name = 
REMARK  6 active torsions:
REMARK  status: ('A' for Active; 'I' for Inactive)
REMARK    1  A    between atoms: C_1  and  C_2
REMARK    2  A    between atoms: C_4  and  C_5
REMARK    3  A    between atoms: C_5  and  C_6
REMARK    4  A    between atoms: C_5  and  N_7
REMARK    5  A    between atoms: N_7  and  C_8
REMARK    6  A    between atoms: C_11  and  C_12
REMARK                            x       y       z     vdW  Elec       q    Type
REMARK                         _______ _______ _______ _____ _____    ______ ____
ROOT
ATOM      1  C   UNL     1      45.138   4.393   9.399  0.00  0.00    +0.000 A 
ATOM      2  N   UNL     1      45.914   4.679   8.341  0.00  0.00    +0.000 NA
ATOM      3  C   UNL     1      46.452   3.652   7.622  0.00  0.00    +0.000 A 
ATOM      4  C   UNL     1      46.317   2.312   7.976  0.00  0.00    +0.000 A 
ATOM      5  C   UNL     1      45.497   2.012   9.047  0.00  0.00    +0.000 A 
ATOM      6  C   UNL     1      44.835   3.050   9.717  0.00  0.00    +0.000 A 
ATOM      7 CL   UNL     1      43.631   2.595  10.868  0.00  0.00    +0.000 Cl
ENDROOT
BRANCH   4   8
ATOM      8  C   UNL     1      46.959   1.251   7.171  0.00  0.00    +0.000 C 
ATOM      9  N   UNL     1      46.795  -0.044   7.603  0.00  0.00    +0.000 N 
ATOM     10  O   UNL     1      47.600   1.512   6.174  0.00  0.00    +0.000 OA
ATOM     11  H   UNL     1      46.386  -0.306   8.485  0.00  0.00    +0.000 HD
ATOM     12  H   UNL     1      47.266  -0.767   7.070  0.00  0.00    +0.000 HD
ENDBRANCH   4   8
BRANCH   1  13
ATOM     13  N   UNL     1      44.548   5.468  10.106  0.00  0.00    +0.000 N 
ATOM     14  H   UNL     1      44.878   6.305   9.625  0.00  0.00    +0.000 HD
BRANCH  13  15
ATOM     15  C   UNL     1      44.891   5.583  11.546  0.00  0.00    +0.000 C 
ATOM     16  C   UNL     1      43.639   5.762  12.421  0.00  0.00    +0.000 C 
BRANCH  15  20
ATOM     17  C   UNL     1      49.499   7.788  11.660  0.00  0.00    +0.000 C 
ATOM     18  C   UNL     1      48.006   7.837  11.807  0.00  0.00    +0.000 A 
ATOM     19  C   UNL     1      47.222   6.691  11.635  0.00  0.00    +0.000 A 
ATOM     20  C   UNL     1      45.832   6.770  11.798  0.00  0.00    +0.000 A 
ATOM     21  C   UNL     1      45.296   8.029  12.122  0.00  0.00    +0.000 A 
ATOM     22  C   UNL     1      46.143   9.120  12.254  0.00  0.00    +0.000 A 
ATOM     23  N   UNL     1      47.481   9.050  12.106  0.00  0.00    +0.000 NA
ENDBRANCH  15  20
ENDBRANCH  13  15
ENDBRANCH   1  13
TORSDOF 4
ENDMDL
MODEL 3
REMARK VINA RESULT:    -7.266      2.126      2.482
REMARK INTER + INTRA:          -9.172
REMARK INTER:                  -8.750
REMARK INTRA:                  -0.422
REMARK UNBOUND:                -0.207
REMARK  Name = 
REMARK  6 active torsions:
REMARK  status: ('A' for Active; 'I' for Inactive)
REMARK    1  A    between atoms: C_1  and  C_2
REMARK    2  A    between atoms: C_4  and  C_5
REMARK    3  A    between atoms: C_5  and  C_6
REMARK    4  A    between atoms: C_5  and  N_7
REMARK    5  A    between atoms: N_7  and  C_8
REMARK    6  A    between atoms: C_11  and  C_12
REMARK                            x       y       z     vdW  Elec       q    Type
REMARK                         _______ _______ _______ _____ _____    ______ ____
ROOT
ATOM      1  C   UNL     1      44.986   4.422   9.528  0.00  0.00    +0.000 A 
ATOM      2  N   UNL     1      45.763   4.763   8.486  0.00  0.00    +0.000 NA
ATOM      3  C   UNL     1      46.324   3.773   7.733  0.00  0.00    +0.000 A 
ATOM      4  C   UNL     1      46.213   2.418   8.036  0.00  0.00    +0.000 A 
ATOM      5  C   UNL     1      45.392   2.064   9.089  0.00  0.00    +0.000 A 
ATOM      6  C   UNL     1      44.708   3.063   9.794  0.00  0.00    +0.000 A 
ATOM      7 CL   UNL     1      43.506   2.543  10.919  0.00  0.00    +0.000 Cl
ENDROOT
BRANCH   4   8
ATOM      8  C   UNL     1      46.879   1.400   7.196  0.00  0.00    +0.000 C 
ATOM      9  N   UNL     1      46.811   0.096   7.627  0.00  0.00    +0.000 N 
ATOM     10  O   UNL     1      47.456   1.702   6.173  0.00  0.00    +0.000 OA
ATOM     11  H   UNL     1      46.460  -0.193   8.525  0.00  0.00    +0.000 HD
ATOM     12  H   UNL     1      47.300  -0.595   7.068  0.00  0.00    +0.000 HD
ENDBRANCH   4   8
BRANCH   1  13
ATOM     13  N   UNL     1      44.373   5.459  10.272  0.00  0.00    +0.000 N 
ATOM     14  H   UNL     1      44.457   6.286   9.679  0.00  0.00    +0.000 HD
BRANCH  13  15
ATOM     15  C   UNL     1      44.965   5.765  11.598  0.00  0.00    +0.000 C 
ATOM     16  C   UNL     1      44.003   5.425  12.748  0.00  0.00    +0.000 C 
BRANCH  15  20
ATOM     17  C   UNL     1      44.003  10.754  11.057  0.00  0.00    +0.000 C 
ATOM     18  C   UNL     1      44.876   9.617  11.500  0.00  0.00    +0.000 A 
ATOM     19  C   UNL     1      44.494   8.286  11.296  0.00  0.00    +0.000 A 
ATOM     20  C   UNL     1      45.344   7.249  11.706  0.00  0.00    +0.000 A 
ATOM     21  C   UNL     1      46.552   7.618  12.323  0.00  0.00    +0.000 A 
ATOM     22  C   UNL     1      46.845   8.961  12.506  0.00  0.00    +0.000 A 
ATOM     23  N   UNL     1      46.037   9.964  12.107  0.00  0.00    +0.000 NA
ENDBRANCH  15  20
ENDBRANCH  13  15
ENDBRANCH   1  13
TORSDOF 4
ENDMDL
MODEL 4
REMARK VINA RESULT:    -7.134      2.888      6.274
REMARK INTER + INTRA:          -9.008
REMARK INTER:                  -9.030
REMARK INTRA:                   0.022
REMARK UNBOUND:                -0.207
REMARK  Name = 
REMARK  6 active torsions:
REMARK  status: ('A' for Active; 'I' for Inactive)
REMARK    1  A    between atoms: C_1  and  C_2
REMARK    2  A    between atoms: C_4  and  C_5
REMARK    3  A    between atoms: C_5  and  C_6
REMARK    4  A    between atoms: C_5  and  N_7
REMARK    5  A    between atoms: N_7  and  C_8
REMARK    6  A    between atoms: C_11  and  C_12
REMARK                            x       y       z     vdW  Elec       q    Type
REMARK                         _______ _______ _______ _____ _____    ______ ____
ROOT
ATOM      1  C   UNL     1      44.746   5.663  10.872  0.00  0.00    +0.000 A 
ATOM      2  N   UNL     1      46.028   5.928  10.571  0.00  0.00    +0.000 NA
ATOM      3  C   UNL     1      46.805   6.557  11.499  0.00  0.00    +0.000 A 
ATOM      4  C   UNL     1      46.321   7.027  12.718  0.00  0.00    +0.000 A 
ATOM      5  C   UNL     1      45.011   6.730  13.043  0.00  0.00    +0.000 A 
ATOM      6  C   UNL     1      44.236   5.974  12.153  0.00  0.00    +0.000 A 
ATOM      7 CL   UNL     1      42.705   5.420  12.726  0.00  0.00    +0.000 Cl
ENDROOT
BRANCH   4   8
ATOM      8  C   UNL     1      47.212   7.733  13.662  0.00  0.00    +0.000 C 
ATOM      9  N   UNL     1      46.781   8.952  14.132  0.00  0.00    +0.000 N 
ATOM     10  O   UNL     1      48.274   7.259  14.006  0.00  0.00    +0.000 OA
ATOM     11  H   UNL     1      45.977   9.447  13.784  0.00  0.00    +0.000 HD
ATOM     12  H   UNL     1      47.411   9.451  14.750  0.00  0.00    +0.000 HD
ENDBRANCH   4   8
BRANCH   1  13
ATOM     13  N   UNL     1      43.965   4.967   9.918  0.00  0.00    +0.000 N 
ATOM     14  H   UNL     1      43.000   5.209  10.149  0.00  0.00    +0.000 HD
BRANCH  13  15
ATOM     15  C   UNL     1      44.092   3.489   9.908  0.00  0.00    +0.000 C 
ATOM     16  C   UNL     1      44.529   2.942  11.277  0.00  0.00    +0.000 C 
BRANCH  15  20
ATOM     17  C   UNL     1      46.913  -0.070   7.566  0.00  0.00    +0.000 C 
ATOM     18  C   UNL     1      46.412   1.338   7.707  0.00  0.00    +0.000 A 
ATOM     19  C   UNL     1      45.543   1.698   8.743  0.00  0.00    +0.000 A 
ATOM     20  C   UNL     1      45.109   3.027   8.855  0.00  0.00    +0.000 A 
ATOM     21  C   UNL     1      45.577   3.936   7.890  0.00  0.00    +0.000 A 
ATOM     22  C   UNL     1      46.420   3.491   6.882  0.00  0.00    +0.000 A 
ATOM     23  N   UNL     1      46.847   2.217   6.773  0.00  0.00    +0.000 NA
ENDBRANCH  15  20
ENDBRANCH  13  15
ENDBRANCH   1  13
TORSDOF 4
ENDMDL
MODEL 5
REMARK VINA RESULT:    -6.654      3.055      6.293
REMARK INTER + INTRA:          -8.417
REMARK INTER:                  -9.462
REMARK INTRA:                   1.045
REMARK UNBOUND:                -0.207
REMARK  Name = 
REMARK  6 active torsions:
REMARK  status: ('A' for Active; 'I' for Inactive)
REMARK    1  A    between atoms: C_1  and  C_2
REMARK    2  A    between atoms: C_4  and  C_5
REMARK    3  A    between atoms: C_5  and  C_6
REMARK    4  A    between atoms: C_5  and  N_7
REMARK    5  A    between atoms: N_7  and  C_8
REMARK    6  A    between atoms: C_11  and  C_12
REMARK                            x       y       z     vdW  Elec       q    Type
REMARK                         _______ _______ _______ _____ _____    ______ ____
ROOT
ATOM      1  C   UNL     1      45.300   5.119  11.512  0.00  0.00    +0.000 A 
ATOM      2  N   UNL     1      45.520   3.900  12.031  0.00  0.00    +0.000 NA
ATOM      3  C   UNL     1      46.168   3.801  13.227  0.00  0.00    +0.000 A 
ATOM      4  C   UNL     1      46.699   4.895  13.907  0.00  0.00    +0.000 A 
ATOM      5  C   UNL     1      46.449   6.152  13.391  0.00  0.00    +0.000 A 
ATOM      6  C   UNL     1      45.676   6.277  12.229  0.00  0.00    +0.000 A 
ATOM      7 CL   UNL     1      45.184   7.871  11.785  0.00  0.00    +0.000 Cl
ENDROOT
BRANCH   4   8
ATOM      8  C   UNL     1      47.422   4.711  15.183  0.00  0.00    +0.000 C 
ATOM      9  N   UNL     1      46.972   3.713  16.015  0.00  0.00    +0.000 N 
ATOM     10  O   UNL     1      48.370   5.407  15.481  0.00  0.00    +0.000 OA
ATOM     11  H   UNL     1      46.119   3.195  15.879  0.00  0.00    +0.000 HD
ATOM     12  H   UNL     1      47.446   3.612  16.906  0.00  0.00    +0.000 HD
ENDBRANCH   4   8
BRANCH   1  13
ATOM     13  N   UNL     1      44.585   5.208  10.293  0.00  0.00    +0.000 N 
ATOM     14  H   UNL     1      43.755   5.758  10.520  0.00  0.00    +0.000 HD
BRANCH  13  15
ATOM     15  C   UNL     1      44.150   3.927   9.684  0.00  0.00    +0.000 C 
ATOM     16  C   UNL     1      43.766   2.887  10.750  0.00  0.00    +0.000 C 
BRANCH  15  20
ATOM     17  C   UNL     1      46.770   0.012   7.706  0.00  0.00    +0.000 C 
ATOM     18  C   UNL     1      46.470   1.477   7.820  0.00  0.00    +0.000 A 
ATOM     19  C   UNL     1      45.497   1.951   8.706  0.00  0.00    +0.000 A 
ATOM     20  C   UNL     1      45.255   3.329   8.801  0.00  0.00    +0.000 A 
ATOM     21  C   UNL     1      46.017   4.170   7.971  0.00  0.00    +0.000 A 
ATOM     22  C   UNL     1      46.948   3.617   7.105  0.00  0.00    +0.000 A 
ATOM     23  N   UNL     1      47.191   2.294   7.014  0.00  0.00    +0.000 NA
ENDBRANCH  15  20
ENDBRANCH  13  15
ENDBRANCH   1  13
TORSDOF 4
ENDMDL
MODEL 6
REMARK VINA RESULT:    -6.626      3.256      5.739
REMARK INTER + INTRA:          -8.382
REMARK INTER:                  -7.694
REMARK INTRA:                  -0.688
REMARK UNBOUND:                -0.207
REMARK  Name = 
REMARK  6 active torsions:
REMARK  status: ('A' for Active; 'I' for Inactive)
REMARK    1  A    between atoms: C_1  and  C_2
REMARK    2  A    between atoms: C_4  and  C_5
REMARK    3  A    between atoms: C_5  and  C_6
REMARK    4  A    between atoms: C_5  and  N_7
REMARK    5  A    between atoms: N_7  and  C_8
REMARK    6  A    between atoms: C_11  and  C_12
REMARK                            x       y       z     vdW  Elec       q    Type
REMARK                         _______ _______ _______ _____ _____    ______ ____
ROOT
ATOM      1  C   UNL     1      45.847   6.209  12.746  0.00  0.00    +0.000 A 
ATOM      2  N   UNL     1      46.018   7.427  12.207  0.00  0.00    +0.000 NA
ATOM      3  C   UNL     1      47.279   7.946  12.140  0.00  0.00    +0.000 A 
ATOM      4  C   UNL     1      48.398   7.320  12.684  0.00  0.00    +0.000 A 
ATOM      5  C   UNL     1      48.230   6.055  13.212  0.00  0.00    +0.000 A 
ATOM      6  C   UNL     1      46.963   5.456  13.173  0.00  0.00    +0.000 A 
ATOM      7 CL   UNL     1      46.874   3.788  13.608  0.00  0.00    +0.000 Cl
ENDROOT
BRANCH   4   8
ATOM      8  C   UNL     1      49.730   7.958  12.608  0.00  0.00    +0.000 C 
ATOM      9  N   UNL     1      50.672   7.339  11.819  0.00  0.00    +0.000 N 
ATOM     10  O   UNL     1      49.979   8.980  13.211  0.00  0.00    +0.000 OA
ATOM     11  H   UNL     1      50.562   6.429  11.403  0.00  0.00    +0.000 HD
ATOM     12  H   UNL     1      51.595   7.758  11.798  0.00  0.00    +0.000 HD
ENDBRANCH   4   8
BRANCH   1  13
ATOM     13  N   UNL     1      44.540   5.664  12.765  0.00  0.00    +0.000 N 
ATOM     14  H   UNL     1      44.673   4.685  13.021  0.00  0.00    +0.000 HD
BRANCH  13  15
ATOM     15  C   UNL     1      43.779   5.721  11.492  0.00  0.00    +0.000 C 
ATOM     16  C   UNL     1      42.266   5.568  11.721  0.00  0.00    +0.000 C 
BRANCH  15  20
ATOM     17  C   UNL     1      46.435   4.014   7.475  0.00  0.00    +0.000 C 
ATOM     18  C   UNL     1      45.531   3.793   8.651  0.00  0.00    +0.000 A 
ATOM     19  C   UNL     1      45.096   4.861   9.443  0.00  0.00    +0.000 A 
ATOM     20  C   UNL     1      44.235   4.620  10.524  0.00  0.00    +0.000 A 
ATOM     21  C   UNL     1      43.862   3.285  10.758  0.00  0.00    +0.000 A 
ATOM     22  C   UNL     1      44.355   2.282   9.937  0.00  0.00    +0.000 A 
ATOM     23  N   UNL     1      45.176   2.507   8.892  0.00  0.00    +0.000 NA
ENDBRANCH  15  20
ENDBRANCH  13  15
ENDBRANCH   1  13
TORSDOF 4
ENDMDL
MODEL 7
REMARK VINA RESULT:    -6.335      4.694      7.697
REMARK INTER + INTRA:          -8.023
REMARK INTER:                  -7.539
REMARK INTRA:                  -0.483
REMARK UNBOUND:                -0.207
REMARK  Name = 
REMARK  6 active torsions:
REMARK  status: ('A' for Active; 'I' for Inactive)
REMARK    1  A    between atoms: C_1  and  C_2
REMARK    2  A    between atoms: C_4  and  C_5
REMARK    3  A    between atoms: C_5  and  C_6
REMARK    4  A    between atoms: C_5  and  N_7
REMARK    5  A    between atoms: N_7  and  C_8
REMARK    6  A    between atoms: C_11  and  C_12
REMARK                            x       y       z     vdW  Elec       q    Type
REMARK                         _______ _______ _______ _____ _____    ______ ____
ROOT
ATOM      1  C   UNL     1      47.814   4.001  15.936  0.00  0.00    +0.000 A 
ATOM      2  N   UNL     1      48.036   2.703  15.674  0.00  0.00    +0.000 NA
ATOM      3  C   UNL     1      49.075   2.074  16.297  0.00  0.00    +0.000 A 
ATOM      4  C   UNL     1      49.983   2.728  17.127  0.00  0.00    +0.000 A 
ATOM      5  C   UNL     1      49.740   4.056  17.421  0.00  0.00    +0.000 A 
ATOM      6  C   UNL     1      48.605   4.681  16.889  0.00  0.00    +0.000 A 
ATOM      7 CL   UNL     1      48.219   6.250  17.497  0.00  0.00    +0.000 Cl
ENDROOT
BRANCH   4   8
ATOM      8  C   UNL     1      51.109   1.992  17.740  0.00  0.00    +0.000 C 
ATOM      9  N   UNL     1      52.017   2.731  18.462  0.00  0.00    +0.000 N 
ATOM     10  O   UNL     1      51.225   0.791  17.614  0.00  0.00    +0.000 OA
ATOM     11  H   UNL     1      52.041   3.737  18.492  0.00  0.00    +0.000 HD
ATOM     12  H   UNL     1      52.808   2.230  18.851  0.00  0.00    +0.000 HD
ENDBRANCH   4   8
BRANCH   1  13
ATOM     13  N   UNL     1      46.703   4.627  15.319  0.00  0.00    +0.000 N 
ATOM     14  H   UNL     1      45.933   3.969  15.446  0.00  0.00    +0.000 HD
BRANCH  13  15
ATOM     15  C   UNL     1      46.833   4.930  13.872  0.00  0.00    +0.000 C 
ATOM     16  C   UNL     1      47.084   6.426  13.620  0.00  0.00    +0.000 C 
BRANCH  15  20
ATOM     17  C   UNL     1      42.236   5.860  11.844  0.00  0.00    +0.000 C 
ATOM     18  C   UNL     1      43.412   4.963  12.096  0.00  0.00    +0.000 A 
ATOM     19  C   UNL     1      44.495   5.388  12.873  0.00  0.00    +0.000 A 
ATOM     20  C   UNL     1      45.569   4.516  13.104  0.00  0.00    +0.000 A 
ATOM     21  C   UNL     1      45.494   3.240  12.518  0.00  0.00    +0.000 A 
ATOM     22  C   UNL     1      44.393   2.906  11.744  0.00  0.00    +0.000 A 
ATOM     23  N   UNL     1      43.354   3.736  11.524  0.00  0.00    +0.000 NA
ENDBRANCH  15  20
ENDBRANCH  13  15
ENDBRANCH   1  13
TORSDOF 4
ENDMDL
MODEL 8
REMARK VINA RESULT:    -6.315      3.804      6.861
REMARK INTER + INTRA:          -7.998
REMARK INTER:                  -7.723
REMARK INTRA:                  -0.275
REMARK UNBOUND:                -0.207
REMARK  Name = 
REMARK  6 active torsions:
REMARK  status: ('A' for Active; 'I' for Inactive)
REMARK    1  A    between atoms: C_1  and  C_2
REMARK    2  A    between atoms: C_4  and  C_5
REMARK    3  A    between atoms: C_5  and  C_6
REMARK    4  A    between atoms: C_5  and  N_7
REMARK    5  A    between atoms: N_7  and  C_8
REMARK    6  A    between atoms: C_11  and  C_12
REMARK                            x       y       z     vdW  Elec       q    Type
REMARK                         _______ _______ _______ _____ _____    ______ ____
ROOT
ATOM      1  C   UNL     1      47.608   5.976  13.427  0.00  0.00    +0.000 A 
ATOM      2  N   UNL     1      46.843   4.881  13.567  0.00  0.00    +0.000 NA
ATOM      3  C   UNL     1      46.756   4.291  14.794  0.00  0.00    +0.000 A 
ATOM      4  C   UNL     1      47.491   4.708  15.902  0.00  0.00    +0.000 A 
ATOM      5  C   UNL     1      48.256   5.851  15.769  0.00  0.00    +0.000 A 
ATOM      6  C   UNL     1      48.255   6.540  14.549  0.00  0.00    +0.000 A 
ATOM      7 CL   UNL     1      49.017   8.089  14.526  0.00  0.00    +0.000 Cl
ENDROOT
BRANCH   4   8
ATOM      8  C   UNL     1      47.374   3.999  17.194  0.00  0.00    +0.000 C 
ATOM      9  N   UNL     1      48.122   4.486  18.241  0.00  0.00    +0.000 N 
ATOM     10  O   UNL     1      46.651   3.034  17.324  0.00  0.00    +0.000 OA
ATOM     11  H   UNL     1      48.829   5.197  18.157  0.00  0.00    +0.000 HD
ATOM     12  H   UNL     1      48.068   3.976  19.116  0.00  0.00    +0.000 HD
ENDBRANCH   4   8
BRANCH   1  13
ATOM     13  N   UNL     1      47.651   6.604  12.159  0.00  0.00    +0.000 N 
ATOM     14  H   UNL     1      48.388   7.306  12.244  0.00  0.00    +0.000 HD
BRANCH  13  15
ATOM     15  C   UNL     1      46.407   7.276  11.709  0.00  0.00    +0.000 C 
ATOM     16  C   UNL     1      45.639   7.906  12.884  0.00  0.00    +0.000 C 
BRANCH  15  20
ATOM     17  C   UNL     1      45.365   3.784   8.128  0.00  0.00    +0.000 C 
ATOM     18  C   UNL     1      44.985   4.598   9.330  0.00  0.00    +0.000 A 
ATOM     19  C   UNL     1      45.867   5.534   9.881  0.00  0.00    +0.000 A 
ATOM     20  C   UNL     1      45.472   6.290  10.993  0.00  0.00    +0.000 A 
ATOM     21  C   UNL     1      44.186   6.049  11.507  0.00  0.00    +0.000 A 
ATOM     22  C   UNL     1      43.382   5.087  10.914  0.00  0.00    +0.000 A 
ATOM     23  N   UNL     1      43.752   4.361   9.840  0.00  0.00    +0.000 NA
ENDBRANCH  15  20
ENDBRANCH  13  15
ENDBRANCH   1  13
TORSDOF 4
ENDMDL
MODEL 9
REMARK VINA RESULT:    -6.264      3.704      6.977
REMARK INTER + INTRA:          -7.935
REMARK INTER:                  -7.427
REMARK INTRA:                  -0.508
REMARK UNBOUND:                -0.207
REMARK  Name = 
REMARK  6 active torsions:
REMARK  status: ('A' for Active; 'I' for Inactive)
REMARK    1  A    between atoms: C_1  and  C_2
REMARK    2  A    between atoms: C_4  and  C_5
REMARK    3  A    between atoms: C_5  and  C_6
REMARK    4  A    between atoms: C_5  and  N_7
REMARK    5  A    between atoms: N_7  and  C_8
REMARK    6  A    between atoms: C_11  and  C_12
REMARK                            x       y       z     vdW  Elec       q    Type
REMARK                         _______ _______ _______ _____ _____    ______ ____
ROOT
ATOM      1  C   UNL     1      47.797   5.811  13.801  0.00  0.00    +0.000 A 
ATOM      2  N   UNL     1      48.543   6.503  14.677  0.00  0.00    +0.000 NA
ATOM      3  C   UNL     1      48.597   6.082  15.974  0.00  0.00    +0.000 A 
ATOM      4  C   UNL     1      47.846   5.017  16.468  0.00  0.00    +0.000 A 
ATOM      5  C   UNL     1      47.100   4.286  15.564  0.00  0.00    +0.000 A 
ATOM      6  C   UNL     1      47.135   4.631  14.206  0.00  0.00    +0.000 A 
ATOM      7 CL   UNL     1      46.397   3.528  13.101  0.00  0.00    +0.000 Cl
ENDROOT
BRANCH   4   8
ATOM      8  C   UNL     1      47.926   4.637  17.894  0.00  0.00    +0.000 C 
ATOM      9  N   UNL     1      46.953   5.138  18.728  0.00  0.00    +0.000 N 
ATOM     10  O   UNL     1      48.808   3.915  18.310  0.00  0.00    +0.000 OA
ATOM     11  H   UNL     1      46.279   5.838  18.465  0.00  0.00    +0.000 HD
ATOM     12  H   UNL     1      47.031   4.906  19.712  0.00  0.00    +0.000 HD
ENDBRANCH   4   8
BRANCH   1  13
ATOM     13  N   UNL     1      47.789   6.233  12.449  0.00  0.00    +0.000 N 
ATOM     14  H   UNL     1      48.664   6.745  12.334  0.00  0.00    +0.000 HD
BRANCH  13  15
ATOM     15  C   UNL     1      46.668   7.113  12.036  0.00  0.00    +0.000 C 
ATOM     16  C   UNL     1      46.110   7.923  13.218  0.00  0.00    +0.000 C 
BRANCH  15  20
ATOM     17  C   UNL     1      44.719   3.883   8.590  0.00  0.00    +0.000 C 
ATOM     18  C   UNL     1      44.600   4.727   9.824  0.00  0.00    +0.000 A 
ATOM     19  C   UNL     1      45.672   5.505  10.277  0.00  0.00    +0.000 A 
ATOM     20  C   UNL     1      45.520   6.297  11.424  0.00  0.00    +0.000 A 
ATOM     21  C   UNL     1      44.272   6.252  12.071  0.00  0.00    +0.000 A 
ATOM     22  C   UNL     1      43.268   5.438  11.568  0.00  0.00    +0.000 A 
ATOM     23  N   UNL     1      43.405   4.680  10.462  0.00  0.00    +0.000 NA
ENDBRANCH  15  20
ENDBRANCH  13  15
ENDBRANCH   1  13
TORSDOF 4
ENDMDL
