MODEL 1
REMARK VINA RESULT:    -8.566      0.000      0.000
REMARK INTER + INTRA:         -12.522
REMARK INTER:                 -11.571
REMARK INTRA:                  -0.951
REMARK UNBOUND:                -0.951
REMARK  Name = 
REMARK  6 active torsions:
REMARK  status: ('A' for Active; 'I' for Inactive)
REMARK    1  A    between atoms: C_2  and  C_3
REMARK    2  A    between atoms: C_6  and  C_7
REMARK    3  A    between atoms: C_11  and  C_12
REMARK    4  A    between atoms: C_12  and  N_13
REMARK    5  A    between atoms: N_13  and  C_14
REMARK    6  A    between atoms: C_17  and  C_18
REMARK                            x       y       z     vdW  Elec       q    Type
REMARK                         _______ _______ _______ _____ _____    ______ ____
ROOT
ATOM      1  C   UNL     1      43.784   4.987  11.372  0.00  0.00    +0.000 C 
ATOM      2  C   UNL     1      42.999   6.240  11.042  0.00  0.00    +0.000 C 
ATOM      3  C   UNL     1      42.529   5.364  12.156  0.00  0.00    +0.000 C 
ENDROOT
BRANCH   1   8
ATOM      4  C   UNL     1      47.205   6.319  12.486  0.00  0.00    +0.000 A 
ATOM      5  C   UNL     1      47.507   5.358  13.456  0.00  0.00    +0.000 A 
ATOM      6  C   UNL     1      46.609   4.333  13.697  0.00  0.00    +0.000 A 
ATOM      7  N   UNL     1      45.438   4.197  13.046  0.00  0.00    +0.000 NA
ATOM      8  C   UNL     1      45.115   5.128  12.112  0.00  0.00    +0.000 A 
ATOM      9  C   UNL     1      45.983   6.180  11.815  0.00  0.00    +0.000 A 
BRANCH   4  13
ATOM     10  C   UNL     1      49.898   9.476  11.607  0.00  0.00    +0.000 A 
ATOM     11  C   UNL     1      48.550   9.782  11.731  0.00  0.00    +0.000 A 
ATOM     12  C   UNL     1      47.662   8.747  12.016  0.00  0.00    +0.000 A 
ATOM     13  C   UNL     1      48.122   7.432  12.185  0.00  0.00    +0.000 A 
ATOM     14  C   UNL     1      49.501   7.246  12.039  0.00  0.00    +0.000 A 
ATOM     15  N   UNL     1      50.393   8.226  11.754  0.00  0.00    +0.000 NA
BRANCH  10  17
ATOM     16  N   UNL     1      51.663  11.304  11.064  0.00  0.00    +0.000 NA
ATOM     17  C   UNL     1      50.854  10.505  11.309  0.00  0.00    +0.000 C 
ENDBRANCH  10  17
ENDBRANCH   4  13
ENDBRANCH   1   8
BRANCH   1  18
ATOM     18  N   UNL     1      43.659   3.724  10.615  0.00  0.00    +0.000 N 
ATOM     19  H   UNL     1      43.438   2.940  11.228  0.00  0.00    +0.000 HD
BRANCH  18  20
ATOM     20  C   UNL     1      44.504   3.317   9.561  0.00  0.00    +0.000 A 
ATOM     21  C   UNL     1      44.956   2.010   9.374  0.00  0.00    +0.000 A 
ATOM     22  C   UNL     1      45.900   1.714   8.377  0.00  0.00    +0.000 A 
ATOM     23  C   UNL     1      46.423   2.728   7.565  0.00  0.00    +0.000 A 
ATOM     24  C   UNL     1      45.994   4.042   7.757  0.00  0.00    +0.000 A 
ATOM     25  C   UNL     1      45.052   4.326   8.750  0.00  0.00    +0.000 A 
BRANCH  23  26
ATOM     26  C   UNL     1      47.476   2.382   6.571  0.00  0.00    +0.000 C 
ATOM     27  N   UNL     1      47.485   3.085   5.397  0.00  0.00    +0.000 N 
ATOM     28  O   UNL     1      48.299   1.501   6.785  0.00  0.00    +0.000 OA
ATOM     29  H   UNL     1      46.729   3.686   5.098  0.00  0.00    +0.000 HD
ATOM     30  H   UNL     1      48.168   2.804   4.704  0.00  0.00    +0.000 HD
ENDBRANCH  23  26
ENDBRANCH  18  20
ENDBRANCH   1  18
TORSDOF 6
ENDMDL
MODEL 2
REMARK VINA RESULT:    -8.334      2.670      4.155
REMARK INTER + INTRA:         -12.208
REMARK INTER:                 -12.246
REMARK INTRA:                   0.038
REMARK UNBOUND:                -0.951
REMARK  Name = 
REMARK  6 active torsions:
REMARK  status: ('A' for Active; 'I' for Inactive)
REMARK    1  A    between atoms: C_2  and  C_3
REMARK    2  A    between atoms: C_6  and  C_7
REMARK    3  A    between atoms: C_11  and  C_12
REMARK    4  A    between atoms: C_12  and  N_13
REMARK    5  A    between atoms: N_13  and  C_14
REMARK    6  A    between atoms: C_17  and  C_18
REMARK                            x       y       z     vdW  Elec       q    Type
REMARK                         _______ _______ _______ _____ _____    ______ ____
ROOT
ATOM      1  C   UNL     1      43.925   4.996  11.491  0.00  0.00    +0.000 C 
ATOM      2  C   UNL     1      42.738   5.172  12.416  0.00  0.00    +0.000 C 
ATOM      3  C   UNL     1      43.381   3.829  12.311  0.00  0.00    +0.000 C 
ENDROOT
BRANCH   1   8
ATOM      4  C   UNL     1      47.046   5.763  13.588  0.00  0.00    +0.000 A 
ATOM      5  C   UNL     1      47.725   6.578  12.676  0.00  0.00    +0.000 A 
ATOM      6  C   UNL     1      47.148   6.846  11.447  0.00  0.00    +0.000 A 
ATOM      7  N   UNL     1      45.952   6.365  11.061  0.00  0.00    +0.000 NA
ATOM      8  C   UNL     1      45.281   5.556  11.922  0.00  0.00    +0.000 A 
ATOM      9  C   UNL     1      45.805   5.255  13.182  0.00  0.00    +0.000 A 
BRANCH   4  13
ATOM     10  C   UNL     1      48.700   4.905  17.398  0.00  0.00    +0.000 A 
ATOM     11  C   UNL     1      47.730   4.047  16.898  0.00  0.00    +0.000 A 
ATOM     12  C   UNL     1      47.182   4.327  15.648  0.00  0.00    +0.000 A 
ATOM     13  C   UNL     1      47.609   5.442  14.911  0.00  0.00    +0.000 A 
ATOM     14  C   UNL     1      48.592   6.232  15.516  0.00  0.00    +0.000 A 
ATOM     15  N   UNL     1      49.142   5.996  16.732  0.00  0.00    +0.000 NA
BRANCH  10  17
ATOM     16  N   UNL     1      49.760   4.514  19.738  0.00  0.00    +0.000 NA
ATOM     17  C   UNL     1      49.292   4.663  18.683  0.00  0.00    +0.000 C 
ENDBRANCH  10  17
ENDBRANCH   4  13
ENDBRANCH   1   8
BRANCH   1  18
ATOM     18  N   UNL     1      43.800   4.811  10.030  0.00  0.00    +0.000 N 
ATOM     19  H   UNL     1      42.824   4.807   9.736  0.00  0.00    +0.000 HD
BRANCH  18  20
ATOM     20  C   UNL     1      44.566   3.918   9.251  0.00  0.00    +0.000 A 
ATOM     21  C   UNL     1      44.600   2.537   9.442  0.00  0.00    +0.000 A 
ATOM     22  C   UNL     1      45.488   1.733   8.710  0.00  0.00    +0.000 A 
ATOM     23  C   UNL     1      46.373   2.306   7.787  0.00  0.00    +0.000 A 
ATOM     24  C   UNL     1      46.362   3.689   7.602  0.00  0.00    +0.000 A 
ATOM     25  C   UNL     1      45.471   4.480   8.335  0.00  0.00    +0.000 A 
BRANCH  23  26
ATOM     26  C   UNL     1      47.349   1.427   7.085  0.00  0.00    +0.000 C 
ATOM     27  N   UNL     1      48.396   2.035   6.449  0.00  0.00    +0.000 N 
ATOM     28  O   UNL     1      47.221   0.209   7.069  0.00  0.00    +0.000 OA
ATOM     29  H   UNL     1      48.447   3.030   6.278  0.00  0.00    +0.000 HD
ATOM     30  H   UNL     1      49.022   1.434   5.927  0.00  0.00    +0.000 HD
ENDBRANCH  23  26
ENDBRANCH  18  20
ENDBRANCH   1  18
TORSDOF 6
ENDMDL
MODEL 3
REMARK VINA RESULT:    -7.672      2.033      2.638
REMARK INTER + INTRA:         -11.314
REMARK INTER:                 -11.314
REMARK INTRA:                   0.000
REMARK UNBOUND:                -0.951
REMARK  Name = 
REMARK  6 active torsions:
REMARK  status: ('A' for Active; 'I' for Inactive)
REMARK    1  A    between atoms: C_2  and  C_3
REMARK    2  A    between atoms: C_6  and  C_7
REMARK    3  A    between atoms: C_11  and  C_12
REMARK    4  A    between atoms: C_12  and  N_13
REMARK    5  A    between atoms: N_13  and  C_14
REMARK    6  A    between atoms: C_17  and  C_18
REMARK                            x       y       z     vdW  Elec       q    Type
REMARK                         _______ _______ _______ _____ _____    ______ ____
ROOT
ATOM      1  C   UNL     1      44.120   4.444  11.709  0.00  0.00    +0.000 C 
ATOM      2  C   UNL     1      43.441   3.818  12.909  0.00  0.00    +0.000 C 
ATOM      3  C   UNL     1      44.754   3.272  12.454  0.00  0.00    +0.000 C 
ENDROOT
BRANCH   1   8
ATOM      4  C   UNL     1      46.656   7.148  12.698  0.00  0.00    +0.000 A 
ATOM      5  C   UNL     1      46.002   8.264  12.165  0.00  0.00    +0.000 A 
ATOM      6  C   UNL     1      44.786   8.096  11.528  0.00  0.00    +0.000 A 
ATOM      7  N   UNL     1      44.176   6.905  11.382  0.00  0.00    +0.000 NA
ATOM      8  C   UNL     1      44.799   5.804  11.876  0.00  0.00    +0.000 A 
ATOM      9  C   UNL     1      46.024   5.907  12.539  0.00  0.00    +0.000 A 
BRANCH   4  13
ATOM     10  C   UNL     1      50.372   7.424  14.725  0.00  0.00    +0.000 A 
ATOM     11  C   UNL     1      50.188   8.198  13.586  0.00  0.00    +0.000 A 
ATOM     12  C   UNL     1      48.971   8.107  12.916  0.00  0.00    +0.000 A 
ATOM     13  C   UNL     1      47.953   7.264  13.388  0.00  0.00    +0.000 A 
ATOM     14  C   UNL     1      48.252   6.536  14.545  0.00  0.00    +0.000 A 
ATOM     15  N   UNL     1      49.426   6.592  15.218  0.00  0.00    +0.000 NA
BRANCH  10  17
ATOM     16  N   UNL     1      52.592   7.493  16.072  0.00  0.00    +0.000 NA
ATOM     17  C   UNL     1      51.610   7.478  15.449  0.00  0.00    +0.000 C 
ENDBRANCH  10  17
ENDBRANCH   4  13
ENDBRANCH   1   8
BRANCH   1  18
ATOM     18  N   UNL     1      43.750   4.136  10.311  0.00  0.00    +0.000 N 
ATOM     19  H   UNL     1      42.823   3.716  10.253  0.00  0.00    +0.000 HD
BRANCH  18  20
ATOM     20  C   UNL     1      44.614   3.587   9.340  0.00  0.00    +0.000 A 
ATOM     21  C   UNL     1      44.909   2.228   9.227  0.00  0.00    +0.000 A 
ATOM     22  C   UNL     1      45.880   1.778   8.318  0.00  0.00    +0.000 A 
ATOM     23  C   UNL     1      46.588   2.688   7.522  0.00  0.00    +0.000 A 
ATOM     24  C   UNL     1      46.316   4.051   7.641  0.00  0.00    +0.000 A 
ATOM     25  C   UNL     1      45.345   4.489   8.547  0.00  0.00    +0.000 A 
BRANCH  23  26
ATOM     26  C   UNL     1      47.661   2.176   6.625  0.00  0.00    +0.000 C 
ATOM     27  N   UNL     1      48.022   2.964   5.567  0.00  0.00    +0.000 N 
ATOM     28  O   UNL     1      48.196   1.091   6.816  0.00  0.00    +0.000 OA
ATOM     29  H   UNL     1      47.494   3.769   5.261  0.00  0.00    +0.000 HD
ATOM     30  H   UNL     1      48.711   2.582   4.930  0.00  0.00    +0.000 HD
ENDBRANCH  23  26
ENDBRANCH  18  20
ENDBRANCH   1  18
TORSDOF 6
ENDMDL
MODEL 4
REMARK VINA RESULT:    -6.514      5.072      8.927
REMARK INTER + INTRA:          -9.750
REMARK INTER:                  -8.850
REMARK INTRA:                  -0.900
REMARK UNBOUND:                -0.951
REMARK  Name = 
REMARK  6 active torsions:
REMARK  status: ('A' for Active; 'I' for Inactive)
REMARK    1  A    between atoms: C_2  and  C_3
REMARK    2  A    between atoms: C_6  and  C_7
REMARK    3  A    between atoms: C_11  and  C_12
REMARK    4  A    between atoms: C_12  and  N_13
REMARK    5  A    between atoms: N_13  and  C_14
REMARK    6  A    between atoms: C_17  and  C_18
REMARK                            x       y       z     vdW  Elec       q    Type
REMARK                         _______ _______ _______ _____ _____    ______ ____
ROOT
ATOM      1  C   UNL     1      49.681   7.108  17.293  0.00  0.00    +0.000 C 
ATOM      2  C   UNL     1      48.496   7.218  18.231  0.00  0.00    +0.000 C 
ATOM      3  C   UNL     1      49.354   8.418  18.004  0.00  0.00    +0.000 C 
ENDROOT
BRANCH   1   8
ATOM      4  C   UNL     1      48.133   6.259  13.886  0.00  0.00    +0.000 A 
ATOM      5  C   UNL     1      48.980   7.015  13.069  0.00  0.00    +0.000 A 
ATOM      6  C   UNL     1      50.003   7.747  13.646  0.00  0.00    +0.000 A 
ATOM      7  N   UNL     1      50.243   7.781  14.970  0.00  0.00    +0.000 NA
ATOM      8  C   UNL     1      49.423   7.069  15.786  0.00  0.00    +0.000 A 
ATOM      9  C   UNL     1      48.379   6.302  15.265  0.00  0.00    +0.000 A 
BRANCH   4  13
ATOM     10  C   UNL     1      44.964   3.907  12.333  0.00  0.00    +0.000 A 
ATOM     11  C   UNL     1      45.090   5.214  11.882  0.00  0.00    +0.000 A 
ATOM     12  C   UNL     1      46.128   5.990  12.392  0.00  0.00    +0.000 A 
ATOM     13  C   UNL     1      47.028   5.460  13.329  0.00  0.00    +0.000 A 
ATOM     14  C   UNL     1      46.802   4.132  13.706  0.00  0.00    +0.000 A 
ATOM     15  N   UNL     1      45.800   3.349  13.238  0.00  0.00    +0.000 NA
BRANCH  10  17
ATOM     16  N   UNL     1      43.039   2.378  11.491  0.00  0.00    +0.000 NA
ATOM     17  C   UNL     1      43.909   3.067  11.842  0.00  0.00    +0.000 C 
ENDBRANCH  10  17
ENDBRANCH   4  13
ENDBRANCH   1   8
BRANCH   1  18
ATOM     18  N   UNL     1      50.979   6.521  17.685  0.00  0.00    +0.000 N 
ATOM     19  H   UNL     1      51.758   7.115  17.402  0.00  0.00    +0.000 HD
BRANCH  18  20
ATOM     20  C   UNL     1      51.323   5.157  17.586  0.00  0.00    +0.000 A 
ATOM     21  C   UNL     1      50.398   4.117  17.493  0.00  0.00    +0.000 A 
ATOM     22  C   UNL     1      50.818   2.777  17.529  0.00  0.00    +0.000 A 
ATOM     23  C   UNL     1      52.173   2.459  17.683  0.00  0.00    +0.000 A 
ATOM     24  C   UNL     1      53.106   3.491  17.797  0.00  0.00    +0.000 A 
ATOM     25  C   UNL     1      52.677   4.821  17.756  0.00  0.00    +0.000 A 
BRANCH  23  26
ATOM     26  C   UNL     1      52.568   1.027  17.792  0.00  0.00    +0.000 C 
ATOM     27  N   UNL     1      51.599   0.136  18.162  0.00  0.00    +0.000 N 
ATOM     28  O   UNL     1      53.714   0.657  17.567  0.00  0.00    +0.000 OA
ATOM     29  H   UNL     1      50.698   0.408  18.531  0.00  0.00    +0.000 HD
ATOM     30  H   UNL     1      51.890  -0.826  18.289  0.00  0.00    +0.000 HD
ENDBRANCH  23  26
ENDBRANCH  18  20
ENDBRANCH   1  18
TORSDOF 6
ENDMDL
MODEL 5
REMARK VINA RESULT:    -6.348      4.525      6.555
REMARK INTER + INTRA:          -9.526
REMARK INTER:                  -8.694
REMARK INTRA:                  -0.831
REMARK UNBOUND:                -0.951
REMARK  Name = 
REMARK  6 active torsions:
REMARK  status: ('A' for Active; 'I' for Inactive)
REMARK    1  A    between atoms: C_2  and  C_3
REMARK    2  A    between atoms: C_6  and  C_7
REMARK    3  A    between atoms: C_11  and  C_12
REMARK    4  A    between atoms: C_12  and  N_13
REMARK    5  A    between atoms: N_13  and  C_14
REMARK    6  A    between atoms: C_17  and  C_18
REMARK                            x       y       z     vdW  Elec       q    Type
REMARK                         _______ _______ _______ _____ _____    ______ ____
ROOT
ATOM      1  C   UNL     1      47.868   7.784  13.293  0.00  0.00    +0.000 C 
ATOM      2  C   UNL     1      48.763   7.414  12.128  0.00  0.00    +0.000 C 
ATOM      3  C   UNL     1      48.365   8.841  12.310  0.00  0.00    +0.000 C 
ENDROOT
BRANCH   1   8
ATOM      4  C   UNL     1      49.774   6.774  16.465  0.00  0.00    +0.000 A 
ATOM      5  C   UNL     1      49.543   7.921  17.232  0.00  0.00    +0.000 A 
ATOM      6  C   UNL     1      48.785   8.949  16.700  0.00  0.00    +0.000 A 
ATOM      7  N   UNL     1      48.244   8.920  15.468  0.00  0.00    +0.000 NA
ATOM      8  C   UNL     1      48.470   7.824  14.697  0.00  0.00    +0.000 A 
ATOM      9  C   UNL     1      49.218   6.748  15.179  0.00  0.00    +0.000 A 
BRANCH   4  13
ATOM     10  C   UNL     1      52.131   3.572  17.943  0.00  0.00    +0.000 A 
ATOM     11  C   UNL     1      50.756   3.393  17.870  0.00  0.00    +0.000 A 
ATOM     12  C   UNL     1      49.979   4.444  17.389  0.00  0.00    +0.000 A 
ATOM     13  C   UNL     1      50.573   5.646  16.977  0.00  0.00    +0.000 A 
ATOM     14  C   UNL     1      51.966   5.709  17.094  0.00  0.00    +0.000 A 
ATOM     15  N   UNL     1      52.753   4.712  17.565  0.00  0.00    +0.000 NA
BRANCH  10  17
ATOM     16  N   UNL     1      53.630   1.637  18.817  0.00  0.00    +0.000 NA
ATOM     17  C   UNL     1      52.977   2.522  18.436  0.00  0.00    +0.000 C 
ENDBRANCH  10  17
ENDBRANCH   4  13
ENDBRANCH   1   8
BRANCH   1  18
ATOM     18  N   UNL     1      46.401   7.601  13.284  0.00  0.00    +0.000 N 
ATOM     19  H   UNL     1      45.971   7.989  14.123  0.00  0.00    +0.000 HD
BRANCH  18  20
ATOM     20  C   UNL     1      45.726   6.437  12.862  0.00  0.00    +0.000 A 
ATOM     21  C   UNL     1      45.858   5.187  13.468  0.00  0.00    +0.000 A 
ATOM     22  C   UNL     1      45.253   4.051  12.907  0.00  0.00    +0.000 A 
ATOM     23  C   UNL     1      44.523   4.146  11.715  0.00  0.00    +0.000 A 
ATOM     24  C   UNL     1      44.401   5.387  11.090  0.00  0.00    +0.000 A 
ATOM     25  C   UNL     1      45.005   6.513  11.658  0.00  0.00    +0.000 A 
BRANCH  23  26
ATOM     26  C   UNL     1      43.960   2.904  11.115  0.00  0.00    +0.000 C 
ATOM     27  N   UNL     1      44.657   2.335  10.085  0.00  0.00    +0.000 N 
ATOM     28  O   UNL     1      42.914   2.413  11.518  0.00  0.00    +0.000 OA
ATOM     29  H   UNL     1      45.416   2.793   9.600  0.00  0.00    +0.000 HD
ATOM     30  H   UNL     1      44.237   1.524   9.646  0.00  0.00    +0.000 HD
ENDBRANCH  23  26
ENDBRANCH  18  20
ENDBRANCH   1  18
TORSDOF 6
ENDMDL
MODEL 6
REMARK VINA RESULT:    -5.713      3.979      7.054
REMARK INTER + INTRA:          -8.669
REMARK INTER:                  -7.900
REMARK INTRA:                  -0.769
REMARK UNBOUND:                -0.951
REMARK  Name = 
REMARK  6 active torsions:
REMARK  status: ('A' for Active; 'I' for Inactive)
REMARK    1  A    between atoms: C_2  and  C_3
REMARK    2  A    between atoms: C_6  and  C_7
REMARK    3  A    between atoms: C_11  and  C_12
REMARK    4  A    between atoms: C_12  and  N_13
REMARK    5  A    between atoms: N_13  and  C_14
REMARK    6  A    between atoms: C_17  and  C_18
REMARK                            x       y       z     vdW  Elec       q    Type
REMARK                         _______ _______ _______ _____ _____    ______ ____
ROOT
ATOM      1  C   UNL     1      49.706   8.122  12.945  0.00  0.00    +0.000 C 
ATOM      2  C   UNL     1      48.980   9.219  13.696  0.00  0.00    +0.000 C 
ATOM      3  C   UNL     1      50.097   8.496  14.373  0.00  0.00    +0.000 C 
ENDROOT
BRANCH   1   8
ATOM      4  C   UNL     1      52.129   7.892   9.980  0.00  0.00    +0.000 A 
ATOM      5  C   UNL     1      52.470   9.244   9.873  0.00  0.00    +0.000 A 
ATOM      6  C   UNL     1      51.916  10.154  10.756  0.00  0.00    +0.000 A 
ATOM      7  N   UNL     1      51.053   9.818  11.732  0.00  0.00    +0.000 NA
ATOM      8  C   UNL     1      50.693   8.513  11.845  0.00  0.00    +0.000 A 
ATOM      9  C   UNL     1      51.224   7.545  10.991  0.00  0.00    +0.000 A 
BRANCH   4  13
ATOM     10  C   UNL     1      53.701   5.003   7.301  0.00  0.00    +0.000 A 
ATOM     11  C   UNL     1      54.191   5.026   8.600  0.00  0.00    +0.000 A 
ATOM     12  C   UNL     1      53.680   5.975   9.481  0.00  0.00    +0.000 A 
ATOM     13  C   UNL     1      52.687   6.877   9.069  0.00  0.00    +0.000 A 
ATOM     14  C   UNL     1      52.270   6.757   7.739  0.00  0.00    +0.000 A 
ATOM     15  N   UNL     1      52.749   5.852   6.851  0.00  0.00    +0.000 NA
BRANCH  10  17
ATOM     16  N   UNL     1      54.606   3.309   5.550  0.00  0.00    +0.000 NA
ATOM     17  C   UNL     1      54.198   4.047   6.352  0.00  0.00    +0.000 C 
ENDBRANCH  10  17
ENDBRANCH   4  13
ENDBRANCH   1   8
BRANCH   1  18
ATOM     18  N   UNL     1      49.185   6.745  12.809  0.00  0.00    +0.000 N 
ATOM     19  H   UNL     1      49.820   6.157  12.270  0.00  0.00    +0.000 HD
BRANCH  18  20
ATOM     20  C   UNL     1      47.840   6.402  12.554  0.00  0.00    +0.000 A 
ATOM     21  C   UNL     1      47.071   6.946  11.525  0.00  0.00    +0.000 A 
ATOM     22  C   UNL     1      45.702   6.649  11.420  0.00  0.00    +0.000 A 
ATOM     23  C   UNL     1      45.078   5.819  12.359  0.00  0.00    +0.000 A 
ATOM     24  C   UNL     1      45.833   5.286  13.405  0.00  0.00    +0.000 A 
ATOM     25  C   UNL     1      47.196   5.585  13.499  0.00  0.00    +0.000 A 
BRANCH  23  26
ATOM     26  C   UNL     1      43.610   5.590  12.254  0.00  0.00    +0.000 C 
ATOM     27  N   UNL     1      43.004   5.941  11.079  0.00  0.00    +0.000 N 
ATOM     28  O   UNL     1      42.965   5.114  13.180  0.00  0.00    +0.000 OA
ATOM     29  H   UNL     1      43.448   6.499  10.363  0.00  0.00    +0.000 HD
ATOM     30  H   UNL     1      41.997   5.835  11.037  0.00  0.00    +0.000 HD
ENDBRANCH  23  26
ENDBRANCH  18  20
ENDBRANCH   1  18
TORSDOF 6
ENDMDL
MODEL 7
REMARK VINA RESULT:    -5.707      3.979      8.806
REMARK INTER + INTRA:          -8.660
REMARK INTER:                  -7.805
REMARK INTRA:                  -0.855
REMARK UNBOUND:                -0.951
REMARK  Name = 
REMARK  6 active torsions:
REMARK  status: ('A' for Active; 'I' for Inactive)
REMARK    1  A    between atoms: C_2  and  C_3
REMARK    2  A    between atoms: C_6  and  C_7
REMARK    3  A    between atoms: C_11  and  C_12
REMARK    4  A    between atoms: C_12  and  N_13
REMARK    5  A    between atoms: N_13  and  C_14
REMARK    6  A    between atoms: C_17  and  C_18
REMARK                            x       y       z     vdW  Elec       q    Type
REMARK                         _______ _______ _______ _____ _____    ______ ____
ROOT
ATOM      1  C   UNL     1      50.669   8.631  12.258  0.00  0.00    +0.000 C 
ATOM      2  C   UNL     1      51.498   9.487  11.322  0.00  0.00    +0.000 C 
ATOM      3  C   UNL     1      51.346   8.031  11.028  0.00  0.00    +0.000 C 
ENDROOT
BRANCH   1   8
ATOM      4  C   UNL     1      46.953   7.708  12.016  0.00  0.00    +0.000 A 
ATOM      5  C   UNL     1      46.404   8.991  12.110  0.00  0.00    +0.000 A 
ATOM      6  C   UNL     1      47.247  10.081  12.237  0.00  0.00    +0.000 A 
ATOM      7  N   UNL     1      48.589   9.987  12.277  0.00  0.00    +0.000 NA
ATOM      8  C   UNL     1      49.146   8.750  12.205  0.00  0.00    +0.000 A 
ATOM      9  C   UNL     1      48.350   7.611  12.066  0.00  0.00    +0.000 A 
BRANCH   4  13
ATOM     10  C   UNL     1      44.496   4.265  11.692  0.00  0.00    +0.000 A 
ATOM     11  C   UNL     1      45.018   4.808  10.526  0.00  0.00    +0.000 A 
ATOM     12  C   UNL     1      45.823   5.941  10.628  0.00  0.00    +0.000 A 
ATOM     13  C   UNL     1      46.106   6.510  11.879  0.00  0.00    +0.000 A 
ATOM     14  C   UNL     1      45.527   5.874  12.983  0.00  0.00    +0.000 A 
ATOM     15  N   UNL     1      44.733   4.777  12.922  0.00  0.00    +0.000 NA
BRANCH  10  17
ATOM     16  N   UNL     1      42.996   2.144  11.645  0.00  0.00    +0.000 NA
ATOM     17  C   UNL     1      43.658   3.101  11.641  0.00  0.00    +0.000 C 
ENDBRANCH  10  17
ENDBRANCH   4  13
ENDBRANCH   1   8
BRANCH   1  18
ATOM     18  N   UNL     1      51.176   8.099  13.540  0.00  0.00    +0.000 N 
ATOM     19  H   UNL     1      51.666   7.214  13.410  0.00  0.00    +0.000 HD
BRANCH  18  20
ATOM     20  C   UNL     1      50.475   8.112  14.764  0.00  0.00    +0.000 A 
ATOM     21  C   UNL     1      49.779   7.021  15.285  0.00  0.00    +0.000 A 
ATOM     22  C   UNL     1      48.999   7.156  16.444  0.00  0.00    +0.000 A 
ATOM     23  C   UNL     1      48.886   8.394  17.089  0.00  0.00    +0.000 A 
ATOM     24  C   UNL     1      49.562   9.497  16.567  0.00  0.00    +0.000 A 
ATOM     25  C   UNL     1      50.339   9.352  15.413  0.00  0.00    +0.000 A 
BRANCH  23  26
ATOM     26  C   UNL     1      47.990   8.510  18.273  0.00  0.00    +0.000 C 
ATOM     27  N   UNL     1      47.331   7.380  18.673  0.00  0.00    +0.000 N 
ATOM     28  O   UNL     1      47.839   9.572  18.864  0.00  0.00    +0.000 OA
ATOM     29  H   UNL     1      47.277   6.536  18.120  0.00  0.00    +0.000 HD
ATOM     30  H   UNL     1      46.680   7.482  19.443  0.00  0.00    +0.000 HD
ENDBRANCH  23  26
ENDBRANCH  18  20
ENDBRANCH   1  18
TORSDOF 6
ENDMDL
MODEL 8
REMARK VINA RESULT:    -5.652      4.125      8.538
REMARK INTER + INTRA:          -8.585
REMARK INTER:                  -7.708
REMARK INTRA:                  -0.878
REMARK UNBOUND:                -0.951
REMARK  Name = 
REMARK  6 active torsions:
REMARK  status: ('A' for Active; 'I' for Inactive)
REMARK    1  A    between atoms: C_2  and  C_3
REMARK    2  A    between atoms: C_6  and  C_7
REMARK    3  A    between atoms: C_11  and  C_12
REMARK    4  A    between atoms: C_12  and  N_13
REMARK    5  A    between atoms: N_13  and  C_14
REMARK    6  A    between atoms: C_17  and  C_18
REMARK                            x       y       z     vdW  Elec       q    Type
REMARK                         _______ _______ _______ _____ _____    ______ ____
ROOT
ATOM      1  C   UNL     1      48.709   8.480  13.948  0.00  0.00    +0.000 C 
ATOM      2  C   UNL     1      48.992   9.807  14.622  0.00  0.00    +0.000 C 
ATOM      3  C   UNL     1      49.731   9.458  13.372  0.00  0.00    +0.000 C 
ENDROOT
BRANCH   1   8
ATOM      4  C   UNL     1      45.933   6.967  11.774  0.00  0.00    +0.000 A 
ATOM      5  C   UNL     1      45.053   8.054  11.758  0.00  0.00    +0.000 A 
ATOM      6  C   UNL     1      45.396   9.213  12.432  0.00  0.00    +0.000 A 
ATOM      7  N   UNL     1      46.543   9.367  13.118  0.00  0.00    +0.000 NA
ATOM      8  C   UNL     1      47.406   8.319  13.164  0.00  0.00    +0.000 A 
ATOM      9  C   UNL     1      47.123   7.126  12.496  0.00  0.00    +0.000 A 
BRANCH   4  13
ATOM     10  C   UNL     1      45.013   3.315   9.823  0.00  0.00    +0.000 A 
ATOM     11  C   UNL     1      45.429   4.387   9.044  0.00  0.00    +0.000 A 
ATOM     12  C   UNL     1      45.728   5.588   9.681  0.00  0.00    +0.000 A 
ATOM     13  C   UNL     1      45.623   5.707  11.075  0.00  0.00    +0.000 A 
ATOM     14  C   UNL     1      45.198   4.561  11.754  0.00  0.00    +0.000 A 
ATOM     15  N   UNL     1      44.890   3.378  11.168  0.00  0.00    +0.000 NA
BRANCH  10  17
ATOM     16  N   UNL     1      44.472   1.031   8.709  0.00  0.00    +0.000 NA
ATOM     17  C   UNL     1      44.688   2.056   9.214  0.00  0.00    +0.000 C 
ENDBRANCH  10  17
ENDBRANCH   4  13
ENDBRANCH   1   8
BRANCH   1  18
ATOM     18  N   UNL     1      49.292   7.198  14.395  0.00  0.00    +0.000 N 
ATOM     19  H   UNL     1      49.213   6.480  13.675  0.00  0.00    +0.000 HD
BRANCH  18  20
ATOM     20  C   UNL     1      49.149   6.640  15.682  0.00  0.00    +0.000 A 
ATOM     21  C   UNL     1      49.944   6.975  16.779  0.00  0.00    +0.000 A 
ATOM     22  C   UNL     1      49.823   6.279  17.992  0.00  0.00    +0.000 A 
ATOM     23  C   UNL     1      48.917   5.218  18.118  0.00  0.00    +0.000 A 
ATOM     24  C   UNL     1      48.132   4.860  17.022  0.00  0.00    +0.000 A 
ATOM     25  C   UNL     1      48.257   5.562  15.819  0.00  0.00    +0.000 A 
BRANCH  23  26
ATOM     26  C   UNL     1      48.874   4.458  19.399  0.00  0.00    +0.000 C 
ATOM     27  N   UNL     1      48.279   3.226  19.376  0.00  0.00    +0.000 N 
ATOM     28  O   UNL     1      49.341   4.915  20.434  0.00  0.00    +0.000 OA
ATOM     29  H   UNL     1      47.723   2.886  18.604  0.00  0.00    +0.000 HD
ATOM     30  H   UNL     1      48.203   2.742  20.262  0.00  0.00    +0.000 HD
ENDBRANCH  23  26
ENDBRANCH  18  20
ENDBRANCH   1  18
TORSDOF 6
ENDMDL
