MODEL 1
REMARK VINA RESULT:    -8.574      0.000      0.000
REMARK INTER + INTRA:         -11.979
REMARK INTER:                 -11.080
REMARK INTRA:                  -0.899
REMARK UNBOUND:                -0.899
REMARK  Name = 
REMARK  5 active torsions:
REMARK  status: ('A' for Active; 'I' for Inactive)
REMARK    1  A    between atoms: C_2  and  C_4
REMARK    2  A    between atoms: C_7  and  N_8
REMARK    3  A    between atoms: N_8  and  C_9
REMARK    4  A    between atoms: C_9  and  C_10
REMARK    5  A    between atoms: C_14  and  C_15
REMARK                            x       y       z     vdW  Elec       q    Type
REMARK                         _______ _______ _______ _____ _____    ______ ____
ROOT
ATOM      1  N   UNL     1      43.784   4.912   9.748  0.00  0.00    +0.000 N 
ATOM      2  H   UNL     1      42.870   4.942   9.305  0.00  0.00    +0.000 HD
ENDROOT
BRANCH   1   6
ATOM      3  C   UNL     1      46.227   2.040   7.938  0.00  0.00    +0.000 A 
ATOM      4  C   UNL     1      46.424   3.368   7.590  0.00  0.00    +0.000 A 
ATOM      5  C   UNL     1      45.621   4.335   8.194  0.00  0.00    +0.000 A 
ATOM      6  C   UNL     1      44.655   3.982   9.136  0.00  0.00    +0.000 A 
ATOM      7  C   UNL     1      44.523   2.608   9.382  0.00  0.00    +0.000 A 
ATOM      8  N   UNL     1      45.281   1.630   8.827  0.00  0.00    +0.000 NA
BRANCH   3  10
ATOM      9  N   UNL     1      46.785  -0.306   7.682  0.00  0.00    +0.000 N 
ATOM     10  C   UNL     1      47.080   0.980   7.313  0.00  0.00    +0.000 C 
ATOM     11  O   UNL     1      47.981   1.232   6.524  0.00  0.00    +0.000 OA
ATOM     12  H   UNL     1      47.315  -1.071   7.289  0.00  0.00    +0.000 HD
ATOM     13  H   UNL     1      46.023  -0.478   8.327  0.00  0.00    +0.000 HD
ENDBRANCH   3  10
ENDBRANCH   1   6
BRANCH   1  14
ATOM     14  C   UNL     1      43.776   5.159  11.211  0.00  0.00    +0.000 C 
ATOM     15  C   UNL     1      42.690   4.515  12.056  0.00  0.00    +0.000 C 
ATOM     16  C   UNL     1      42.630   5.982  11.796  0.00  0.00    +0.000 C 
BRANCH  14  17
ATOM     17  C   UNL     1      45.140   5.464  11.829  0.00  0.00    +0.000 A 
ATOM     18  C   UNL     1      45.967   6.479  11.319  0.00  0.00    +0.000 A 
ATOM     19  C   UNL     1      47.168   6.831  11.944  0.00  0.00    +0.000 A 
ATOM     20  C   UNL     1      47.576   6.161  13.097  0.00  0.00    +0.000 A 
ATOM     21  C   UNL     1      46.790   5.133  13.626  0.00  0.00    +0.000 A 
ATOM     22  C   UNL     1      45.590   4.796  12.979  0.00  0.00    +0.000 A 
BRANCH  21  23
ATOM     23  C   UNL     1      47.171   4.396  14.883  0.00  0.00    +0.000 C 
ATOM     24  F   UNL     1      47.526   3.099  14.676  0.00  0.00    +0.000 F 
ATOM     25  F   UNL     1      48.230   4.977  15.517  0.00  0.00    +0.000 F 
ATOM     26  F   UNL     1      46.162   4.371  15.797  0.00  0.00    +0.000 F 
ENDBRANCH  21  23
ENDBRANCH  14  17
ENDBRANCH   1  14
TORSDOF 5
ENDMDL
MODEL 2
REMARK VINA RESULT:    -8.434      2.183      2.821
REMARK INTER + INTRA:         -11.798
REMARK INTER:                 -10.912
REMARK INTRA:                  -0.886
REMARK UNBOUND:                -0.899
REMARK  Name = 
REMARK  5 active torsions:
REMARK  status: ('A' for Active; 'I' for Inactive)
REMARK    1  A    between atoms: C_2  and  C_4
REMARK    2  A    between atoms: C_7  and  N_8
REMARK    3  A    between atoms: N_8  and  C_9
REMARK    4  A    between atoms: C_9  and  C_10
REMARK    5  A    between atoms: C_14  and  C_15
REMARK                            x       y       z     vdW  Elec       q    Type
REMARK                         _______ _______ _______ _____ _____    ______ ____
ROOT
ATOM      1  N   UNL     1      44.099   5.115   9.907  0.00  0.00    +0.000 N 
ATOM      2  H   UNL     1      43.254   5.403   9.421  0.00  0.00    +0.000 HD
ENDROOT
BRANCH   1   6
ATOM      3  C   UNL     1      46.601   2.660   7.625  0.00  0.00    +0.000 A 
ATOM      4  C   UNL     1      45.704   2.046   8.487  0.00  0.00    +0.000 A 
ATOM      5  C   UNL     1      44.859   2.855   9.246  0.00  0.00    +0.000 A 
ATOM      6  C   UNL     1      44.900   4.244   9.134  0.00  0.00    +0.000 A 
ATOM      7  C   UNL     1      45.870   4.751   8.257  0.00  0.00    +0.000 A 
ATOM      8  N   UNL     1      46.709   4.011   7.493  0.00  0.00    +0.000 NA
BRANCH   3  10
ATOM      9  N   UNL     1      48.619   2.460   6.296  0.00  0.00    +0.000 N 
ATOM     10  C   UNL     1      47.515   1.818   6.790  0.00  0.00    +0.000 C 
ATOM     11  O   UNL     1      47.303   0.635   6.559  0.00  0.00    +0.000 OA
ATOM     12  H   UNL     1      49.283   1.948   5.733  0.00  0.00    +0.000 HD
ATOM     13  H   UNL     1      48.770   3.437   6.518  0.00  0.00    +0.000 HD
ENDBRANCH   3  10
ENDBRANCH   1   6
BRANCH   1  14
ATOM     14  C   UNL     1      43.957   4.978  11.378  0.00  0.00    +0.000 C 
ATOM     15  C   UNL     1      42.947   3.983  11.925  0.00  0.00    +0.000 C 
ATOM     16  C   UNL     1      42.651   5.441  12.020  0.00  0.00    +0.000 C 
BRANCH  14  17
ATOM     17  C   UNL     1      45.205   5.320  12.189  0.00  0.00    +0.000 A 
ATOM     18  C   UNL     1      45.642   4.503  13.246  0.00  0.00    +0.000 A 
ATOM     19  C   UNL     1      46.840   4.754  13.921  0.00  0.00    +0.000 A 
ATOM     20  C   UNL     1      47.630   5.845  13.558  0.00  0.00    +0.000 A 
ATOM     21  C   UNL     1      47.222   6.691  12.523  0.00  0.00    +0.000 A 
ATOM     22  C   UNL     1      46.014   6.420  11.861  0.00  0.00    +0.000 A 
BRANCH  21  23
ATOM     23  C   UNL     1      48.050   7.867  12.074  0.00  0.00    +0.000 C 
ATOM     24  F   UNL     1      48.827   7.612  10.987  0.00  0.00    +0.000 F 
ATOM     25  F   UNL     1      47.277   8.939  11.737  0.00  0.00    +0.000 F 
ATOM     26  F   UNL     1      48.893   8.311  13.047  0.00  0.00    +0.000 F 
ENDBRANCH  21  23
ENDBRANCH  14  17
ENDBRANCH   1  14
TORSDOF 5
ENDMDL
MODEL 3
REMARK VINA RESULT:    -8.051      1.962      2.496
REMARK INTER + INTRA:         -11.304
REMARK INTER:                 -10.458
REMARK INTRA:                  -0.845
REMARK UNBOUND:                -0.899
REMARK  Name = 
REMARK  5 active torsions:
REMARK  status: ('A' for Active; 'I' for Inactive)
REMARK    1  A    between atoms: C_2  and  C_4
REMARK    2  A    between atoms: C_7  and  N_8
REMARK    3  A    between atoms: N_8  and  C_9
REMARK    4  A    between atoms: C_9  and  C_10
REMARK    5  A    between atoms: C_14  and  C_15
REMARK                            x       y       z     vdW  Elec       q    Type
REMARK                         _______ _______ _______ _____ _____    ______ ____
ROOT
ATOM      1  N   UNL     1      43.755   4.426  10.315  0.00  0.00    +0.000 N 
ATOM      2  H   UNL     1      42.837   3.994  10.253  0.00  0.00    +0.000 HD
ENDROOT
BRANCH   1   6
ATOM      3  C   UNL     1      46.449   2.480   7.775  0.00  0.00    +0.000 A 
ATOM      4  C   UNL     1      46.327   3.857   7.656  0.00  0.00    +0.000 A 
ATOM      5  C   UNL     1      45.438   4.517   8.504  0.00  0.00    +0.000 A 
ATOM      6  C   UNL     1      44.701   3.817   9.459  0.00  0.00    +0.000 A 
ATOM      7  C   UNL     1      44.882   2.427   9.464  0.00  0.00    +0.000 A 
ATOM      8  N   UNL     1      45.735   1.739   8.667  0.00  0.00    +0.000 NA
BRANCH   3  10
ATOM      9  N   UNL     1      48.484   2.466   6.458  0.00  0.00    +0.000 N 
ATOM     10  C   UNL     1      47.401   1.745   6.885  0.00  0.00    +0.000 C 
ATOM     11  O   UNL     1      47.236   0.577   6.555  0.00  0.00    +0.000 OA
ATOM     12  H   UNL     1      49.173   2.027   5.864  0.00  0.00    +0.000 HD
ATOM     13  H   UNL     1      48.596   3.426   6.762  0.00  0.00    +0.000 HD
ENDBRANCH   3  10
ENDBRANCH   1   6
BRANCH   1  14
ATOM     14  C   UNL     1      44.109   4.947  11.659  0.00  0.00    +0.000 C 
ATOM     15  C   UNL     1      44.267   3.963  12.806  0.00  0.00    +0.000 C 
ATOM     16  C   UNL     1      43.065   4.844  12.768  0.00  0.00    +0.000 C 
BRANCH  14  17
ATOM     17  C   UNL     1      44.897   6.255  11.664  0.00  0.00    +0.000 A 
ATOM     18  C   UNL     1      44.264   7.495  11.474  0.00  0.00    +0.000 A 
ATOM     19  C   UNL     1      44.964   8.701  11.582  0.00  0.00    +0.000 A 
ATOM     20  C   UNL     1      46.327   8.693  11.876  0.00  0.00    +0.000 A 
ATOM     21  C   UNL     1      46.997   7.479  12.055  0.00  0.00    +0.000 A 
ATOM     22  C   UNL     1      46.274   6.281  11.939  0.00  0.00    +0.000 A 
BRANCH  21  23
ATOM     23  C   UNL     1      48.463   7.413  12.399  0.00  0.00    +0.000 C 
ATOM     24  F   UNL     1      48.830   6.268  13.033  0.00  0.00    +0.000 F 
ATOM     25  F   UNL     1      49.254   7.499  11.292  0.00  0.00    +0.000 F 
ATOM     26  F   UNL     1      48.852   8.437  13.210  0.00  0.00    +0.000 F 
ENDBRANCH  21  23
ENDBRANCH  14  17
ENDBRANCH   1  14
TORSDOF 5
ENDMDL
MODEL 4
REMARK VINA RESULT:    -7.719      4.377      6.696
REMARK INTER + INTRA:         -10.875
REMARK INTER:                 -10.264
REMARK INTRA:                  -0.610
REMARK UNBOUND:                -0.899
REMARK  Name = 
REMARK  5 active torsions:
REMARK  status: ('A' for Active; 'I' for Inactive)
REMARK    1  A    between atoms: C_2  and  C_4
REMARK    2  A    between atoms: C_7  and  N_8
REMARK    3  A    between atoms: N_8  and  C_9
REMARK    4  A    between atoms: C_9  and  C_10
REMARK    5  A    between atoms: C_14  and  C_15
REMARK                            x       y       z     vdW  Elec       q    Type
REMARK                         _______ _______ _______ _____ _____    ______ ____
ROOT
ATOM      1  N   UNL     1      45.468   2.931  12.437  0.00  0.00    +0.000 N 
ATOM      2  H   UNL     1      45.209   2.196  13.091  0.00  0.00    +0.000 HD
ENDROOT
BRANCH   1   6
ATOM      3  C   UNL     1      47.773   5.884  14.298  0.00  0.00    +0.000 A 
ATOM      4  C   UNL     1      47.023   6.251  13.190  0.00  0.00    +0.000 A 
ATOM      5  C   UNL     1      46.245   5.276  12.567  0.00  0.00    +0.000 A 
ATOM      6  C   UNL     1      46.204   3.969  13.052  0.00  0.00    +0.000 A 
ATOM      7  C   UNL     1      47.028   3.708  14.155  0.00  0.00    +0.000 A 
ATOM      8  N   UNL     1      47.798   4.618  14.800  0.00  0.00    +0.000 NA
BRANCH   3  10
ATOM      9  N   UNL     1      47.983   8.094  15.271  0.00  0.00    +0.000 N 
ATOM     10  C   UNL     1      48.612   6.910  14.994  0.00  0.00    +0.000 C 
ATOM     11  O   UNL     1      49.780   6.715  15.302  0.00  0.00    +0.000 OA
ATOM     12  H   UNL     1      48.488   8.827  15.749  0.00  0.00    +0.000 HD
ATOM     13  H   UNL     1      47.011   8.217  15.014  0.00  0.00    +0.000 HD
ENDBRANCH   3  10
ENDBRANCH   1   6
BRANCH   1  14
ATOM     14  C   UNL     1      44.483   3.178  11.355  0.00  0.00    +0.000 C 
ATOM     15  C   UNL     1      43.178   3.875  11.700  0.00  0.00    +0.000 C 
ATOM     16  C   UNL     1      43.161   2.416  11.398  0.00  0.00    +0.000 C 
BRANCH  14  17
ATOM     17  C   UNL     1      45.075   3.320   9.955  0.00  0.00    +0.000 A 
ATOM     18  C   UNL     1      45.193   4.574   9.330  0.00  0.00    +0.000 A 
ATOM     19  C   UNL     1      45.829   4.721   8.093  0.00  0.00    +0.000 A 
ATOM     20  C   UNL     1      46.357   3.606   7.444  0.00  0.00    +0.000 A 
ATOM     21  C   UNL     1      46.246   2.339   8.024  0.00  0.00    +0.000 A 
ATOM     22  C   UNL     1      45.600   2.216   9.265  0.00  0.00    +0.000 A 
BRANCH  21  23
ATOM     23  C   UNL     1      46.821   1.106   7.377  0.00  0.00    +0.000 C 
ATOM     24  F   UNL     1      46.576   1.017   6.043  0.00  0.00    +0.000 F 
ATOM     25  F   UNL     1      48.177   1.042   7.513  0.00  0.00    +0.000 F 
ATOM     26  F   UNL     1      46.341  -0.042   7.930  0.00  0.00    +0.000 F 
ENDBRANCH  21  23
ENDBRANCH  14  17
ENDBRANCH   1  14
TORSDOF 5
ENDMDL
MODEL 5
REMARK VINA RESULT:    -6.906      3.429      4.018
REMARK INTER + INTRA:          -9.823
REMARK INTER:                  -8.932
REMARK INTRA:                  -0.891
REMARK UNBOUND:                -0.899
REMARK  Name = 
REMARK  5 active torsions:
REMARK  status: ('A' for Active; 'I' for Inactive)
REMARK    1  A    between atoms: C_2  and  C_4
REMARK    2  A    between atoms: C_7  and  N_8
REMARK    3  A    between atoms: N_8  and  C_9
REMARK    4  A    between atoms: C_9  and  C_10
REMARK    5  A    between atoms: C_14  and  C_15
REMARK                            x       y       z     vdW  Elec       q    Type
REMARK                         _______ _______ _______ _____ _____    ______ ____
ROOT
ATOM      1  N   UNL     1      43.797   4.516  10.489  0.00  0.00    +0.000 N 
ATOM      2  H   UNL     1      42.879   4.084  10.417  0.00  0.00    +0.000 HD
ENDROOT
BRANCH   1   6
ATOM      3  C   UNL     1      46.394   2.873   7.652  0.00  0.00    +0.000 A 
ATOM      4  C   UNL     1      46.395   4.251   7.807  0.00  0.00    +0.000 A 
ATOM      5  C   UNL     1      45.539   4.809   8.757  0.00  0.00    +0.000 A 
ATOM      6  C   UNL     1      44.714   4.005   9.542  0.00  0.00    +0.000 A 
ATOM      7  C   UNL     1      44.774   2.631   9.273  0.00  0.00    +0.000 A 
ATOM      8  N   UNL     1      45.591   2.038   8.368  0.00  0.00    +0.000 NA
BRANCH   3  10
ATOM      9  N   UNL     1      48.000   1.147   7.087  0.00  0.00    +0.000 N 
ATOM     10  C   UNL     1      47.308   2.244   6.647  0.00  0.00    +0.000 C 
ATOM     11  O   UNL     1      47.435   2.669   5.507  0.00  0.00    +0.000 OA
ATOM     12  H   UNL     1      48.626   0.667   6.456  0.00  0.00    +0.000 HD
ATOM     13  H   UNL     1      47.860   0.814   8.033  0.00  0.00    +0.000 HD
ENDBRANCH   3  10
ENDBRANCH   1   6
BRANCH   1  14
ATOM     14  C   UNL     1      44.197   4.904  11.864  0.00  0.00    +0.000 C 
ATOM     15  C   UNL     1      44.733   3.834  12.800  0.00  0.00    +0.000 C 
ATOM     16  C   UNL     1      43.365   4.378  13.031  0.00  0.00    +0.000 C 
BRANCH  14  17
ATOM     17  C   UNL     1      44.652   6.354  12.026  0.00  0.00    +0.000 A 
ATOM     18  C   UNL     1      45.845   6.679  12.693  0.00  0.00    +0.000 A 
ATOM     19  C   UNL     1      46.317   7.994  12.752  0.00  0.00    +0.000 A 
ATOM     20  C   UNL     1      45.594   9.023  12.150  0.00  0.00    +0.000 A 
ATOM     21  C   UNL     1      44.393   8.743  11.493  0.00  0.00    +0.000 A 
ATOM     22  C   UNL     1      43.937   7.415  11.448  0.00  0.00    +0.000 A 
BRANCH  21  23
ATOM     23  C   UNL     1      43.585   9.812  10.804  0.00  0.00    +0.000 C 
ATOM     24  F   UNL     1      43.458  10.958  11.525  0.00  0.00    +0.000 F 
ATOM     25  F   UNL     1      44.135  10.180   9.611  0.00  0.00    +0.000 F 
ATOM     26  F   UNL     1      42.319   9.402  10.515  0.00  0.00    +0.000 F 
ENDBRANCH  21  23
ENDBRANCH  14  17
ENDBRANCH   1  14
TORSDOF 5
ENDMDL
MODEL 6
REMARK VINA RESULT:    -6.819      4.210      6.728
REMARK INTER + INTRA:          -9.711
REMARK INTER:                  -9.320
REMARK INTRA:                  -0.391
REMARK UNBOUND:                -0.899
REMARK  Name = 
REMARK  5 active torsions:
REMARK  status: ('A' for Active; 'I' for Inactive)
REMARK    1  A    between atoms: C_2  and  C_4
REMARK    2  A    between atoms: C_7  and  N_8
REMARK    3  A    between atoms: N_8  and  C_9
REMARK    4  A    between atoms: C_9  and  C_10
REMARK    5  A    between atoms: C_14  and  C_15
REMARK                            x       y       z     vdW  Elec       q    Type
REMARK                         _______ _______ _______ _____ _____    ______ ____
ROOT
ATOM      1  N   UNL     1      45.399   3.442  12.434  0.00  0.00    +0.000 N 
ATOM      2  H   UNL     1      45.144   2.887  13.246  0.00  0.00    +0.000 HD
ENDROOT
BRANCH   1   6
ATOM      3  C   UNL     1      47.180   7.070  13.511  0.00  0.00    +0.000 A 
ATOM      4  C   UNL     1      47.904   5.906  13.724  0.00  0.00    +0.000 A 
ATOM      5  C   UNL     1      47.323   4.692  13.361  0.00  0.00    +0.000 A 
ATOM      6  C   UNL     1      46.055   4.645  12.783  0.00  0.00    +0.000 A 
ATOM      7  C   UNL     1      45.406   5.880  12.647  0.00  0.00    +0.000 A 
ATOM      8  N   UNL     1      45.927   7.087  12.978  0.00  0.00    +0.000 NA
BRANCH   3  10
ATOM      9  N   UNL     1      47.131   9.074  14.875  0.00  0.00    +0.000 N 
ATOM     10  C   UNL     1      47.781   8.390  13.882  0.00  0.00    +0.000 C 
ATOM     11  O   UNL     1      48.785   8.838  13.344  0.00  0.00    +0.000 OA
ATOM     12  H   UNL     1      47.490   9.967  15.183  0.00  0.00    +0.000 HD
ATOM     13  H   UNL     1      46.311   8.667  15.308  0.00  0.00    +0.000 HD
ENDBRANCH   3  10
ENDBRANCH   1   6
BRANCH   1  14
ATOM     14  C   UNL     1      44.457   3.345  11.291  0.00  0.00    +0.000 C 
ATOM     15  C   UNL     1      43.019   3.794  11.488  0.00  0.00    +0.000 C 
ATOM     16  C   UNL     1      43.315   2.337  11.384  0.00  0.00    +0.000 C 
BRANCH  14  17
ATOM     17  C   UNL     1      45.100   3.434   9.908  0.00  0.00    +0.000 A 
ATOM     18  C   UNL     1      45.289   4.668   9.263  0.00  0.00    +0.000 A 
ATOM     19  C   UNL     1      45.970   4.762   8.045  0.00  0.00    +0.000 A 
ATOM     20  C   UNL     1      46.472   3.613   7.435  0.00  0.00    +0.000 A 
ATOM     21  C   UNL     1      46.289   2.365   8.036  0.00  0.00    +0.000 A 
ATOM     22  C   UNL     1      45.599   2.294   9.257  0.00  0.00    +0.000 A 
BRANCH  21  23
ATOM     23  C   UNL     1      46.832   1.096   7.433  0.00  0.00    +0.000 C 
ATOM     24  F   UNL     1      48.184   0.974   7.529  0.00  0.00    +0.000 F 
ATOM     25  F   UNL     1      46.314  -0.017   8.027  0.00  0.00    +0.000 F 
ATOM     26  F   UNL     1      46.533   0.980   6.109  0.00  0.00    +0.000 F 
ENDBRANCH  21  23
ENDBRANCH  14  17
ENDBRANCH   1  14
TORSDOF 5
ENDMDL
MODEL 7
REMARK VINA RESULT:    -6.765      4.291      6.313
REMARK INTER + INTRA:          -9.642
REMARK INTER:                  -8.952
REMARK INTRA:                  -0.690
REMARK UNBOUND:                -0.899
REMARK  Name = 
REMARK  5 active torsions:
REMARK  status: ('A' for Active; 'I' for Inactive)
REMARK    1  A    between atoms: C_2  and  C_4
REMARK    2  A    between atoms: C_7  and  N_8
REMARK    3  A    between atoms: N_8  and  C_9
REMARK    4  A    between atoms: C_9  and  C_10
REMARK    5  A    between atoms: C_14  and  C_15
REMARK                            x       y       z     vdW  Elec       q    Type
REMARK                         _______ _______ _______ _____ _____    ______ ____
ROOT
ATOM      1  N   UNL     1      44.627   5.591  12.898  0.00  0.00    +0.000 N 
ATOM      2  H   UNL     1      44.092   5.863  13.719  0.00  0.00    +0.000 HD
ENDROOT
BRANCH   1   6
ATOM      3  C   UNL     1      48.523   7.109  12.812  0.00  0.00    +0.000 A 
ATOM      4  C   UNL     1      47.498   7.933  12.371  0.00  0.00    +0.000 A 
ATOM      5  C   UNL     1      46.194   7.440  12.403  0.00  0.00    +0.000 A 
ATOM      6  C   UNL     1      45.921   6.159  12.881  0.00  0.00    +0.000 A 
ATOM      7  C   UNL     1      47.039   5.406  13.267  0.00  0.00    +0.000 A 
ATOM      8  N   UNL     1      48.324   5.839  13.261  0.00  0.00    +0.000 NA
BRANCH   3  10
ATOM      9  N   UNL     1      50.640   7.349  11.655  0.00  0.00    +0.000 N 
ATOM     10  C   UNL     1      49.933   7.613  12.797  0.00  0.00    +0.000 C 
ATOM     11  O   UNL     1      50.430   8.223  13.735  0.00  0.00    +0.000 OA
ATOM     12  H   UNL     1      51.595   7.671  11.574  0.00  0.00    +0.000 HD
ATOM     13  H   UNL     1      50.193   6.853  10.893  0.00  0.00    +0.000 HD
ENDBRANCH   3  10
ENDBRANCH   1   6
BRANCH   1  14
ATOM     14  C   UNL     1      43.823   5.391  11.667  0.00  0.00    +0.000 C 
ATOM     15  C   UNL     1      43.126   6.589  11.046  0.00  0.00    +0.000 C 
ATOM     16  C   UNL     1      42.309   5.568  11.761  0.00  0.00    +0.000 C 
BRANCH  14  17
ATOM     17  C   UNL     1      44.261   4.223  10.785  0.00  0.00    +0.000 A 
ATOM     18  C   UNL     1      43.740   2.930  10.965  0.00  0.00    +0.000 A 
ATOM     19  C   UNL     1      44.058   1.883  10.095  0.00  0.00    +0.000 A 
ATOM     20  C   UNL     1      44.921   2.105   9.022  0.00  0.00    +0.000 A 
ATOM     21  C   UNL     1      45.473   3.373   8.819  0.00  0.00    +0.000 A 
ATOM     22  C   UNL     1      45.141   4.409   9.707  0.00  0.00    +0.000 A 
BRANCH  21  23
ATOM     23  C   UNL     1      46.389   3.674   7.661  0.00  0.00    +0.000 C 
ATOM     24  F   UNL     1      47.427   2.804   7.538  0.00  0.00    +0.000 F 
ATOM     25  F   UNL     1      45.732   3.644   6.466  0.00  0.00    +0.000 F 
ATOM     26  F   UNL     1      46.943   4.915   7.746  0.00  0.00    +0.000 F 
ENDBRANCH  21  23
ENDBRANCH  14  17
ENDBRANCH   1  14
TORSDOF 5
ENDMDL
MODEL 8
REMARK VINA RESULT:    -6.765      4.432      6.940
REMARK INTER + INTRA:          -9.642
REMARK INTER:                  -9.544
REMARK INTRA:                  -0.098
REMARK UNBOUND:                -0.899
REMARK  Name = 
REMARK  5 active torsions:
REMARK  status: ('A' for Active; 'I' for Inactive)
REMARK    1  A    between atoms: C_2  and  C_4
REMARK    2  A    between atoms: C_7  and  N_8
REMARK    3  A    between atoms: N_8  and  C_9
REMARK    4  A    between atoms: C_9  and  C_10
REMARK    5  A    between atoms: C_14  and  C_15
REMARK                            x       y       z     vdW  Elec       q    Type
REMARK                         _______ _______ _______ _____ _____    ______ ____
ROOT
ATOM      1  N   UNL     1      44.596   6.686  10.914  0.00  0.00    +0.000 N 
ATOM      2  H   UNL     1      44.835   6.874   9.944  0.00  0.00    +0.000 HD
ENDROOT
BRANCH   1   6
ATOM      3  C   UNL     1      47.350   8.191  13.679  0.00  0.00    +0.000 A 
ATOM      4  C   UNL     1      47.639   6.977  13.074  0.00  0.00    +0.000 A 
ATOM      5  C   UNL     1      46.732   6.470  12.144  0.00  0.00    +0.000 A 
ATOM      6  C   UNL     1      45.571   7.170  11.816  0.00  0.00    +0.000 A 
ATOM      7  C   UNL     1      45.369   8.367  12.515  0.00  0.00    +0.000 A 
ATOM      8  N   UNL     1      46.220   8.907  13.422  0.00  0.00    +0.000 NA
BRANCH   3  10
ATOM      9  N   UNL     1      47.753   9.177  15.857  0.00  0.00    +0.000 N 
ATOM     10  C   UNL     1      48.309   8.766  14.675  0.00  0.00    +0.000 C 
ATOM     11  O   UNL     1      49.510   8.866  14.459  0.00  0.00    +0.000 OA
ATOM     12  H   UNL     1      48.346   9.564  16.578  0.00  0.00    +0.000 HD
ATOM     13  H   UNL     1      46.758   9.067  16.007  0.00  0.00    +0.000 HD
ENDBRANCH   3  10
ENDBRANCH   1   6
BRANCH   1  14
ATOM     14  C   UNL     1      43.852   5.422  11.140  0.00  0.00    +0.000 C 
ATOM     15  C   UNL     1      42.392   5.498  11.555  0.00  0.00    +0.000 C 
ATOM     16  C   UNL     1      43.411   5.093  12.565  0.00  0.00    +0.000 C 
BRANCH  14  17
ATOM     17  C   UNL     1      44.357   4.217  10.349  0.00  0.00    +0.000 A 
ATOM     18  C   UNL     1      43.857   2.924  10.580  0.00  0.00    +0.000 A 
ATOM     19  C   UNL     1      44.239   1.837   9.788  0.00  0.00    +0.000 A 
ATOM     20  C   UNL     1      45.147   2.019   8.746  0.00  0.00    +0.000 A 
ATOM     21  C   UNL     1      45.681   3.286   8.495  0.00  0.00    +0.000 A 
ATOM     22  C   UNL     1      45.284   4.362   9.305  0.00  0.00    +0.000 A 
BRANCH  21  23
ATOM     23  C   UNL     1      46.645   3.543   7.366  0.00  0.00    +0.000 C 
ATOM     24  F   UNL     1      47.210   4.779   7.393  0.00  0.00    +0.000 F 
ATOM     25  F   UNL     1      47.683   2.657   7.366  0.00  0.00    +0.000 F 
ATOM     26  F   UNL     1      46.057   3.421   6.143  0.00  0.00    +0.000 F 
ENDBRANCH  21  23
ENDBRANCH  14  17
ENDBRANCH   1  14
TORSDOF 5
ENDMDL
MODEL 9
REMARK VINA RESULT:    -6.365      4.952      7.277
REMARK INTER + INTRA:          -9.125
REMARK INTER:                  -8.602
REMARK INTRA:                  -0.523
REMARK UNBOUND:                -0.899
REMARK  Name = 
REMARK  5 active torsions:
REMARK  status: ('A' for Active; 'I' for Inactive)
REMARK    1  A    between atoms: C_2  and  C_4
REMARK    2  A    between atoms: C_7  and  N_8
REMARK    3  A    between atoms: N_8  and  C_9
REMARK    4  A    between atoms: C_9  and  C_10
REMARK    5  A    between atoms: C_14  and  C_15
REMARK                            x       y       z     vdW  Elec       q    Type
REMARK                         _______ _______ _______ _____ _____    ______ ____
ROOT
ATOM      1  N   UNL     1      46.409   4.753  15.142  0.00  0.00    +0.000 N 
ATOM      2  H   UNL     1      45.791   5.247  15.781  0.00  0.00    +0.000 HD
ENDROOT
BRANCH   1   6
ATOM      3  C   UNL     1      49.685   2.879  16.946  0.00  0.00    +0.000 A 
ATOM      4  C   UNL     1      49.399   4.184  17.321  0.00  0.00    +0.000 A 
ATOM      5  C   UNL     1      48.304   4.815  16.732  0.00  0.00    +0.000 A 
ATOM      6  C   UNL     1      47.504   4.151  15.802  0.00  0.00    +0.000 A 
ATOM      7  C   UNL     1      47.910   2.849  15.477  0.00  0.00    +0.000 A 
ATOM      8  N   UNL     1      48.960   2.189  16.023  0.00  0.00    +0.000 NA
BRANCH   3  10
ATOM      9  N   UNL     1      51.609   2.927  18.420  0.00  0.00    +0.000 N 
ATOM     10  C   UNL     1      50.849   2.172  17.567  0.00  0.00    +0.000 C 
ATOM     11  O   UNL     1      51.112   0.999  17.338  0.00  0.00    +0.000 OA
ATOM     12  H   UNL     1      52.404   2.508  18.882  0.00  0.00    +0.000 HD
ATOM     13  H   UNL     1      51.354   3.891  18.596  0.00  0.00    +0.000 HD
ENDBRANCH   3  10
ENDBRANCH   1   6
BRANCH   1  14
ATOM     14  C   UNL     1      46.520   5.356  13.791  0.00  0.00    +0.000 C 
ATOM     15  C   UNL     1      47.897   5.730  13.268  0.00  0.00    +0.000 C 
ATOM     16  C   UNL     1      46.963   6.814  13.689  0.00  0.00    +0.000 C 
BRANCH  14  17
ATOM     17  C   UNL     1      45.413   4.971  12.812  0.00  0.00    +0.000 A 
ATOM     18  C   UNL     1      44.060   4.978  13.193  0.00  0.00    +0.000 A 
ATOM     19  C   UNL     1      43.037   4.728  12.272  0.00  0.00    +0.000 A 
ATOM     20  C   UNL     1      43.348   4.453  10.941  0.00  0.00    +0.000 A 
ATOM     21  C   UNL     1      44.683   4.419  10.526  0.00  0.00    +0.000 A 
ATOM     22  C   UNL     1      45.693   4.671  11.469  0.00  0.00    +0.000 A 
BRANCH  21  23
ATOM     23  C   UNL     1      45.073   4.153   9.096  0.00  0.00    +0.000 C 
ATOM     24  F   UNL     1      45.575   2.907   8.884  0.00  0.00    +0.000 F 
ATOM     25  F   UNL     1      44.015   4.280   8.244  0.00  0.00    +0.000 F 
ATOM     26  F   UNL     1      46.017   5.025   8.644  0.00  0.00    +0.000 F 
ENDBRANCH  21  23
ENDBRANCH  14  17
ENDBRANCH   1  14
TORSDOF 5
ENDMDL
