MODEL 1
REMARK VINA RESULT:    -7.210      0.000      0.000
REMARK INTER + INTRA:         -12.091
REMARK INTER:                 -10.160
REMARK INTRA:                  -1.931
REMARK UNBOUND:                -1.931
REMARK  Name = 
REMARK  8 active torsions:
REMARK  status: ('A' for Active; 'I' for Inactive)
REMARK    1  A    between atoms: C_1  and  O_2
REMARK    2  A    between atoms: O_2  and  C_3
REMARK    3  A    between atoms: C_5  and  C_6
REMARK    4  A    between atoms: C_6  and  N_7
REMARK    5  A    between atoms: C_8  and  C_10
REMARK    6  A    between atoms: C_22  and  C_23
REMARK    7  A    between atoms: C_23  and  N_24
REMARK    8  A    between atoms: C_25  and  C_27
REMARK                            x       y       z     vdW  Elec       q    Type
REMARK                         _______ _______ _______ _____ _____    ______ ____
ROOT
ATOM      1  C   UNL     1      47.233   6.008  13.827  0.00  0.00    +0.000 A 
ATOM      2  C   UNL     1      46.415   5.809  12.699  0.00  0.00    +0.000 A 
ATOM      3  C   UNL     1      46.038   6.870  11.864  0.00  0.00    +0.000 A 
ATOM      4  C   UNL     1      46.507   8.149  12.173  0.00  0.00    +0.000 A 
ATOM      5  C   UNL     1      47.326   8.356  13.291  0.00  0.00    +0.000 A 
ATOM      6  C   UNL     1      47.726   7.290  14.125  0.00  0.00    +0.000 A 
ENDROOT
BRANCH   1   8
ATOM      7  C   UNL     1      47.016   3.660  13.924  0.00  0.00    +0.000 C 
ATOM      8  O   UNL     1      47.565   4.848  14.480  0.00  0.00    +0.000 OA
ENDBRANCH   1   8
BRANCH   3   9
ATOM      9  C   UNL     1      45.189   6.630  10.638  0.00  0.00    +0.000 C 
BRANCH   9  10
ATOM     10  N   UNL     1      45.530   5.387   9.984  0.00  0.00    +0.000 N 
ATOM     11  C   UNL     1      44.570   4.451   9.683  0.00  0.00    +0.000 C 
ATOM     12  O   UNL     1      43.380   4.649   9.911  0.00  0.00    +0.000 OA
ATOM     13  H   UNL     1      46.507   5.113  10.006  0.00  0.00    +0.000 HD
BRANCH  11  14
ATOM     14  C   UNL     1      45.026   3.212   9.029  0.00  0.00    +0.000 A 
ATOM     15  C   UNL     1      44.432   2.001   9.359  0.00  0.00    +0.000 A 
ATOM     16  S   UNL     1      45.033   0.675   8.470  0.00  0.00    +0.000 S 
ATOM     17  C   UNL     1      46.151   1.662   7.649  0.00  0.00    +0.000 A 
ATOM     18  N   UNL     1      47.012   1.133   6.737  0.00  0.00    +0.000 NA
ATOM     19  C   UNL     1      47.825   1.992   6.216  0.00  0.00    +0.000 A 
ATOM     20  N   UNL     1      47.852   3.328   6.521  0.00  0.00    +0.000 N 
ATOM     21  C   UNL     1      46.983   3.907   7.416  0.00  0.00    +0.000 A 
ATOM     22  O   UNL     1      47.012   5.111   7.641  0.00  0.00    +0.000 OA
ATOM     23  C   UNL     1      46.053   2.988   8.039  0.00  0.00    +0.000 A 
ATOM     24  H   UNL     1      48.510   3.946   6.074  0.00  0.00    +0.000 HD
ENDBRANCH  11  14
ENDBRANCH   9  10
ENDBRANCH   3   9
BRANCH   6  25
ATOM     25  C   UNL     1      48.708   7.598  15.231  0.00  0.00    +0.000 C 
BRANCH  25  26
ATOM     26  N   UNL     1      48.536   6.749  16.390  0.00  0.00    +0.000 N 
ATOM     27  C   UNL     1      49.546   5.957  16.881  0.00  0.00    +0.000 C 
ATOM     28  O   UNL     1      50.632   5.845  16.316  0.00  0.00    +0.000 OA
ATOM     29  H   UNL     1      47.670   6.797  16.926  0.00  0.00    +0.000 HD
BRANCH  27  30
ATOM     30  C   UNL     1      49.224   5.146  18.148  0.00  0.00    +0.000 C 
ATOM     31  C   UNL     1      49.703   3.694  18.060  0.00  0.00    +0.000 C 
ATOM     32  C   UNL     1      48.766   2.815  17.239  0.00  0.00    +0.000 C 
ATOM     33  C   UNL     1      47.292   3.023  17.582  0.00  0.00    +0.000 C 
ATOM     34  N   UNL     1      46.905   4.438  17.607  0.00  0.00    +0.000 NA
ATOM     35  C   UNL     1      47.745   5.195  18.548  0.00  0.00    +0.000 C 
ATOM     36  H   UNL     1      45.930   4.505  17.907  0.00  0.00    +0.000 HD
ENDBRANCH  27  30
ENDBRANCH  25  26
ENDBRANCH   6  25
TORSDOF 7
ENDMDL
MODEL 2
REMARK VINA RESULT:    -7.027      3.562      8.608
REMARK INTER + INTRA:         -11.834
REMARK INTER:                 -10.325
REMARK INTRA:                  -1.509
REMARK UNBOUND:                -1.931
REMARK  Name = 
REMARK  8 active torsions:
REMARK  status: ('A' for Active; 'I' for Inactive)
REMARK    1  A    between atoms: C_1  and  O_2
REMARK    2  A    between atoms: O_2  and  C_3
REMARK    3  A    between atoms: C_5  and  C_6
REMARK    4  A    between atoms: C_6  and  N_7
REMARK    5  A    between atoms: C_8  and  C_10
REMARK    6  A    between atoms: C_22  and  C_23
REMARK    7  A    between atoms: C_23  and  N_24
REMARK    8  A    between atoms: C_25  and  C_27
REMARK                            x       y       z     vdW  Elec       q    Type
REMARK                         _______ _______ _______ _____ _____    ______ ____
ROOT
ATOM      1  C   UNL     1      47.527   5.768  13.358  0.00  0.00    +0.000 A 
ATOM      2  C   UNL     1      48.019   6.013  14.655  0.00  0.00    +0.000 A 
ATOM      3  C   UNL     1      48.633   7.226  14.995  0.00  0.00    +0.000 A 
ATOM      4  C   UNL     1      48.738   8.209  14.008  0.00  0.00    +0.000 A 
ATOM      5  C   UNL     1      48.246   7.977  12.717  0.00  0.00    +0.000 A 
ATOM      6  C   UNL     1      47.610   6.766  12.372  0.00  0.00    +0.000 A 
ENDROOT
BRANCH   1   8
ATOM      7  C   UNL     1      47.096   3.647  14.298  0.00  0.00    +0.000 C 
ATOM      8  O   UNL     1      46.889   4.561  13.229  0.00  0.00    +0.000 OA
ENDBRANCH   1   8
BRANCH   3   9
ATOM      9  C   UNL     1      49.122   7.482  16.401  0.00  0.00    +0.000 C 
BRANCH   9  10
ATOM     10  N   UNL     1      50.189   6.581  16.770  0.00  0.00    +0.000 N 
ATOM     11  C   UNL     1      49.993   5.580  17.692  0.00  0.00    +0.000 C 
ATOM     12  O   UNL     1      48.894   5.378  18.202  0.00  0.00    +0.000 OA
ATOM     13  H   UNL     1      51.134   6.875  16.545  0.00  0.00    +0.000 HD
BRANCH  11  14
ATOM     14  C   UNL     1      51.150   4.725  18.007  0.00  0.00    +0.000 A 
ATOM     15  C   UNL     1      52.276   5.282  18.599  0.00  0.00    +0.000 A 
ATOM     16  S   UNL     1      53.501   4.149  18.951  0.00  0.00    +0.000 S 
ATOM     17  C   UNL     1      52.594   2.876  18.274  0.00  0.00    +0.000 A 
ATOM     18  N   UNL     1      53.089   1.609  18.233  0.00  0.00    +0.000 NA
ATOM     19  C   UNL     1      52.308   0.752  17.664  0.00  0.00    +0.000 A 
ATOM     20  N   UNL     1      51.077   1.047  17.136  0.00  0.00    +0.000 N 
ATOM     21  C   UNL     1      50.529   2.307  17.180  0.00  0.00    +0.000 A 
ATOM     22  O   UNL     1      49.411   2.529  16.729  0.00  0.00    +0.000 OA
ATOM     23  C   UNL     1      51.366   3.312  17.801  0.00  0.00    +0.000 A 
ATOM     24  H   UNL     1      50.515   0.329  16.708  0.00  0.00    +0.000 HD
ENDBRANCH  11  14
ENDBRANCH   9  10
ENDBRANCH   3   9
BRANCH   6  25
ATOM     25  C   UNL     1      47.007   6.661  10.991  0.00  0.00    +0.000 C 
BRANCH  25  26
ATOM     26  N   UNL     1      45.754   5.937  10.976  0.00  0.00    +0.000 N 
ATOM     27  C   UNL     1      45.334   5.210   9.889  0.00  0.00    +0.000 C 
ATOM     28  O   UNL     1      45.947   5.200   8.823  0.00  0.00    +0.000 OA
ATOM     29  H   UNL     1      45.194   5.881  11.827  0.00  0.00    +0.000 HD
BRANCH  27  30
ATOM     30  C   UNL     1      44.001   4.458  10.043  0.00  0.00    +0.000 C 
ATOM     31  C   UNL     1      43.026   5.165  10.988  0.00  0.00    +0.000 C 
ATOM     32  C   UNL     1      43.352   4.923  12.458  0.00  0.00    +0.000 C 
ATOM     33  C   UNL     1      43.660   3.460  12.772  0.00  0.00    +0.000 C 
ATOM     34  N   UNL     1      44.630   2.868  11.846  0.00  0.00    +0.000 NA
ATOM     35  C   UNL     1      44.170   2.991  10.454  0.00  0.00    +0.000 C 
ATOM     36  H   UNL     1      44.738   1.876  12.072  0.00  0.00    +0.000 HD
ENDBRANCH  27  30
ENDBRANCH  25  26
ENDBRANCH   6  25
TORSDOF 7
ENDMDL
MODEL 3
REMARK VINA RESULT:    -6.789      3.847      8.985
REMARK INTER + INTRA:         -11.499
REMARK INTER:                  -9.947
REMARK INTRA:                  -1.552
REMARK UNBOUND:                -1.931
REMARK  Name = 
REMARK  8 active torsions:
REMARK  status: ('A' for Active; 'I' for Inactive)
REMARK    1  A    between atoms: C_1  and  O_2
REMARK    2  A    between atoms: O_2  and  C_3
REMARK    3  A    between atoms: C_5  and  C_6
REMARK    4  A    between atoms: C_6  and  N_7
REMARK    5  A    between atoms: C_8  and  C_10
REMARK    6  A    between atoms: C_22  and  C_23
REMARK    7  A    between atoms: C_23  and  N_24
REMARK    8  A    between atoms: C_25  and  C_27
REMARK                            x       y       z     vdW  Elec       q    Type
REMARK                         _______ _______ _______ _____ _____    ______ ____
ROOT
ATOM      1  C   UNL     1      48.515   6.361  15.500  0.00  0.00    +0.000 A 
ATOM      2  C   UNL     1      48.639   5.499  16.606  0.00  0.00    +0.000 A 
ATOM      3  C   UNL     1      48.007   4.248  16.641  0.00  0.00    +0.000 A 
ATOM      4  C   UNL     1      47.249   3.863  15.532  0.00  0.00    +0.000 A 
ATOM      5  C   UNL     1      47.126   4.712  14.425  0.00  0.00    +0.000 A 
ATOM      6  C   UNL     1      47.773   5.964  14.374  0.00  0.00    +0.000 A 
ENDROOT
BRANCH   1   8
ATOM      7  C   UNL     1      50.622   7.383  15.205  0.00  0.00    +0.000 C 
ATOM      8  O   UNL     1      49.264   7.505  15.607  0.00  0.00    +0.000 OA
ENDBRANCH   1   8
BRANCH   3   9
ATOM      9  C   UNL     1      48.181   3.322  17.821  0.00  0.00    +0.000 C 
BRANCH   9  10
ATOM     10  N   UNL     1      49.574   3.028  18.072  0.00  0.00    +0.000 N 
ATOM     11  C   UNL     1      50.296   2.216  17.229  0.00  0.00    +0.000 C 
ATOM     12  O   UNL     1      49.805   1.749  16.205  0.00  0.00    +0.000 OA
ATOM     13  H   UNL     1      49.916   3.205  19.010  0.00  0.00    +0.000 HD
BRANCH  11  14
ATOM     14  C   UNL     1      51.704   1.970  17.583  0.00  0.00    +0.000 A 
ATOM     15  C   UNL     1      52.158   0.666  17.729  0.00  0.00    +0.000 A 
ATOM     16  S   UNL     1      53.823   0.552  18.081  0.00  0.00    +0.000 S 
ATOM     17  C   UNL     1      53.989   2.247  18.108  0.00  0.00    +0.000 A 
ATOM     18  N   UNL     1      55.190   2.827  18.381  0.00  0.00    +0.000 NA
ATOM     19  C   UNL     1      55.162   4.119  18.399  0.00  0.00    +0.000 A 
ATOM     20  N   UNL     1      54.046   4.880  18.166  0.00  0.00    +0.000 N 
ATOM     21  C   UNL     1      52.821   4.335  17.861  0.00  0.00    +0.000 A 
ATOM     22  O   UNL     1      51.850   5.045  17.625  0.00  0.00    +0.000 OA
ATOM     23  C   UNL     1      52.791   2.887  17.835  0.00  0.00    +0.000 A 
ATOM     24  H   UNL     1      54.093   5.886  18.192  0.00  0.00    +0.000 HD
ENDBRANCH  11  14
ENDBRANCH   9  10
ENDBRANCH   3   9
BRANCH   6  25
ATOM     25  C   UNL     1      47.677   6.751  13.088  0.00  0.00    +0.000 C 
BRANCH  25  26
ATOM     26  N   UNL     1      46.708   6.203  12.163  0.00  0.00    +0.000 N 
ATOM     27  C   UNL     1      45.448   6.730  12.016  0.00  0.00    +0.000 C 
ATOM     28  O   UNL     1      45.026   7.642  12.724  0.00  0.00    +0.000 OA
ATOM     29  H   UNL     1      46.985   5.456  11.526  0.00  0.00    +0.000 HD
BRANCH  27  30
ATOM     30  C   UNL     1      44.549   6.067  10.959  0.00  0.00    +0.000 C 
ATOM     31  C   UNL     1      43.083   5.984  11.395  0.00  0.00    +0.000 C 
ATOM     32  C   UNL     1      42.821   4.835  12.362  0.00  0.00    +0.000 C 
ATOM     33  C   UNL     1      43.475   3.523  11.929  0.00  0.00    +0.000 C 
ATOM     34  N   UNL     1      44.887   3.681  11.566  0.00  0.00    +0.000 NA
ATOM     35  C   UNL     1      45.048   4.690  10.507  0.00  0.00    +0.000 C 
ATOM     36  H   UNL     1      45.240   2.784  11.226  0.00  0.00    +0.000 HD
ENDBRANCH  27  30
ENDBRANCH  25  26
ENDBRANCH   6  25
TORSDOF 7
ENDMDL
MODEL 4
REMARK VINA RESULT:    -6.781      4.005      6.697
REMARK INTER + INTRA:         -11.487
REMARK INTER:                 -10.101
REMARK INTRA:                  -1.386
REMARK UNBOUND:                -1.931
REMARK  Name = 
REMARK  8 active torsions:
REMARK  status: ('A' for Active; 'I' for Inactive)
REMARK    1  A    between atoms: C_1  and  O_2
REMARK    2  A    between atoms: O_2  and  C_3
REMARK    3  A    between atoms: C_5  and  C_6
REMARK    4  A    between atoms: C_6  and  N_7
REMARK    5  A    between atoms: C_8  and  C_10
REMARK    6  A    between atoms: C_22  and  C_23
REMARK    7  A    between atoms: C_23  and  N_24
REMARK    8  A    between atoms: C_25  and  C_27
REMARK                            x       y       z     vdW  Elec       q    Type
REMARK                         _______ _______ _______ _____ _____    ______ ____
ROOT
ATOM      1  C   UNL     1      50.289   5.525  17.907  0.00  0.00    +0.000 A 
ATOM      2  C   UNL     1      49.020   5.140  17.435  0.00  0.00    +0.000 A 
ATOM      3  C   UNL     1      48.724   3.808  17.113  0.00  0.00    +0.000 A 
ATOM      4  C   UNL     1      49.728   2.852  17.285  0.00  0.00    +0.000 A 
ATOM      5  C   UNL     1      50.993   3.225  17.760  0.00  0.00    +0.000 A 
ATOM      6  C   UNL     1      51.292   4.560  18.103  0.00  0.00    +0.000 A 
ENDROOT
BRANCH   1   8
ATOM      7  C   UNL     1      49.164   7.438  18.709  0.00  0.00    +0.000 C 
ATOM      8  O   UNL     1      50.373   6.851  18.246  0.00  0.00    +0.000 OA
ENDBRANCH   1   8
BRANCH   3   9
ATOM      9  C   UNL     1      47.345   3.410  16.643  0.00  0.00    +0.000 C 
BRANCH   9  10
ATOM     10  N   UNL     1      46.786   4.386  15.734  0.00  0.00    +0.000 N 
ATOM     11  C   UNL     1      46.784   4.178  14.376  0.00  0.00    +0.000 C 
ATOM     12  O   UNL     1      47.210   3.139  13.880  0.00  0.00    +0.000 OA
ATOM     13  H   UNL     1      46.652   5.323  16.098  0.00  0.00    +0.000 HD
BRANCH  11  14
ATOM     14  C   UNL     1      46.202   5.241  13.538  0.00  0.00    +0.000 A 
ATOM     15  C   UNL     1      46.902   6.424  13.343  0.00  0.00    +0.000 A 
ATOM     16  S   UNL     1      46.117   7.524  12.303  0.00  0.00    +0.000 S 
ATOM     17  C   UNL     1      44.783   6.483  12.117  0.00  0.00    +0.000 A 
ATOM     18  N   UNL     1      43.718   6.841  11.350  0.00  0.00    +0.000 NA
ATOM     19  C   UNL     1      42.765   5.968  11.325  0.00  0.00    +0.000 A 
ATOM     20  N   UNL     1      42.783   4.772  11.994  0.00  0.00    +0.000 N 
ATOM     21  C   UNL     1      43.849   4.360  12.758  0.00  0.00    +0.000 A 
ATOM     22  O   UNL     1      43.848   3.269  13.315  0.00  0.00    +0.000 OA
ATOM     23  C   UNL     1      44.946   5.305  12.829  0.00  0.00    +0.000 A 
ATOM     24  H   UNL     1      42.007   4.133  11.929  0.00  0.00    +0.000 HD
ENDBRANCH  11  14
ENDBRANCH   9  10
ENDBRANCH   3   9
BRANCH   6  25
ATOM     25  C   UNL     1      52.643   4.837  18.720  0.00  0.00    +0.000 C 
BRANCH  25  26
ATOM     26  N   UNL     1      53.666   3.916  18.276  0.00  0.00    +0.000 N 
ATOM     27  C   UNL     1      54.165   2.921  19.082  0.00  0.00    +0.000 C 
ATOM     28  O   UNL     1      53.845   2.805  20.263  0.00  0.00    +0.000 OA
ATOM     29  H   UNL     1      53.974   3.934  17.304  0.00  0.00    +0.000 HD
BRANCH  27  30
ATOM     30  C   UNL     1      55.216   1.992  18.451  0.00  0.00    +0.000 C 
ATOM     31  C   UNL     1      54.781   1.445  17.088  0.00  0.00    +0.000 C 
ATOM     32  C   UNL     1      53.801   0.283  17.206  0.00  0.00    +0.000 C 
ATOM     33  C   UNL     1      54.217  -0.751  18.250  0.00  0.00    +0.000 C 
ATOM     34  N   UNL     1      54.579  -0.150  19.538  0.00  0.00    +0.000 NA
ATOM     35  C   UNL     1      55.650   0.845  19.370  0.00  0.00    +0.000 C 
ATOM     36  H   UNL     1      54.909  -0.889  20.163  0.00  0.00    +0.000 HD
ENDBRANCH  27  30
ENDBRANCH  25  26
ENDBRANCH   6  25
TORSDOF 7
ENDMDL
MODEL 5
REMARK VINA RESULT:    -6.647      2.014      3.102
REMARK INTER + INTRA:         -11.299
REMARK INTER:                  -9.844
REMARK INTRA:                  -1.455
REMARK UNBOUND:                -1.931
REMARK  Name = 
REMARK  8 active torsions:
REMARK  status: ('A' for Active; 'I' for Inactive)
REMARK    1  A    between atoms: C_1  and  O_2
REMARK    2  A    between atoms: O_2  and  C_3
REMARK    3  A    between atoms: C_5  and  C_6
REMARK    4  A    between atoms: C_6  and  N_7
REMARK    5  A    between atoms: C_8  and  C_10
REMARK    6  A    between atoms: C_22  and  C_23
REMARK    7  A    between atoms: C_23  and  N_24
REMARK    8  A    between atoms: C_25  and  C_27
REMARK                            x       y       z     vdW  Elec       q    Type
REMARK                         _______ _______ _______ _____ _____    ______ ____
ROOT
ATOM      1  C   UNL     1      49.377   8.921  14.929  0.00  0.00    +0.000 A 
ATOM      2  C   UNL     1      48.692   8.934  13.699  0.00  0.00    +0.000 A 
ATOM      3  C   UNL     1      48.012   7.806  13.220  0.00  0.00    +0.000 A 
ATOM      4  C   UNL     1      48.018   6.652  14.007  0.00  0.00    +0.000 A 
ATOM      5  C   UNL     1      48.693   6.631  15.236  0.00  0.00    +0.000 A 
ATOM      6  C   UNL     1      49.363   7.768  15.732  0.00  0.00    +0.000 A 
ENDROOT
BRANCH   1   8
ATOM      7  C   UNL     1      49.212  11.271  14.790  0.00  0.00    +0.000 C 
ATOM      8  O   UNL     1      49.916  10.135  15.273  0.00  0.00    +0.000 OA
ENDBRANCH   1   8
BRANCH   3   9
ATOM      9  C   UNL     1      47.253   7.851  11.915  0.00  0.00    +0.000 C 
BRANCH   9  10
ATOM     10  N   UNL     1      46.638   6.580  11.607  0.00  0.00    +0.000 N 
ATOM     11  C   UNL     1      45.271   6.438  11.572  0.00  0.00    +0.000 C 
ATOM     12  O   UNL     1      44.517   7.390  11.751  0.00  0.00    +0.000 OA
ATOM     13  H   UNL     1      47.225   5.757  11.691  0.00  0.00    +0.000 HD
BRANCH  11  14
ATOM     14  C   UNL     1      44.747   5.096  11.261  0.00  0.00    +0.000 A 
ATOM     15  C   UNL     1      43.970   4.428  12.198  0.00  0.00    +0.000 A 
ATOM     16  S   UNL     1      43.394   2.915  11.660  0.00  0.00    +0.000 S 
ATOM     17  C   UNL     1      44.210   3.071  10.173  0.00  0.00    +0.000 A 
ATOM     18  N   UNL     1      44.149   2.086   9.236  0.00  0.00    +0.000 NA
ATOM     19  C   UNL     1      44.841   2.325   8.171  0.00  0.00    +0.000 A 
ATOM     20  N   UNL     1      45.581   3.458   7.958  0.00  0.00    +0.000 N 
ATOM     21  C   UNL     1      45.648   4.488   8.866  0.00  0.00    +0.000 A 
ATOM     22  O   UNL     1      46.293   5.503   8.630  0.00  0.00    +0.000 OA
ATOM     23  C   UNL     1      44.897   4.271  10.086  0.00  0.00    +0.000 A 
ATOM     24  H   UNL     1      46.096   3.584   7.101  0.00  0.00    +0.000 HD
ENDBRANCH  11  14
ENDBRANCH   9  10
ENDBRANCH   3   9
BRANCH   6  25
ATOM     25  C   UNL     1      49.955   7.681  17.120  0.00  0.00    +0.000 C 
BRANCH  25  26
ATOM     26  N   UNL     1      49.631   6.442  17.794  0.00  0.00    +0.000 N 
ATOM     27  C   UNL     1      50.403   5.312  17.672  0.00  0.00    +0.000 C 
ATOM     28  O   UNL     1      51.366   5.248  16.911  0.00  0.00    +0.000 OA
ATOM     29  H   UNL     1      48.857   6.416  18.458  0.00  0.00    +0.000 HD
BRANCH  27  30
ATOM     30  C   UNL     1      49.955   4.087  18.488  0.00  0.00    +0.000 C 
ATOM     31  C   UNL     1      49.863   2.813  17.643  0.00  0.00    +0.000 C 
ATOM     32  C   UNL     1      48.586   2.748  16.813  0.00  0.00    +0.000 C 
ATOM     33  C   UNL     1      47.335   3.128  17.604  0.00  0.00    +0.000 C 
ATOM     34  N   UNL     1      47.491   4.380  18.353  0.00  0.00    +0.000 NA
ATOM     35  C   UNL     1      48.649   4.309  19.259  0.00  0.00    +0.000 C 
ATOM     36  H   UNL     1      46.646   4.537  18.908  0.00  0.00    +0.000 HD
ENDBRANCH  27  30
ENDBRANCH  25  26
ENDBRANCH   6  25
TORSDOF 7
ENDMDL
MODEL 6
REMARK VINA RESULT:    -6.537      3.999      6.464
REMARK INTER + INTRA:         -11.143
REMARK INTER:                  -9.495
REMARK INTRA:                  -1.649
REMARK UNBOUND:                -1.931
REMARK  Name = 
REMARK  8 active torsions:
REMARK  status: ('A' for Active; 'I' for Inactive)
REMARK    1  A    between atoms: C_1  and  O_2
REMARK    2  A    between atoms: O_2  and  C_3
REMARK    3  A    between atoms: C_5  and  C_6
REMARK    4  A    between atoms: C_6  and  N_7
REMARK    5  A    between atoms: C_8  and  C_10
REMARK    6  A    between atoms: C_22  and  C_23
REMARK    7  A    between atoms: C_23  and  N_24
REMARK    8  A    between atoms: C_25  and  C_27
REMARK                            x       y       z     vdW  Elec       q    Type
REMARK                         _______ _______ _______ _____ _____    ______ ____
ROOT
ATOM      1  C   UNL     1      51.036   3.503  17.886  0.00  0.00    +0.000 A 
ATOM      2  C   UNL     1      49.789   3.048  17.417  0.00  0.00    +0.000 A 
ATOM      3  C   UNL     1      48.769   3.938  17.052  0.00  0.00    +0.000 A 
ATOM      4  C   UNL     1      49.023   5.307  17.153  0.00  0.00    +0.000 A 
ATOM      5  C   UNL     1      50.264   5.769  17.613  0.00  0.00    +0.000 A 
ATOM      6  C   UNL     1      51.301   4.881  17.965  0.00  0.00    +0.000 A 
ENDROOT
BRANCH   1   8
ATOM      7  C   UNL     1      51.696   1.287  17.412  0.00  0.00    +0.000 C 
ATOM      8  O   UNL     1      51.938   2.496  18.121  0.00  0.00    +0.000 OA
ENDBRANCH   1   8
BRANCH   3   9
ATOM      9  C   UNL     1      47.451   3.430  16.517  0.00  0.00    +0.000 C 
BRANCH   9  10
ATOM     10  N   UNL     1      46.819   4.393  15.643  0.00  0.00    +0.000 N 
ATOM     11  C   UNL     1      46.749   4.189  14.286  0.00  0.00    +0.000 C 
ATOM     12  O   UNL     1      47.173   3.162  13.764  0.00  0.00    +0.000 OA
ATOM     13  H   UNL     1      46.682   5.326  16.017  0.00  0.00    +0.000 HD
BRANCH  11  14
ATOM     14  C   UNL     1      46.096   5.239  13.485  0.00  0.00    +0.000 A 
ATOM     15  C   UNL     1      46.740   6.453  13.288  0.00  0.00    +0.000 A 
ATOM     16  S   UNL     1      45.876   7.535  12.291  0.00  0.00    +0.000 S 
ATOM     17  C   UNL     1      44.581   6.441  12.130  0.00  0.00    +0.000 A 
ATOM     18  N   UNL     1      43.478   6.766  11.403  0.00  0.00    +0.000 NA
ATOM     19  C   UNL     1      42.562   5.854  11.394  0.00  0.00    +0.000 A 
ATOM     20  N   UNL     1      42.652   4.649  12.042  0.00  0.00    +0.000 N 
ATOM     21  C   UNL     1      43.759   4.271  12.765  0.00  0.00    +0.000 A 
ATOM     22  O   UNL     1      43.820   3.173  13.304  0.00  0.00    +0.000 OA
ATOM     23  C   UNL     1      44.816   5.260  12.817  0.00  0.00    +0.000 A 
ATOM     24  H   UNL     1      41.901   3.979  11.991  0.00  0.00    +0.000 HD
ENDBRANCH  11  14
ENDBRANCH   9  10
ENDBRANCH   3   9
BRANCH   6  25
ATOM     25  C   UNL     1      52.640   5.479  18.333  0.00  0.00    +0.000 C 
BRANCH  25  26
ATOM     26  N   UNL     1      52.894   6.740  17.671  0.00  0.00    +0.000 N 
ATOM     27  C   UNL     1      53.565   6.824  16.475  0.00  0.00    +0.000 C 
ATOM     28  O   UNL     1      54.075   5.846  15.933  0.00  0.00    +0.000 OA
ATOM     29  H   UNL     1      52.490   7.598  18.048  0.00  0.00    +0.000 HD
BRANCH  27  30
ATOM     30  C   UNL     1      53.717   8.232  15.874  0.00  0.00    +0.000 C 
ATOM     31  C   UNL     1      52.438   9.066  15.987  0.00  0.00    +0.000 C 
ATOM     32  C   UNL     1      51.405   8.706  14.925  0.00  0.00    +0.000 C 
ATOM     33  C   UNL     1      52.005   8.570  13.526  0.00  0.00    +0.000 C 
ATOM     34  N   UNL     1      53.203   7.724  13.497  0.00  0.00    +0.000 NA
ATOM     35  C   UNL     1      54.224   8.229  14.428  0.00  0.00    +0.000 C 
ATOM     36  H   UNL     1      53.586   7.732  12.549  0.00  0.00    +0.000 HD
ENDBRANCH  27  30
ENDBRANCH  25  26
ENDBRANCH   6  25
TORSDOF 7
ENDMDL
MODEL 7
REMARK VINA RESULT:    -6.246      3.994      6.427
REMARK INTER + INTRA:         -10.733
REMARK INTER:                  -8.819
REMARK INTRA:                  -1.913
REMARK UNBOUND:                -1.931
REMARK  Name = 
REMARK  8 active torsions:
REMARK  status: ('A' for Active; 'I' for Inactive)
REMARK    1  A    between atoms: C_1  and  O_2
REMARK    2  A    between atoms: O_2  and  C_3
REMARK    3  A    between atoms: C_5  and  C_6
REMARK    4  A    between atoms: C_6  and  N_7
REMARK    5  A    between atoms: C_8  and  C_10
REMARK    6  A    between atoms: C_22  and  C_23
REMARK    7  A    between atoms: C_23  and  N_24
REMARK    8  A    between atoms: C_25  and  C_27
REMARK                            x       y       z     vdW  Elec       q    Type
REMARK                         _______ _______ _______ _____ _____    ______ ____
ROOT
ATOM      1  C   UNL     1      50.546   4.257  18.494  0.00  0.00    +0.000 A 
ATOM      2  C   UNL     1      49.649   3.632  17.607  0.00  0.00    +0.000 A 
ATOM      3  C   UNL     1      48.327   4.077  17.458  0.00  0.00    +0.000 A 
ATOM      4  C   UNL     1      47.916   5.178  18.213  0.00  0.00    +0.000 A 
ATOM      5  C   UNL     1      48.803   5.810  19.094  0.00  0.00    +0.000 A 
ATOM      6  C   UNL     1      50.139   5.380  19.235  0.00  0.00    +0.000 A 
ENDROOT
BRANCH   1   8
ATOM      7  C   UNL     1      51.945   2.508  17.751  0.00  0.00    +0.000 C 
ATOM      8  O   UNL     1      51.815   3.739  18.450  0.00  0.00    +0.000 OA
ENDBRANCH   1   8
BRANCH   3   9
ATOM      9  C   UNL     1      47.391   3.416  16.475  0.00  0.00    +0.000 C 
BRANCH   9  10
ATOM     10  N   UNL     1      46.756   4.381  15.607  0.00  0.00    +0.000 N 
ATOM     11  C   UNL     1      46.849   4.282  14.239  0.00  0.00    +0.000 C 
ATOM     12  O   UNL     1      47.430   3.346  13.697  0.00  0.00    +0.000 OA
ATOM     13  H   UNL     1      46.483   5.263  16.027  0.00  0.00    +0.000 HD
BRANCH  11  14
ATOM     14  C   UNL     1      46.175   5.325  13.446  0.00  0.00    +0.000 A 
ATOM     15  C   UNL     1      46.808   6.542  13.233  0.00  0.00    +0.000 A 
ATOM     16  S   UNL     1      45.921   7.616  12.248  0.00  0.00    +0.000 S 
ATOM     17  C   UNL     1      44.630   6.514  12.114  0.00  0.00    +0.000 A 
ATOM     18  N   UNL     1      43.512   6.830  11.406  0.00  0.00    +0.000 NA
ATOM     19  C   UNL     1      42.601   5.913  11.416  0.00  0.00    +0.000 A 
ATOM     20  N   UNL     1      42.709   4.711  12.067  0.00  0.00    +0.000 N 
ATOM     21  C   UNL     1      43.831   4.342  12.771  0.00  0.00    +0.000 A 
ATOM     22  O   UNL     1      43.909   3.246  13.313  0.00  0.00    +0.000 OA
ATOM     23  C   UNL     1      44.884   5.337  12.801  0.00  0.00    +0.000 A 
ATOM     24  H   UNL     1      41.962   4.037  12.032  0.00  0.00    +0.000 HD
ENDBRANCH  11  14
ENDBRANCH   9  10
ENDBRANCH   3   9
BRANCH   6  25
ATOM     25  C   UNL     1      51.049   6.202  20.119  0.00  0.00    +0.000 C 
BRANCH  25  26
ATOM     26  N   UNL     1      52.411   6.255  19.632  0.00  0.00    +0.000 N 
ATOM     27  C   UNL     1      52.884   7.298  18.874  0.00  0.00    +0.000 C 
ATOM     28  O   UNL     1      52.160   8.211  18.480  0.00  0.00    +0.000 OA
ATOM     29  H   UNL     1      53.080   5.545  19.928  0.00  0.00    +0.000 HD
BRANCH  27  30
ATOM     30  C   UNL     1      54.367   7.234  18.472  0.00  0.00    +0.000 C 
ATOM     31  C   UNL     1      54.571   7.245  16.954  0.00  0.00    +0.000 C 
ATOM     32  C   UNL     1      54.321   5.883  16.317  0.00  0.00    +0.000 C 
ATOM     33  C   UNL     1      54.977   4.733  17.080  0.00  0.00    +0.000 C 
ATOM     34  N   UNL     1      54.702   4.772  18.520  0.00  0.00    +0.000 NA
ATOM     35  C   UNL     1      55.122   6.057  19.100  0.00  0.00    +0.000 C 
ATOM     36  H   UNL     1      55.222   4.018  18.974  0.00  0.00    +0.000 HD
ENDBRANCH  27  30
ENDBRANCH  25  26
ENDBRANCH   6  25
TORSDOF 7
ENDMDL
MODEL 8
REMARK VINA RESULT:    -6.197      4.003      6.433
REMARK INTER + INTRA:         -10.664
REMARK INTER:                  -9.142
REMARK INTRA:                  -1.522
REMARK UNBOUND:                -1.931
REMARK  Name = 
REMARK  8 active torsions:
REMARK  status: ('A' for Active; 'I' for Inactive)
REMARK    1  A    between atoms: C_1  and  O_2
REMARK    2  A    between atoms: O_2  and  C_3
REMARK    3  A    between atoms: C_5  and  C_6
REMARK    4  A    between atoms: C_6  and  N_7
REMARK    5  A    between atoms: C_8  and  C_10
REMARK    6  A    between atoms: C_22  and  C_23
REMARK    7  A    between atoms: C_23  and  N_24
REMARK    8  A    between atoms: C_25  and  C_27
REMARK                            x       y       z     vdW  Elec       q    Type
REMARK                         _______ _______ _______ _____ _____    ______ ____
ROOT
ATOM      1  C   UNL     1      50.375   4.489  18.628  0.00  0.00    +0.000 A 
ATOM      2  C   UNL     1      49.597   3.864  17.634  0.00  0.00    +0.000 A 
ATOM      3  C   UNL     1      48.205   4.021  17.578  0.00  0.00    +0.000 A 
ATOM      4  C   UNL     1      47.596   4.834  18.537  0.00  0.00    +0.000 A 
ATOM      5  C   UNL     1      48.363   5.465  19.526  0.00  0.00    +0.000 A 
ATOM      6  C   UNL     1      49.765   5.327  19.578  0.00  0.00    +0.000 A 
ENDROOT
BRANCH   1   8
ATOM      7  C   UNL     1      52.346   5.065  17.466  0.00  0.00    +0.000 C 
ATOM      8  O   UNL     1      51.723   4.288  18.481  0.00  0.00    +0.000 OA
ENDBRANCH   1   8
BRANCH   3   9
ATOM      9  C   UNL     1      47.394   3.371  16.483  0.00  0.00    +0.000 C 
BRANCH   9  10
ATOM     10  N   UNL     1      46.781   4.351  15.615  0.00  0.00    +0.000 N 
ATOM     11  C   UNL     1      46.775   4.192  14.250  0.00  0.00    +0.000 C 
ATOM     12  O   UNL     1      47.245   3.193  13.713  0.00  0.00    +0.000 OA
ATOM     13  H   UNL     1      46.606   5.267  16.013  0.00  0.00    +0.000 HD
BRANCH  11  14
ATOM     14  C   UNL     1      46.135   5.256  13.456  0.00  0.00    +0.000 A 
ATOM     15  C   UNL     1      46.806   6.453  13.244  0.00  0.00    +0.000 A 
ATOM     16  S   UNL     1      45.953   7.554  12.258  0.00  0.00    +0.000 S 
ATOM     17  C   UNL     1      44.628   6.492  12.124  0.00  0.00    +0.000 A 
ATOM     18  N   UNL     1      43.521   6.842  11.414  0.00  0.00    +0.000 NA
ATOM     19  C   UNL     1      42.583   5.954  11.424  0.00  0.00    +0.000 A 
ATOM     20  N   UNL     1      42.653   4.750  12.074  0.00  0.00    +0.000 N 
ATOM     21  C   UNL     1      43.762   4.346  12.780  0.00  0.00    +0.000 A 
ATOM     22  O   UNL     1      43.805   3.248  13.322  0.00  0.00    +0.000 OA
ATOM     23  C   UNL     1      44.845   5.308  12.810  0.00  0.00    +0.000 A 
ATOM     24  H   UNL     1      41.885   4.099  12.038  0.00  0.00    +0.000 HD
ENDBRANCH  11  14
ENDBRANCH   9  10
ENDBRANCH   3   9
BRANCH   6  25
ATOM     25  C   UNL     1      50.511   6.144  20.607  0.00  0.00    +0.000 C 
BRANCH  25  26
ATOM     26  N   UNL     1      49.863   7.403  20.905  0.00  0.00    +0.000 N 
ATOM     27  C   UNL     1      50.142   8.558  20.216  0.00  0.00    +0.000 C 
ATOM     28  O   UNL     1      51.026   8.622  19.363  0.00  0.00    +0.000 OA
ATOM     29  H   UNL     1      49.106   7.431  21.587  0.00  0.00    +0.000 HD
BRANCH  27  30
ATOM     30  C   UNL     1      49.338   9.806  20.618  0.00  0.00    +0.000 C 
ATOM     31  C   UNL     1      47.829   9.549  20.662  0.00  0.00    +0.000 C 
ATOM     32  C   UNL     1      47.188   9.562  19.278  0.00  0.00    +0.000 C 
ATOM     33  C   UNL     1      47.652  10.733  18.413  0.00  0.00    +0.000 C 
ATOM     34  N   UNL     1      49.110  10.886  18.392  0.00  0.00    +0.000 NA
ATOM     35  C   UNL     1      49.642  11.036  19.755  0.00  0.00    +0.000 C 
ATOM     36  H   UNL     1      49.344  11.722  17.852  0.00  0.00    +0.000 HD
ENDBRANCH  27  30
ENDBRANCH  25  26
ENDBRANCH   6  25
TORSDOF 7
ENDMDL
MODEL 9
REMARK VINA RESULT:    -6.027      5.045      7.209
REMARK INTER + INTRA:         -10.424
REMARK INTER:                  -9.073
REMARK INTRA:                  -1.351
REMARK UNBOUND:                -1.931
REMARK  Name = 
REMARK  8 active torsions:
REMARK  status: ('A' for Active; 'I' for Inactive)
REMARK    1  A    between atoms: C_1  and  O_2
REMARK    2  A    between atoms: O_2  and  C_3
REMARK    3  A    between atoms: C_5  and  C_6
REMARK    4  A    between atoms: C_6  and  N_7
REMARK    5  A    between atoms: C_8  and  C_10
REMARK    6  A    between atoms: C_22  and  C_23
REMARK    7  A    between atoms: C_23  and  N_24
REMARK    8  A    between atoms: C_25  and  C_27
REMARK                            x       y       z     vdW  Elec       q    Type
REMARK                         _______ _______ _______ _____ _____    ______ ____
ROOT
ATOM      1  C   UNL     1      49.400   6.934  14.204  0.00  0.00    +0.000 A 
ATOM      2  C   UNL     1      50.359   7.729  13.548  0.00  0.00    +0.000 A 
ATOM      3  C   UNL     1      50.190   8.142  12.219  0.00  0.00    +0.000 A 
ATOM      4  C   UNL     1      49.026   7.753  11.552  0.00  0.00    +0.000 A 
ATOM      5  C   UNL     1      48.064   6.967  12.199  0.00  0.00    +0.000 A 
ATOM      6  C   UNL     1      48.218   6.563  13.542  0.00  0.00    +0.000 A 
ENDROOT
BRANCH   1   8
ATOM      7  C   UNL     1      49.312   7.720  16.428  0.00  0.00    +0.000 C 
ATOM      8  O   UNL     1      49.693   6.692  15.522  0.00  0.00    +0.000 OA
ENDBRANCH   1   8
BRANCH   3   9
ATOM      9  C   UNL     1      51.214   9.025  11.544  0.00  0.00    +0.000 C 
BRANCH   9  10
ATOM     10  N   UNL     1      51.592   8.512  10.246  0.00  0.00    +0.000 N 
ATOM     11  C   UNL     1      52.741   8.932   9.619  0.00  0.00    +0.000 C 
ATOM     12  O   UNL     1      53.518   9.719  10.153  0.00  0.00    +0.000 OA
ATOM     13  H   UNL     1      50.864   8.058   9.705  0.00  0.00    +0.000 HD
BRANCH  11  14
ATOM     14  C   UNL     1      53.027   8.357   8.293  0.00  0.00    +0.000 A 
ATOM     15  C   UNL     1      53.026   9.178   7.174  0.00  0.00    +0.000 A 
ATOM     16  S   UNL     1      53.433   8.370   5.728  0.00  0.00    +0.000 S 
ATOM     17  C   UNL     1      53.571   6.878   6.536  0.00  0.00    +0.000 A 
ATOM     18  N   UNL     1      53.882   5.740   5.856  0.00  0.00    +0.000 NA
ATOM     19  C   UNL     1      53.922   4.678   6.590  0.00  0.00    +0.000 A 
ATOM     20  N   UNL     1      53.683   4.651   7.940  0.00  0.00    +0.000 N 
ATOM     21  C   UNL     1      53.391   5.780   8.669  0.00  0.00    +0.000 A 
ATOM     22  O   UNL     1      53.216   5.726   9.880  0.00  0.00    +0.000 OA
ATOM     23  C   UNL     1      53.325   7.002   7.894  0.00  0.00    +0.000 A 
ATOM     24  H   UNL     1      53.734   3.787   8.455  0.00  0.00    +0.000 HD
ENDBRANCH  11  14
ENDBRANCH   9  10
ENDBRANCH   3   9
BRANCH   6  25
ATOM     25  C   UNL     1      47.069   5.822  14.185  0.00  0.00    +0.000 C 
BRANCH  25  26
ATOM     26  N   UNL     1      45.917   5.703  13.317  0.00  0.00    +0.000 N 
ATOM     27  C   UNL     1      45.351   4.491  13.003  0.00  0.00    +0.000 C 
ATOM     28  O   UNL     1      45.838   3.421  13.363  0.00  0.00    +0.000 OA
ATOM     29  H   UNL     1      45.443   6.544  12.991  0.00  0.00    +0.000 HD
BRANCH  27  30
ATOM     30  C   UNL     1      44.103   4.531  12.106  0.00  0.00    +0.000 C 
ATOM     31  C   UNL     1      43.849   3.206  11.382  0.00  0.00    +0.000 C 
ATOM     32  C   UNL     1      44.742   3.023  10.160  0.00  0.00    +0.000 C 
ATOM     33  C   UNL     1      44.822   4.271   9.281  0.00  0.00    +0.000 C 
ATOM     34  N   UNL     1      45.106   5.491  10.045  0.00  0.00    +0.000 NA
ATOM     35  C   UNL     1      44.105   5.692  11.105  0.00  0.00    +0.000 C 
ATOM     36  H   UNL     1      45.079   6.290   9.408  0.00  0.00    +0.000 HD
ENDBRANCH  27  30
ENDBRANCH  25  26
ENDBRANCH   6  25
TORSDOF 7
ENDMDL
